MODEL 1
REMARK VINA RESULT:     -11.7      0.000      0.000
REMARK  20 active torsions:
REMARK  status: ('A' for Active; 'I' for Inactive)
REMARK    1  A    between atoms: C1_1  and  C23_23 
REMARK    2  A    between atoms: C1_1  and  C2_2 
REMARK    3  A    between atoms: C2_2  and  C18_18 
REMARK    4  A    between atoms: C2_2  and  C3_3 
REMARK    5  A    between atoms: C21_21  and  C4_4 
REMARK    6  A    between atoms: C13_13  and  C5_5 
REMARK    7  A    between atoms: C18_18  and  C7_7 
REMARK    8  A    between atoms: C7_7  and  C16_16 
REMARK    9  A    between atoms: C7_7  and  C8_8 
REMARK   10  A    between atoms: C8_8  and  C9_9 
REMARK   11  A    between atoms: C9_9  and  C10_10 
REMARK       I    between atoms: C16_16  and  N18_45 
REMARK   12  A    between atoms: N18_45  and  C19_19 
REMARK   13  A    between atoms: C19_19  and  C27_27 
REMARK   14  A    between atoms: C19_19  and  C20_20 
REMARK   15  A    between atoms: C20_20  and  C21_21 
REMARK   16  A    between atoms: C21_21  and  C22_22 
REMARK   17  A    between atoms: C23_23  and  C24_24 
REMARK   18  A    between atoms: C24_24  and  C25_25 
REMARK   19  A    between atoms: C25_25  and  N1_44 
REMARK       I    between atoms: C27_27  and  N29_46 
REMARK   20  A    between atoms: N29_46  and  C30_30 
ROOT
ATOM      1  C7  L04 d          33.756  38.137  24.305  0.00  0.00     0.025 C 
ATOM      2  H8  L04 d          34.248  39.019  24.742  0.00  0.00     0.054 H 
ENDROOT
BRANCH   1   3
ATOM      3  C18 L04 d          34.618  36.907  24.588  0.00  0.00    -0.041 C 
ATOM      4  H18 L04 d          35.189  37.104  25.506  0.00  0.00     0.035 H 
ATOM      5  H19 L04 d          33.942  36.055  24.751  0.00  0.00     0.035 H 
BRANCH   3   6
ATOM      6  C2  L04 d          35.614  36.508  23.497  0.00  0.00     0.031 C 
ATOM      7  H3  L04 d          35.507  37.235  22.678  0.00  0.00     0.056 H 
BRANCH   6   8
ATOM      8  C1  L04 d          35.337  35.122  22.898  0.00  0.00    -0.052 C 
ATOM      9  H1  L04 d          34.823  35.259  21.936  0.00  0.00     0.034 H 
ATOM     10  H2  L04 d          36.301  34.619  22.731  0.00  0.00     0.034 H 
BRANCH   8  11
ATOM     11  C23 L04 d          34.477  34.224  23.772  0.00  0.00    -0.063 C 
ATOM     12  H27 L04 d          33.911  33.534  23.130  0.00  0.00     0.033 H 
ATOM     13  H28 L04 d          33.778  34.847  24.348  0.00  0.00     0.033 H 
BRANCH  11  14
ATOM     14  C24 L04 d          35.331  33.414  24.739  0.00  0.00    -0.050 C 
ATOM     15  H29 L04 d          36.392  33.631  24.546  0.00  0.00     0.035 H 
ATOM     16  H30 L04 d          35.138  32.344  24.573  0.00  0.00     0.035 H 
BRANCH  14  17
ATOM     17  C25 L04 d          35.015  33.752  26.189  0.00  0.00    -0.002 C 
ATOM     18  H31 L04 d          33.981  33.445  26.402  0.00  0.00     0.064 H 
ATOM     19  H32 L04 d          35.110  34.840  26.323  0.00  0.00     0.064 H 
BRANCH  17  20
ATOM     20  N1  L04 d          35.902  33.088  27.142  0.00  0.00    -0.344 N 
ATOM     21  C28 L04 d          35.963  31.661  27.483  0.00  0.00     0.023 A 
ATOM     22  C36 L04 d          37.132  31.615  28.465  0.00  0.00    -0.025 A 
ATOM     23  H33 L04 d          36.166  31.047  26.593  0.00  0.00     0.071 H 
ATOM     24  H34 L04 d          35.030  31.323  27.957  0.00  0.00     0.071 H 
ATOM     25  C29 L04 d          37.612  32.934  28.672  0.00  0.00     0.040 A 
ATOM     26  C38 L04 d          37.758  30.541  29.111  0.00  0.00    -0.074 A 
ATOM     27  C26 L04 d          36.795  33.829  27.843  0.00  0.00     0.254 A 
ATOM     28  C37 L04 d          38.708  33.152  29.519  0.00  0.00    -0.067 A 
ATOM     29  O1  L04 d          36.927  35.053  27.764  0.00  0.00    -0.267 OA
ATOM     30  C40 L04 d          39.313  32.072  30.144  0.00  0.00    -0.082 A 
ATOM     31  H40 L04 d          39.080  34.157  29.683  0.00  0.00     0.085 H 
ATOM     32  C39 L04 d          38.844  30.785  29.945  0.00  0.00    -0.082 A 
ATOM     33  H43 L04 d          40.163  32.239  30.796  0.00  0.00     0.083 H 
ATOM     34  H42 L04 d          39.331  29.955  30.446  0.00  0.00     0.083 H 
ATOM     35  H41 L04 d          37.399  29.530  28.962  0.00  0.00     0.084 H 
ENDBRANCH  17  20
ENDBRANCH  14  17
ENDBRANCH  11  14
ENDBRANCH   8  11
ENDBRANCH   6   8
BRANCH   6  36
ATOM     36  C3  L04 d          37.047  36.626  24.031  0.00  0.00     0.177 C 
ATOM     37  O5  L04 d          37.611  35.731  24.712  0.00  0.00    -0.648 OA
ATOM     38  O4  L04 d          37.647  37.679  23.804  0.00  0.00    -0.648 OA
ENDBRANCH   6  36
ENDBRANCH   3   6
ENDBRANCH   1   3
BRANCH   1  39
ATOM     39  C16 L04 d          32.376  37.977  24.926  0.00  0.00     0.222 C 
ATOM     40  O17 L04 d          32.062  36.938  25.514  0.00  0.00    -0.273 OA
ATOM     41  N18 L04 d          31.555  39.012  24.789  0.00  0.00    -0.347 N 
ATOM     42  H46 L04 d          31.877  39.835  24.322  0.00  0.00     0.163 HD
BRANCH  41  43
ATOM     43  C19 L04 d          30.195  38.970  25.308  0.00  0.00     0.090 C 
ATOM     44  H20 L04 d          30.139  38.253  26.141  0.00  0.00     0.087 H 
BRANCH  43  45
ATOM     45  C27 L04 d          29.288  38.513  24.171  0.00  0.00     0.245 C 
ATOM     46  O28 L04 d          29.171  37.312  23.913  0.00  0.00    -0.271 OA
ATOM     47  N29 L04 d          28.601  39.475  23.552  0.00  0.00    -0.325 N 
ATOM     48  H47 L04 d          28.742  40.402  23.900  0.00  0.00     0.169 HD
BRANCH  47  49
ATOM     49  C30 L04 d          27.721  39.357  22.494  0.00  0.00     0.034 A 
ATOM     50  C35 L04 d          26.424  38.860  22.617  0.00  0.00    -0.057 A 
ATOM     51  C34 L04 d          25.589  38.759  21.507  0.00  0.00    -0.081 A 
ATOM     52  H39 L04 d          26.060  38.549  23.589  0.00  0.00     0.086 H 
ATOM     53  C33 L04 d          26.050  39.160  20.253  0.00  0.00    -0.083 A 
ATOM     54  H38 L04 d          24.584  38.370  21.617  0.00  0.00     0.083 H 
ATOM     55  C32 L04 d          27.342  39.655  20.118  0.00  0.00    -0.081 A 
ATOM     56  H37 L04 d          25.403  39.084  19.386  0.00  0.00     0.083 H 
ATOM     57  C31 L04 d          28.167  39.753  21.234  0.00  0.00    -0.057 A 
ATOM     58  H36 L04 d          27.706  39.965  19.145  0.00  0.00     0.083 H 
ATOM     59  H35 L04 d          29.173  40.143  21.122  0.00  0.00     0.086 H 
ENDBRANCH  47  49
ENDBRANCH  43  45
BRANCH  43  60
ATOM     60  C20 L04 d          29.754  40.349  25.801  0.00  0.00    -0.035 C 
ATOM     61  H21 L04 d          29.102  40.778  25.026  0.00  0.00     0.037 H 
ATOM     62  H22 L04 d          30.661  40.964  25.900  0.00  0.00     0.037 H 
BRANCH  60  63
ATOM     63  C21 L04 d          28.998  40.440  27.129  0.00  0.00    -0.059 C 
ATOM     64  H23 L04 d          29.283  39.588  27.764  0.00  0.00     0.038 H 
BRANCH  63  65
ATOM     65  C4  L04 d          29.400  41.732  27.819  0.00  0.00    -0.073 C 
ATOM     66  H4  L04 d          29.234  42.579  27.137  0.00  0.00     0.028 H 
ATOM     67  H5  L04 d          30.463  41.685  28.095  0.00  0.00     0.028 H 
ATOM     68  H6  L04 d          28.792  41.868  28.726  0.00  0.00     0.028 H 
ENDBRANCH  63  65
BRANCH  63  69
ATOM     69  C22 L04 d          27.488  40.396  26.901  0.00  0.00    -0.073 C 
ATOM     70  H24 L04 d          27.283  40.176  25.842  0.00  0.00     0.028 H 
ATOM     71  H25 L04 d          27.048  41.368  27.165  0.00  0.00     0.028 H 
ATOM     72  H26 L04 d          27.044  39.609  27.530  0.00  0.00     0.028 H 
ENDBRANCH  63  69
ENDBRANCH  60  63
ENDBRANCH  43  60
ENDBRANCH  41  43
ENDBRANCH   1  39
BRANCH   1  73
ATOM     73  C8  L04 d          33.586  38.356  22.799  0.00  0.00    -0.050 C 
ATOM     74  H9  L04 d          32.524  38.220  22.547  0.00  0.00     0.034 H 
ATOM     75  H10 L04 d          34.188  37.603  22.270  0.00  0.00     0.034 H 
BRANCH  73  76
ATOM     76  C9  L04 d          34.013  39.720  22.326  0.00  0.00    -0.040 C 
ATOM     77  H11 L04 d          33.737  40.452  23.099  0.00  0.00     0.040 H 
ATOM     78  H12 L04 d          33.470  39.946  21.397  0.00  0.00     0.040 H 
BRANCH  76  79
ATOM     79  C10 L04 d          35.479  39.861  22.054  0.00  0.00    -0.058 A 
ATOM     80  C15 L04 d          36.114  39.019  21.149  0.00  0.00    -0.076 A 
ATOM     81  C14 L04 d          37.464  39.167  20.867  0.00  0.00    -0.072 A 
ATOM     82  H16 L04 d          35.547  38.238  20.656  0.00  0.00     0.084 H 
ATOM     83  C13 L04 d          38.206  40.162  21.492  0.00  0.00    -0.026 A 
ATOM     84  H15 L04 d          37.943  38.504  20.156  0.00  0.00     0.084 H 
ATOM     85  C12 L04 d          37.569  41.001  22.402  0.00  0.00    -0.072 A 
ATOM     86  C11 L04 d          36.223  40.852  22.680  0.00  0.00    -0.076 A 
ATOM     87  H14 L04 d          38.135  41.780  22.899  0.00  0.00     0.084 H 
ATOM     88  H13 L04 d          35.745  41.515  23.393  0.00  0.00     0.084 H 
BRANCH  83  89
ATOM     89  C5  L04 d          39.639  40.334  21.205  0.00  0.00    -0.026 A 
ATOM     90  C43 L04 d          40.509  40.773  22.196  0.00  0.00    -0.069 A 
ATOM     91  C42 L04 d          41.860  40.945  21.925  0.00  0.00    -0.045 A 
ATOM     92  H45 L04 d          40.129  40.983  23.190  0.00  0.00     0.085 H 
ATOM     93  C41 L04 d          42.367  40.683  20.660  0.00  0.00     0.116 A 
ATOM     94  H44 L04 d          42.525  41.287  22.709  0.00  0.00     0.088 H 
ATOM     95  C17 L04 d          41.506  40.230  19.671  0.00  0.00    -0.045 A 
ATOM     96  F1  L04 d          43.678  40.870  20.405  0.00  0.00    -0.206 F 
ATOM     97  C6  L04 d          40.151  40.064  19.939  0.00  0.00    -0.069 A 
ATOM     98  H17 L04 d          41.891  40.004  18.683  0.00  0.00     0.088 H 
ATOM     99  H7  L04 d          39.487  39.720  19.154  0.00  0.00     0.085 H 
ENDBRANCH  83  89
ENDBRANCH  76  79
ENDBRANCH  73  76
ENDBRANCH   1  73
TORSDOF 20
ENDMDL
MODEL 2
REMARK VINA RESULT:     -11.2      2.270      4.167
REMARK  20 active torsions:
REMARK  status: ('A' for Active; 'I' for Inactive)
REMARK    1  A    between atoms: C1_1  and  C23_23 
REMARK    2  A    between atoms: C1_1  and  C2_2 
REMARK    3  A    between atoms: C2_2  and  C18_18 
REMARK    4  A    between atoms: C2_2  and  C3_3 
REMARK    5  A    between atoms: C21_21  and  C4_4 
REMARK    6  A    between atoms: C13_13  and  C5_5 
REMARK    7  A    between atoms: C18_18  and  C7_7 
REMARK    8  A    between atoms: C7_7  and  C16_16 
REMARK    9  A    between atoms: C7_7  and  C8_8 
REMARK   10  A    between atoms: C8_8  and  C9_9 
REMARK   11  A    between atoms: C9_9  and  C10_10 
REMARK       I    between atoms: C16_16  and  N18_45 
REMARK   12  A    between atoms: N18_45  and  C19_19 
REMARK   13  A    between atoms: C19_19  and  C27_27 
REMARK   14  A    between atoms: C19_19  and  C20_20 
REMARK   15  A    between atoms: C20_20  and  C21_21 
REMARK   16  A    between atoms: C21_21  and  C22_22 
REMARK   17  A    between atoms: C23_23  and  C24_24 
REMARK   18  A    between atoms: C24_24  and  C25_25 
REMARK   19  A    between atoms: C25_25  and  N1_44 
REMARK       I    between atoms: C27_27  and  N29_46 
REMARK   20  A    between atoms: N29_46  and  C30_30 
ROOT
ATOM      1  C7  L04 d          32.709  40.041  23.358  0.00  0.00     0.025 C 
ATOM      2  H8  L04 d          32.580  39.893  24.441  0.00  0.00     0.054 H 
ENDROOT
BRANCH   1   3
ATOM      3  C18 L04 d          33.083  38.702  22.724  0.00  0.00    -0.041 C 
ATOM      4  H18 L04 d          32.276  38.422  22.033  0.00  0.00     0.035 H 
ATOM      5  H19 L04 d          34.016  38.848  22.159  0.00  0.00     0.035 H 
BRANCH   3   6
ATOM      6  C2  L04 d          33.300  37.531  23.684  0.00  0.00     0.031 C 
ATOM      7  H3  L04 d          34.020  37.865  24.446  0.00  0.00     0.056 H 
BRANCH   6   8
ATOM      8  C1  L04 d          33.913  36.296  23.008  0.00  0.00    -0.052 C 
ATOM      9  H1  L04 d          33.615  35.406  23.582  0.00  0.00     0.034 H 
ATOM     10  H2  L04 d          33.508  36.226  21.987  0.00  0.00     0.034 H 
BRANCH   8  11
ATOM     11  C23 L04 d          35.429  36.319  22.918  0.00  0.00    -0.063 C 
ATOM     12  H27 L04 d          35.785  37.340  23.122  0.00  0.00     0.033 H 
ATOM     13  H28 L04 d          35.733  36.020  21.905  0.00  0.00     0.033 H 
BRANCH  11  14
ATOM     14  C24 L04 d          36.056  35.365  23.926  0.00  0.00    -0.050 C 
ATOM     15  H29 L04 d          37.035  35.763  24.233  0.00  0.00     0.035 H 
ATOM     16  H30 L04 d          36.193  34.383  23.449  0.00  0.00     0.035 H 
BRANCH  14  17
ATOM     17  C25 L04 d          35.184  35.196  25.161  0.00  0.00    -0.002 C 
ATOM     18  H31 L04 d          34.270  34.657  24.872  0.00  0.00     0.064 H 
ATOM     19  H32 L04 d          34.917  36.193  25.540  0.00  0.00     0.064 H 
BRANCH  17  20
ATOM     20  N1  L04 d          35.842  34.452  26.234  0.00  0.00    -0.344 N 
ATOM     21  C28 L04 d          36.586  34.984  27.382  0.00  0.00     0.023 A 
ATOM     22  C36 L04 d          36.942  33.713  28.151  0.00  0.00    -0.025 A 
ATOM     23  H33 L04 d          35.960  35.655  27.989  0.00  0.00     0.071 H 
ATOM     24  H34 L04 d          37.490  35.520  27.059  0.00  0.00     0.071 H 
ATOM     25  C29 L04 d          36.468  32.589  27.427  0.00  0.00     0.040 A 
ATOM     26  C38 L04 d          37.588  33.523  29.379  0.00  0.00    -0.074 A 
ATOM     27  C26 L04 d          35.808  33.097  26.218  0.00  0.00     0.254 A 
ATOM     28  C37 L04 d          36.650  31.299  27.945  0.00  0.00    -0.067 A 
ATOM     29  O1  L04 d          35.271  32.406  25.348  0.00  0.00    -0.267 OA
ATOM     30  C40 L04 d          37.290  31.137  29.164  0.00  0.00    -0.082 A 
ATOM     31  H40 L04 d          36.292  30.435  27.397  0.00  0.00     0.085 H 
ATOM     32  C39 L04 d          37.754  32.232  29.872  0.00  0.00    -0.082 A 
ATOM     33  H43 L04 d          37.428  30.140  29.568  0.00  0.00     0.083 H 
ATOM     34  H42 L04 d          38.254  32.082  30.822  0.00  0.00     0.083 H 
ATOM     35  H41 L04 d          37.955  34.374  29.941  0.00  0.00     0.084 H 
ENDBRANCH  17  20
ENDBRANCH  14  17
ENDBRANCH  11  14
ENDBRANCH   8  11
ENDBRANCH   6   8
BRANCH   6  36
ATOM     36  C3  L04 d          31.989  37.198  24.406  0.00  0.00     0.177 C 
ATOM     37  O5  L04 d          30.851  37.383  23.901  0.00  0.00    -0.648 OA
ATOM     38  O4  L04 d          32.075  36.765  25.557  0.00  0.00    -0.648 OA
ENDBRANCH   6  36
ENDBRANCH   3   6
ENDBRANCH   1   3
BRANCH   1  39
ATOM     39  C16 L04 d          31.408  40.566  22.768  0.00  0.00     0.222 C 
ATOM     40  O17 L04 d          31.133  41.768  22.806  0.00  0.00    -0.273 OA
ATOM     41  N18 L04 d          30.608  39.654  22.224  0.00  0.00    -0.347 N 
ATOM     42  H46 L04 d          30.898  38.698  22.203  0.00  0.00     0.163 HD
BRANCH  41  43
ATOM     43  C19 L04 d          29.319  40.024  21.658  0.00  0.00     0.090 C 
ATOM     44  H20 L04 d          29.361  41.059  21.288  0.00  0.00     0.087 H 
BRANCH  43  45
ATOM     45  C27 L04 d          28.283  39.913  22.771  0.00  0.00     0.245 C 
ATOM     46  O28 L04 d          27.098  39.709  22.498  0.00  0.00    -0.271 OA
ATOM     47  N29 L04 d          28.757  39.977  24.016  0.00  0.00    -0.325 N 
ATOM     48  H47 L04 d          29.748  40.084  24.099  0.00  0.00     0.169 HD
BRANCH  47  49
ATOM     49  C30 L04 d          28.058  39.917  25.206  0.00  0.00     0.034 A 
ATOM     50  C35 L04 d          28.055  40.938  26.155  0.00  0.00    -0.057 A 
ATOM     51  C34 L04 d          27.336  40.809  27.341  0.00  0.00    -0.081 A 
ATOM     52  H39 L04 d          28.620  41.844  25.968  0.00  0.00     0.086 H 
ATOM     53  C33 L04 d          26.606  39.647  27.587  0.00  0.00    -0.083 A 
ATOM     54  H38 L04 d          27.344  41.611  28.071  0.00  0.00     0.083 H 
ATOM     55  C32 L04 d          26.602  38.621  26.648  0.00  0.00    -0.081 A 
ATOM     56  H37 L04 d          26.043  39.543  28.508  0.00  0.00     0.083 H 
ATOM     57  C31 L04 d          27.324  38.761  25.466  0.00  0.00    -0.057 A 
ATOM     58  H36 L04 d          26.038  37.715  26.836  0.00  0.00     0.083 H 
ATOM     59  H35 L04 d          27.315  37.958  24.737  0.00  0.00     0.086 H 
ENDBRANCH  47  49
ENDBRANCH  43  45
BRANCH  43  60
ATOM     60  C20 L04 d          28.941  39.092  20.504  0.00  0.00    -0.035 C 
ATOM     61  H21 L04 d          28.034  38.550  20.808  0.00  0.00     0.037 H 
ATOM     62  H22 L04 d          29.770  38.380  20.377  0.00  0.00     0.037 H 
BRANCH  60  63
ATOM     63  C21 L04 d          28.661  39.711  19.132  0.00  0.00    -0.059 C 
ATOM     64  H23 L04 d          27.657  39.408  18.799  0.00  0.00     0.038 H 
BRANCH  63  65
ATOM     65  C4  L04 d          28.704  41.222  19.272  0.00  0.00    -0.073 C 
ATOM     66  H4  L04 d          27.772  41.654  18.879  0.00  0.00     0.028 H 
ATOM     67  H5  L04 d          29.560  41.619  18.706  0.00  0.00     0.028 H 
ATOM     68  H6  L04 d          28.813  41.489  20.334  0.00  0.00     0.028 H 
ENDBRANCH  63  65
BRANCH  63  69
ATOM     69  C22 L04 d          29.682  39.233  18.100  0.00  0.00    -0.073 C 
ATOM     70  H24 L04 d          29.633  38.137  18.015  0.00  0.00     0.028 H 
ATOM     71  H25 L04 d          30.692  39.532  18.418  0.00  0.00     0.028 H 
ATOM     72  H26 L04 d          29.456  39.687  17.124  0.00  0.00     0.028 H 
ENDBRANCH  63  69
ENDBRANCH  60  63
ENDBRANCH  43  60
ENDBRANCH  41  43
ENDBRANCH   1  39
BRANCH   1  73
ATOM     73  C8  L04 d          33.802  41.087  23.124  0.00  0.00    -0.050 C 
ATOM     74  H9  L04 d          34.481  41.078  23.990  0.00  0.00     0.034 H 
ATOM     75  H10 L04 d          33.325  42.074  23.042  0.00  0.00     0.034 H 
BRANCH  73  76
ATOM     76  C9  L04 d          34.618  40.852  21.881  0.00  0.00    -0.040 C 
ATOM     77  H11 L04 d          34.928  41.830  21.486  0.00  0.00     0.040 H 
ATOM     78  H12 L04 d          33.980  40.345  21.143  0.00  0.00     0.040 H 
BRANCH  76  79
ATOM     79  C10 L04 d          35.847  40.021  22.083  0.00  0.00    -0.058 A 
ATOM     80  C15 L04 d          36.412  39.324  21.021  0.00  0.00    -0.076 A 
ATOM     81  C14 L04 d          37.569  38.579  21.194  0.00  0.00    -0.072 A 
ATOM     82  H16 L04 d          35.942  39.362  20.045  0.00  0.00     0.084 H 
ATOM     83  C13 L04 d          38.183  38.517  22.439  0.00  0.00    -0.026 A 
ATOM     84  H15 L04 d          37.998  38.044  20.355  0.00  0.00     0.084 H 
ATOM     85  C12 L04 d          37.614  39.213  23.502  0.00  0.00    -0.072 A 
ATOM     86  C11 L04 d          36.461  39.954  23.326  0.00  0.00    -0.076 A 
ATOM     87  H14 L04 d          38.080  39.172  24.480  0.00  0.00     0.084 H 
ATOM     88  H13 L04 d          36.032  40.488  24.167  0.00  0.00     0.084 H 
BRANCH  83  89
ATOM     89  C5  L04 d          39.413  37.734  22.641  0.00  0.00    -0.026 A 
ATOM     90  C43 L04 d          40.581  38.354  23.070  0.00  0.00    -0.069 A 
ATOM     91  C42 L04 d          41.744  37.620  23.252  0.00  0.00    -0.045 A 
ATOM     92  H45 L04 d          40.583  39.421  23.263  0.00  0.00     0.085 H 
ATOM     93  C41 L04 d          41.765  36.254  23.009  0.00  0.00     0.116 A 
ATOM     94  H44 L04 d          42.646  38.118  23.587  0.00  0.00     0.088 H 
ATOM     95  C17 L04 d          40.597  35.626  22.597  0.00  0.00    -0.045 A 
ATOM     96  F1  L04 d          42.906  35.554  23.174  0.00  0.00    -0.206 F 
ATOM     97  C6  L04 d          39.433  36.362  22.407  0.00  0.00    -0.069 A 
ATOM     98  H17 L04 d          40.594  34.556  22.421  0.00  0.00     0.088 H 
ATOM     99  H7  L04 d          38.531  35.862  22.073  0.00  0.00     0.085 H 
ENDBRANCH  83  89
ENDBRANCH  76  79
ENDBRANCH  73  76
ENDBRANCH   1  73
TORSDOF 20
ENDMDL
MODEL 3
REMARK VINA RESULT:     -11.0      2.999      4.334
REMARK  20 active torsions:
REMARK  status: ('A' for Active; 'I' for Inactive)
REMARK    1  A    between atoms: C1_1  and  C23_23 
REMARK    2  A    between atoms: C1_1  and  C2_2 
REMARK    3  A    between atoms: C2_2  and  C18_18 
REMARK    4  A    between atoms: C2_2  and  C3_3 
REMARK    5  A    between atoms: C21_21  and  C4_4 
REMARK    6  A    between atoms: C13_13  and  C5_5 
REMARK    7  A    between atoms: C18_18  and  C7_7 
REMARK    8  A    between atoms: C7_7  and  C16_16 
REMARK    9  A    between atoms: C7_7  and  C8_8 
REMARK   10  A    between atoms: C8_8  and  C9_9 
REMARK   11  A    between atoms: C9_9  and  C10_10 
REMARK       I    between atoms: C16_16  and  N18_45 
REMARK   12  A    between atoms: N18_45  and  C19_19 
REMARK   13  A    between atoms: C19_19  and  C27_27 
REMARK   14  A    between atoms: C19_19  and  C20_20 
REMARK   15  A    between atoms: C20_20  and  C21_21 
REMARK   16  A    between atoms: C21_21  and  C22_22 
REMARK   17  A    between atoms: C23_23  and  C24_24 
REMARK   18  A    between atoms: C24_24  and  C25_25 
REMARK   19  A    between atoms: C25_25  and  N1_44 
REMARK       I    between atoms: C27_27  and  N29_46 
REMARK   20  A    between atoms: N29_46  and  C30_30 
ROOT
ATOM      1  C7  L04 d          34.972  39.098  23.841  0.00  0.00     0.025 C 
ATOM      2  H8  L04 d          34.816  39.115  24.930  0.00  0.00     0.054 H 
ENDROOT
BRANCH   1   3
ATOM      3  C18 L04 d          34.627  37.703  23.321  0.00  0.00    -0.041 C 
ATOM      4  H18 L04 d          33.824  37.813  22.578  0.00  0.00     0.035 H 
ATOM      5  H19 L04 d          35.525  37.296  22.833  0.00  0.00     0.035 H 
BRANCH   3   6
ATOM      6  C2  L04 d          34.161  36.684  24.362  0.00  0.00     0.031 C 
ATOM      7  H3  L04 d          34.735  36.872  25.281  0.00  0.00     0.056 H 
BRANCH   6   8
ATOM      8  C1  L04 d          34.440  35.229  23.956  0.00  0.00    -0.052 C 
ATOM      9  H1  L04 d          33.729  34.581  24.488  0.00  0.00     0.034 H 
ATOM     10  H2  L04 d          34.279  35.137  22.871  0.00  0.00     0.034 H 
BRANCH   8  11
ATOM     11  C23 L04 d          35.848  34.751  24.270  0.00  0.00    -0.063 C 
ATOM     12  H27 L04 d          36.305  35.436  24.999  0.00  0.00     0.033 H 
ATOM     13  H28 L04 d          36.441  34.752  23.344  0.00  0.00     0.033 H 
BRANCH  11  14
ATOM     14  C24 L04 d          35.836  33.344  24.851  0.00  0.00    -0.050 C 
ATOM     15  H29 L04 d          36.873  32.985  24.935  0.00  0.00     0.035 H 
ATOM     16  H30 L04 d          35.273  32.684  24.174  0.00  0.00     0.035 H 
BRANCH  14  17
ATOM     17  C25 L04 d          35.188  33.307  26.227  0.00  0.00    -0.002 C 
ATOM     18  H31 L04 d          34.297  32.664  26.176  0.00  0.00     0.064 H 
ATOM     19  H32 L04 d          34.888  34.329  26.500  0.00  0.00     0.064 H 
BRANCH  17  20
ATOM     20  N1  L04 d          36.075  32.790  27.268  0.00  0.00    -0.344 N 
ATOM     21  C28 L04 d          36.217  31.405  27.734  0.00  0.00     0.023 A 
ATOM     22  C36 L04 d          37.341  31.525  28.761  0.00  0.00    -0.025 A 
ATOM     23  H33 L04 d          36.500  30.734  26.909  0.00  0.00     0.071 H 
ATOM     24  H34 L04 d          35.288  31.043  28.199  0.00  0.00     0.071 H 
ATOM     25  C29 L04 d          37.721  32.887  28.870  0.00  0.00     0.040 A 
ATOM     26  C38 L04 d          38.008  30.556  29.521  0.00  0.00    -0.074 A 
ATOM     27  C26 L04 d          36.883  33.649  27.936  0.00  0.00     0.254 A 
ATOM     28  C37 L04 d          38.761  33.253  29.737  0.00  0.00    -0.067 A 
ATOM     29  O1  L04 d          36.935  34.868  27.755  0.00  0.00    -0.267 OA
ATOM     30  C40 L04 d          39.409  32.276  30.476  0.00  0.00    -0.082 A 
ATOM     31  H40 L04 d          39.056  34.292  29.827  0.00  0.00     0.085 H 
ATOM     32  C39 L04 d          39.038  30.946  30.373  0.00  0.00    -0.082 A 
ATOM     33  H43 L04 d          40.216  32.556  31.144  0.00  0.00     0.083 H 
ATOM     34  H42 L04 d          39.556  30.199  30.962  0.00  0.00     0.083 H 
ATOM     35  H41 L04 d          37.725  29.513  29.447  0.00  0.00     0.084 H 
ENDBRANCH  17  20
ENDBRANCH  14  17
ENDBRANCH  11  14
ENDBRANCH   8  11
ENDBRANCH   6   8
BRANCH   6  36
ATOM     36  C3  L04 d          32.681  36.913  24.690  0.00  0.00     0.177 C 
ATOM     37  O5  L04 d          32.252  37.926  25.301  0.00  0.00    -0.648 OA
ATOM     38  O4  L04 d          31.888  36.025  24.363  0.00  0.00    -0.648 OA
ENDBRANCH   6  36
ENDBRANCH   3   6
ENDBRANCH   1   3
BRANCH   1  39
ATOM     39  C16 L04 d          34.080  40.146  23.192  0.00  0.00     0.222 C 
ATOM     40  O17 L04 d          34.418  41.332  23.154  0.00  0.00    -0.273 OA
ATOM     41  N18 L04 d          32.935  39.700  22.684  0.00  0.00    -0.347 N 
ATOM     42  H46 L04 d          32.729  38.722  22.726  0.00  0.00     0.163 HD
BRANCH  41  43
ATOM     43  C19 L04 d          31.979  40.608  22.069  0.00  0.00     0.090 C 
ATOM     44  H20 L04 d          32.476  41.557  21.822  0.00  0.00     0.087 H 
BRANCH  43  45
ATOM     45  C27 L04 d          30.867  40.854  23.082  0.00  0.00     0.245 C 
ATOM     46  O28 L04 d          30.543  42.006  23.381  0.00  0.00    -0.271 OA
ATOM     47  N29 L04 d          30.248  39.767  23.543  0.00  0.00    -0.325 N 
ATOM     48  H47 L04 d          30.567  38.894  23.173  0.00  0.00     0.169 HD
BRANCH  47  49
ATOM     49  C30 L04 d          29.222  39.687  24.465  0.00  0.00     0.034 A 
ATOM     50  C35 L04 d          29.400  39.860  25.838  0.00  0.00    -0.057 A 
ATOM     51  C34 L04 d          28.324  39.758  26.716  0.00  0.00    -0.081 A 
ATOM     52  H39 L04 d          30.388  40.076  26.226  0.00  0.00     0.086 H 
ATOM     53  C33 L04 d          27.049  39.481  26.223  0.00  0.00    -0.083 A 
ATOM     54  H38 L04 d          28.477  39.893  27.781  0.00  0.00     0.083 H 
ATOM     55  C32 L04 d          26.860  39.306  24.856  0.00  0.00    -0.081 A 
ATOM     56  H37 L04 d          26.208  39.402  26.902  0.00  0.00     0.083 H 
ATOM     57  C31 L04 d          27.942  39.411  23.987  0.00  0.00    -0.057 A 
ATOM     58  H36 L04 d          25.872  39.088  24.468  0.00  0.00     0.083 H 
ATOM     59  H35 L04 d          27.788  39.276  22.923  0.00  0.00     0.086 H 
ENDBRANCH  47  49
ENDBRANCH  43  45
BRANCH  43  60
ATOM     60  C20 L04 d          31.392  40.001  20.793  0.00  0.00    -0.035 C 
ATOM     61  H21 L04 d          30.924  39.046  21.072  0.00  0.00     0.037 H 
ATOM     62  H22 L04 d          32.231  39.814  20.106  0.00  0.00     0.037 H 
BRANCH  60  63
ATOM     63  C21 L04 d          30.346  40.807  20.018  0.00  0.00    -0.059 C 
ATOM     64  H23 L04 d          30.288  41.821  20.440  0.00  0.00     0.038 H 
BRANCH  63  65
ATOM     65  C4  L04 d          30.789  40.895  18.568  0.00  0.00    -0.073 C 
ATOM     66  H4  L04 d          30.962  39.883  18.175  0.00  0.00     0.028 H 
ATOM     67  H5  L04 d          31.720  41.478  18.504  0.00  0.00     0.028 H 
ATOM     68  H6  L04 d          30.005  41.390  17.974  0.00  0.00     0.028 H 
ENDBRANCH  63  65
BRANCH  63  69
ATOM     69  C22 L04 d          28.968  40.155  20.124  0.00  0.00    -0.073 C 
ATOM     70  H24 L04 d          28.908  39.572  21.055  0.00  0.00     0.028 H 
ATOM     71  H25 L04 d          28.811  39.488  19.263  0.00  0.00     0.028 H 
ATOM     72  H26 L04 d          28.192  40.935  20.129  0.00  0.00     0.028 H 
ENDBRANCH  63  69
ENDBRANCH  60  63
ENDBRANCH  43  60
ENDBRANCH  41  43
ENDBRANCH   1  39
BRANCH   1  73
ATOM     73  C8  L04 d          36.431  39.452  23.541  0.00  0.00    -0.050 C 
ATOM     74  H9  L04 d          37.067  38.977  24.303  0.00  0.00     0.034 H 
ATOM     75  H10 L04 d          36.541  40.545  23.601  0.00  0.00     0.034 H 
BRANCH  73  76
ATOM     76  C9  L04 d          36.904  39.003  22.184  0.00  0.00    -0.040 C 
ATOM     77  H11 L04 d          37.189  39.895  21.609  0.00  0.00     0.040 H 
ATOM     78  H12 L04 d          36.069  38.494  21.682  0.00  0.00     0.040 H 
BRANCH  76  79
ATOM     79  C10 L04 d          38.074  38.069  22.204  0.00  0.00    -0.058 A 
ATOM     80  C15 L04 d          37.969  36.817  22.800  0.00  0.00    -0.076 A 
ATOM     81  C14 L04 d          39.039  35.934  22.792  0.00  0.00    -0.072 A 
ATOM     82  H16 L04 d          37.040  36.528  23.278  0.00  0.00     0.084 H 
ATOM     83  C13 L04 d          40.238  36.290  22.187  0.00  0.00    -0.026 A 
ATOM     84  H15 L04 d          38.939  34.961  23.259  0.00  0.00     0.084 H 
ATOM     85  C12 L04 d          40.342  37.545  21.594  0.00  0.00    -0.072 A 
ATOM     86  C11 L04 d          39.274  38.423  21.603  0.00  0.00    -0.076 A 
ATOM     87  H14 L04 d          41.272  37.838  21.120  0.00  0.00     0.084 H 
ATOM     88  H13 L04 d          39.375  39.397  21.137  0.00  0.00     0.084 H 
BRANCH  83  89
ATOM     89  C5  L04 d          41.382  35.365  22.167  0.00  0.00    -0.026 A 
ATOM     90  C43 L04 d          42.573  35.704  22.800  0.00  0.00    -0.069 A 
ATOM     91  C42 L04 d          43.657  34.837  22.776  0.00  0.00    -0.045 A 
ATOM     92  H45 L04 d          42.656  36.654  23.317  0.00  0.00     0.085 H 
ATOM     93  C41 L04 d          43.574  33.618  22.119  0.00  0.00     0.116 A 
ATOM     94  H44 L04 d          44.578  35.116  23.274  0.00  0.00     0.088 H 
ATOM     95  C17 L04 d          42.383  33.268  21.499  0.00  0.00    -0.045 A 
ATOM     96  F1  L04 d          44.640  32.791  22.088  0.00  0.00    -0.206 F 
ATOM     97  C6  L04 d          41.298  34.138  21.517  0.00  0.00    -0.069 A 
ATOM     98  H17 L04 d          42.297  32.310  20.998  0.00  0.00     0.088 H 
ATOM     99  H7  L04 d          40.377  33.858  21.019  0.00  0.00     0.085 H 
ENDBRANCH  83  89
ENDBRANCH  76  79
ENDBRANCH  73  76
ENDBRANCH   1  73
TORSDOF 20
ENDMDL
MODEL 4
REMARK VINA RESULT:     -11.0      3.796      9.326
REMARK  20 active torsions:
REMARK  status: ('A' for Active; 'I' for Inactive)
REMARK    1  A    between atoms: C1_1  and  C23_23 
REMARK    2  A    between atoms: C1_1  and  C2_2 
REMARK    3  A    between atoms: C2_2  and  C18_18 
REMARK    4  A    between atoms: C2_2  and  C3_3 
REMARK    5  A    between atoms: C21_21  and  C4_4 
REMARK    6  A    between atoms: C13_13  and  C5_5 
REMARK    7  A    between atoms: C18_18  and  C7_7 
REMARK    8  A    between atoms: C7_7  and  C16_16 
REMARK    9  A    between atoms: C7_7  and  C8_8 
REMARK   10  A    between atoms: C8_8  and  C9_9 
REMARK   11  A    between atoms: C9_9  and  C10_10 
REMARK       I    between atoms: C16_16  and  N18_45 
REMARK   12  A    between atoms: N18_45  and  C19_19 
REMARK   13  A    between atoms: C19_19  and  C27_27 
REMARK   14  A    between atoms: C19_19  and  C20_20 
REMARK   15  A    between atoms: C20_20  and  C21_21 
REMARK   16  A    between atoms: C21_21  and  C22_22 
REMARK   17  A    between atoms: C23_23  and  C24_24 
REMARK   18  A    between atoms: C24_24  and  C25_25 
REMARK   19  A    between atoms: C25_25  and  N1_44 
REMARK       I    between atoms: C27_27  and  N29_46 
REMARK   20  A    between atoms: N29_46  and  C30_30 
ROOT
ATOM      1  C7  L04 d          35.509  39.226  22.998  0.00  0.00     0.025 C 
ATOM      2  H8  L04 d          34.604  39.329  22.382  0.00  0.00     0.054 H 
ENDROOT
BRANCH   1   3
ATOM      3  C18 L04 d          35.404  37.935  23.809  0.00  0.00    -0.041 C 
ATOM      4  H18 L04 d          36.343  37.379  23.675  0.00  0.00     0.035 H 
ATOM      5  H19 L04 d          35.289  38.212  24.867  0.00  0.00     0.035 H 
BRANCH   3   6
ATOM      6  C2  L04 d          34.252  36.996  23.447  0.00  0.00     0.031 C 
ATOM      7  H3  L04 d          33.532  37.578  22.854  0.00  0.00     0.056 H 
BRANCH   6   8
ATOM      8  C1  L04 d          33.491  36.467  24.672  0.00  0.00    -0.052 C 
ATOM      9  H1  L04 d          32.904  37.294  25.096  0.00  0.00     0.034 H 
ATOM     10  H2  L04 d          32.812  35.668  24.338  0.00  0.00     0.034 H 
BRANCH   8  11
ATOM     11  C23 L04 d          34.382  35.905  25.767  0.00  0.00    -0.063 C 
ATOM     12  H27 L04 d          34.015  36.255  26.743  0.00  0.00     0.033 H 
ATOM     13  H28 L04 d          35.410  36.264  25.612  0.00  0.00     0.033 H 
BRANCH  11  14
ATOM     14  C24 L04 d          34.381  34.383  25.753  0.00  0.00    -0.050 C 
ATOM     15  H29 L04 d          33.763  34.034  24.912  0.00  0.00     0.035 H 
ATOM     16  H30 L04 d          33.954  34.019  26.699  0.00  0.00     0.035 H 
BRANCH  14  17
ATOM     17  C25 L04 d          35.786  33.819  25.598  0.00  0.00    -0.002 C 
ATOM     18  H31 L04 d          36.459  34.636  25.299  0.00  0.00     0.064 H 
ATOM     19  H32 L04 d          35.770  33.050  24.812  0.00  0.00     0.064 H 
BRANCH  17  20
ATOM     20  N1  L04 d          36.304  33.217  26.826  0.00  0.00    -0.344 N 
ATOM     21  C28 L04 d          36.280  31.804  27.223  0.00  0.00     0.023 A 
ATOM     22  C36 L04 d          37.036  31.831  28.551  0.00  0.00    -0.025 A 
ATOM     23  H33 L04 d          36.795  31.172  26.484  0.00  0.00     0.071 H 
ATOM     24  H34 L04 d          35.250  31.445  27.359  0.00  0.00     0.071 H 
ATOM     25  C29 L04 d          37.381  33.172  28.856  0.00  0.00     0.040 A 
ATOM     26  C38 L04 d          37.427  30.801  29.415  0.00  0.00    -0.074 A 
ATOM     27  C26 L04 d          36.880  34.012  27.761  0.00  0.00     0.254 A 
ATOM     28  C37 L04 d          38.110  33.457  30.021  0.00  0.00    -0.067 A 
ATOM     29  O1  L04 d          36.999  35.237  27.683  0.00  0.00    -0.267 OA
ATOM     30  C40 L04 d          38.487  32.419  30.860  0.00  0.00    -0.082 A 
ATOM     31  H40 L04 d          38.376  34.479  30.263  0.00  0.00     0.085 H 
ATOM     32  C39 L04 d          38.150  31.110  30.563  0.00  0.00    -0.082 A 
ATOM     33  H43 L04 d          39.054  32.637  31.758  0.00  0.00     0.083 H 
ATOM     34  H42 L04 d          38.454  30.314  31.235  0.00  0.00     0.083 H 
ATOM     35  H41 L04 d          37.168  29.772  29.192  0.00  0.00     0.084 H 
ENDBRANCH  17  20
ENDBRANCH  14  17
ENDBRANCH  11  14
ENDBRANCH   8  11
ENDBRANCH   6   8
BRANCH   6  36
ATOM     36  C3  L04 d          34.766  35.858  22.557  0.00  0.00     0.177 C 
ATOM     37  O5  L04 d          34.096  34.828  22.287  0.00  0.00    -0.648 OA
ATOM     38  O4  L04 d          35.917  35.959  22.124  0.00  0.00    -0.648 OA
ENDBRANCH   6  36
ENDBRANCH   3   6
ENDBRANCH   1   3
BRANCH   1  39
ATOM     39  C16 L04 d          36.729  39.188  22.089  0.00  0.00     0.222 C 
ATOM     40  O17 L04 d          36.613  39.294  20.865  0.00  0.00    -0.273 OA
ATOM     41  N18 L04 d          37.901  39.033  22.697  0.00  0.00    -0.347 N 
ATOM     42  H46 L04 d          37.932  38.976  23.695  0.00  0.00     0.163 HD
BRANCH  41  43
ATOM     43  C19 L04 d          39.139  38.946  21.937  0.00  0.00     0.090 C 
ATOM     44  H20 L04 d          38.909  38.788  20.872  0.00  0.00     0.087 H 
BRANCH  43  45
ATOM     45  C27 L04 d          39.924  37.756  22.479  0.00  0.00     0.245 C 
ATOM     46  O28 L04 d          39.890  37.486  23.682  0.00  0.00    -0.271 OA
ATOM     47  N29 L04 d          40.564  37.018  21.571  0.00  0.00    -0.325 N 
ATOM     48  H47 L04 d          40.460  37.311  20.620  0.00  0.00     0.169 HD
BRANCH  47  49
ATOM     49  C30 L04 d          41.351  35.901  21.772  0.00  0.00     0.034 A 
ATOM     50  C35 L04 d          40.945  34.602  21.468  0.00  0.00    -0.057 A 
ATOM     51  C34 L04 d          41.785  33.517  21.704  0.00  0.00    -0.081 A 
ATOM     52  H39 L04 d          39.962  34.435  21.042  0.00  0.00     0.086 H 
ATOM     53  C33 L04 d          43.052  33.725  22.250  0.00  0.00    -0.083 A 
ATOM     54  H38 L04 d          41.456  32.512  21.464  0.00  0.00     0.083 H 
ATOM     55  C32 L04 d          43.467  35.016  22.558  0.00  0.00    -0.081 A 
ATOM     56  H37 L04 d          43.710  32.884  22.434  0.00  0.00     0.083 H 
ATOM     57  C31 L04 d          42.620  36.093  22.317  0.00  0.00    -0.057 A 
ATOM     58  H36 L04 d          44.449  35.183  22.984  0.00  0.00     0.083 H 
ATOM     59  H35 L04 d          42.951  37.097  22.557  0.00  0.00     0.086 H 
ENDBRANCH  47  49
ENDBRANCH  43  45
BRANCH  43  60
ATOM     60  C20 L04 d          39.966  40.224  22.088  0.00  0.00    -0.035 C 
ATOM     61  H21 L04 d          39.865  40.555  23.132  0.00  0.00     0.037 H 
ATOM     62  H22 L04 d          39.524  40.978  21.419  0.00  0.00     0.037 H 
BRANCH  60  63
ATOM     63  C21 L04 d          41.463  40.164  21.775  0.00  0.00    -0.059 C 
ATOM     64  H23 L04 d          41.683  39.225  21.246  0.00  0.00     0.038 H 
BRANCH  63  65
ATOM     65  C4  L04 d          41.810  41.337  20.875  0.00  0.00    -0.073 C 
ATOM     66  H4  L04 d          40.911  41.660  20.330  0.00  0.00     0.028 H 
ATOM     67  H5  L04 d          42.585  41.032  20.157  0.00  0.00     0.028 H 
ATOM     68  H6  L04 d          42.186  42.170  21.488  0.00  0.00     0.028 H 
ENDBRANCH  63  65
BRANCH  63  69
ATOM     69  C22 L04 d          42.290  40.205  23.060  0.00  0.00    -0.073 C 
ATOM     70  H24 L04 d          42.997  39.361  23.068  0.00  0.00     0.028 H 
ATOM     71  H25 L04 d          41.621  40.131  23.929  0.00  0.00     0.028 H 
ATOM     72  H26 L04 d          42.849  41.151  23.106  0.00  0.00     0.028 H 
ENDBRANCH  63  69
ENDBRANCH  60  63
ENDBRANCH  43  60
ENDBRANCH  41  43
ENDBRANCH   1  39
BRANCH   1  73
ATOM     73  C8  L04 d          35.629  40.445  23.917  0.00  0.00    -0.050 C 
ATOM     74  H9  L04 d          35.789  41.336  23.291  0.00  0.00     0.034 H 
ATOM     75  H10 L04 d          36.497  40.298  24.575  0.00  0.00     0.034 H 
BRANCH  73  76
ATOM     76  C9  L04 d          34.417  40.685  24.778  0.00  0.00    -0.040 C 
ATOM     77  H11 L04 d          34.471  41.712  25.165  0.00  0.00     0.040 H 
ATOM     78  H12 L04 d          34.449  39.975  25.617  0.00  0.00     0.040 H 
BRANCH  76  79
ATOM     79  C10 L04 d          33.105  40.520  24.076  0.00  0.00    -0.058 A 
ATOM     80  C15 L04 d          32.895  41.092  22.827  0.00  0.00    -0.076 A 
ATOM     81  C14 L04 d          31.693  40.914  22.157  0.00  0.00    -0.072 A 
ATOM     82  H16 L04 d          33.679  41.685  22.371  0.00  0.00     0.084 H 
ATOM     83  C13 L04 d          30.676  40.160  22.729  0.00  0.00    -0.026 A 
ATOM     84  H15 L04 d          31.546  41.365  21.182  0.00  0.00     0.084 H 
ATOM     85  C12 L04 d          30.888  39.592  23.982  0.00  0.00    -0.072 A 
ATOM     86  C11 L04 d          32.086  39.770  24.647  0.00  0.00    -0.076 A 
ATOM     87  H14 L04 d          30.102  39.002  24.442  0.00  0.00     0.084 H 
ATOM     88  H13 L04 d          32.232  39.319  25.623  0.00  0.00     0.084 H 
BRANCH  83  89
ATOM     89  C5  L04 d          29.395  39.960  22.032  0.00  0.00    -0.026 A 
ATOM     90  C43 L04 d          29.265  40.294  20.689  0.00  0.00    -0.069 A 
ATOM     91  C42 L04 d          28.056  40.115  20.031  0.00  0.00    -0.045 A 
ATOM     92  H45 L04 d          30.115  40.699  20.151  0.00  0.00     0.085 H 
ATOM     93  C41 L04 d          26.955  39.600  20.700  0.00  0.00     0.116 A 
ATOM     94  H44 L04 d          27.971  40.379  18.983  0.00  0.00     0.088 H 
ATOM     95  C17 L04 d          27.084  39.249  22.037  0.00  0.00    -0.045 A 
ATOM     96  F1  L04 d          25.781  39.445  20.054  0.00  0.00    -0.206 F 
ATOM     97  C6  L04 d          28.293  39.435  22.699  0.00  0.00    -0.069 A 
ATOM     98  H17 L04 d          26.237  38.828  22.568  0.00  0.00     0.088 H 
ATOM     99  H7  L04 d          28.377  39.168  23.746  0.00  0.00     0.085 H 
ENDBRANCH  83  89
ENDBRANCH  76  79
ENDBRANCH  73  76
ENDBRANCH   1  73
TORSDOF 20
ENDMDL
MODEL 5
REMARK VINA RESULT:     -10.9      2.031      2.817
REMARK  20 active torsions:
REMARK  status: ('A' for Active; 'I' for Inactive)
REMARK    1  A    between atoms: C1_1  and  C23_23 
REMARK    2  A    between atoms: C1_1  and  C2_2 
REMARK    3  A    between atoms: C2_2  and  C18_18 
REMARK    4  A    between atoms: C2_2  and  C3_3 
REMARK    5  A    between atoms: C21_21  and  C4_4 
REMARK    6  A    between atoms: C13_13  and  C5_5 
REMARK    7  A    between atoms: C18_18  and  C7_7 
REMARK    8  A    between atoms: C7_7  and  C16_16 
REMARK    9  A    between atoms: C7_7  and  C8_8 
REMARK   10  A    between atoms: C8_8  and  C9_9 
REMARK   11  A    between atoms: C9_9  and  C10_10 
REMARK       I    between atoms: C16_16  and  N18_45 
REMARK   12  A    between atoms: N18_45  and  C19_19 
REMARK   13  A    between atoms: C19_19  and  C27_27 
REMARK   14  A    between atoms: C19_19  and  C20_20 
REMARK   15  A    between atoms: C20_20  and  C21_21 
REMARK   16  A    between atoms: C21_21  and  C22_22 
REMARK   17  A    between atoms: C23_23  and  C24_24 
REMARK   18  A    between atoms: C24_24  and  C25_25 
REMARK   19  A    between atoms: C25_25  and  N1_44 
REMARK       I    between atoms: C27_27  and  N29_46 
REMARK   20  A    between atoms: N29_46  and  C30_30 
ROOT
ATOM      1  C7  L04 d          32.969  40.346  23.553  0.00  0.00     0.025 C 
ATOM      2  H8  L04 d          33.606  40.588  24.417  0.00  0.00     0.054 H 
ENDROOT
BRANCH   1   3
ATOM      3  C18 L04 d          33.152  38.868  23.211  0.00  0.00    -0.041 C 
ATOM      4  H18 L04 d          32.199  38.499  22.805  0.00  0.00     0.035 H 
ATOM      5  H19 L04 d          33.932  38.797  22.439  0.00  0.00     0.035 H 
BRANCH   3   6
ATOM      6  C2  L04 d          33.554  37.946  24.364  0.00  0.00     0.031 C 
ATOM      7  H3  L04 d          33.605  38.565  25.272  0.00  0.00     0.056 H 
BRANCH   6   8
ATOM      8  C1  L04 d          34.940  37.312  24.181  0.00  0.00    -0.052 C 
ATOM      9  H1  L04 d          35.530  37.961  23.518  0.00  0.00     0.034 H 
ATOM     10  H2  L04 d          35.426  37.256  25.166  0.00  0.00     0.034 H 
BRANCH   8  11
ATOM     11  C23 L04 d          34.915  35.916  23.582  0.00  0.00    -0.063 C 
ATOM     12  H27 L04 d          35.429  35.934  22.609  0.00  0.00     0.033 H 
ATOM     13  H28 L04 d          33.870  35.606  23.439  0.00  0.00     0.033 H 
BRANCH  11  14
ATOM     14  C24 L04 d          35.611  34.913  24.491  0.00  0.00    -0.050 C 
ATOM     15  H29 L04 d          36.694  35.102  24.468  0.00  0.00     0.035 H 
ATOM     16  H30 L04 d          35.407  33.897  24.122  0.00  0.00     0.035 H 
BRANCH  14  17
ATOM     17  C25 L04 d          35.122  35.021  25.928  0.00  0.00    -0.002 C 
ATOM     18  H31 L04 d          34.084  34.659  25.973  0.00  0.00     0.064 H 
ATOM     19  H32 L04 d          35.155  36.079  26.230  0.00  0.00     0.064 H 
BRANCH  17  20
ATOM     20  N1  L04 d          35.925  34.244  26.871  0.00  0.00    -0.344 N 
ATOM     21  C28 L04 d          36.912  34.734  27.841  0.00  0.00     0.023 A 
ATOM     22  C36 L04 d          37.326  33.449  28.555  0.00  0.00    -0.025 A 
ATOM     23  H33 L04 d          36.461  35.452  28.542  0.00  0.00     0.071 H 
ATOM     24  H34 L04 d          37.769  35.203  27.337  0.00  0.00     0.071 H 
ATOM     25  C29 L04 d          36.647  32.354  27.962  0.00  0.00     0.040 A 
ATOM     26  C38 L04 d          38.184  33.227  29.640  0.00  0.00    -0.074 A 
ATOM     27  C26 L04 d          35.800  32.895  26.892  0.00  0.00     0.254 A 
ATOM     28  C37 L04 d          36.841  31.059  28.464  0.00  0.00    -0.067 A 
ATOM     29  O1  L04 d          35.060  32.234  26.158  0.00  0.00    -0.267 OA
ATOM     30  C40 L04 d          37.694  30.865  29.540  0.00  0.00    -0.082 A 
ATOM     31  H40 L04 d          36.328  30.216  28.015  0.00  0.00     0.085 H 
ATOM     32  C39 L04 d          38.358  31.932  30.120  0.00  0.00    -0.082 A 
ATOM     33  H43 L04 d          37.842  29.865  29.932  0.00  0.00     0.083 H 
ATOM     34  H42 L04 d          39.021  31.757  30.959  0.00  0.00     0.083 H 
ATOM     35  H41 L04 d          38.709  34.056  30.100  0.00  0.00     0.084 H 
ENDBRANCH  17  20
ENDBRANCH  14  17
ENDBRANCH  11  14
ENDBRANCH   8  11
ENDBRANCH   6   8
BRANCH   6  36
ATOM     36  C3  L04 d          32.466  36.890  24.590  0.00  0.00     0.177 C 
ATOM     37  O5  L04 d          32.252  36.338  25.700  0.00  0.00    -0.648 OA
ATOM     38  O4  L04 d          31.802  36.547  23.608  0.00  0.00    -0.648 OA
ENDBRANCH   6  36
ENDBRANCH   3   6
ENDBRANCH   1   3
BRANCH   1  39
ATOM     39  C16 L04 d          31.518  40.638  23.907  0.00  0.00     0.222 C 
ATOM     40  O17 L04 d          30.869  41.479  23.280  0.00  0.00    -0.273 OA
ATOM     41  N18 L04 d          31.015  39.936  24.917  0.00  0.00    -0.347 N 
ATOM     42  H46 L04 d          31.585  39.251  25.370  0.00  0.00     0.163 HD
BRANCH  41  43
ATOM     43  C19 L04 d          29.649  40.147  25.375  0.00  0.00     0.090 C 
ATOM     44  H20 L04 d          29.541  39.766  26.402  0.00  0.00     0.087 H 
BRANCH  43  45
ATOM     45  C27 L04 d          28.729  39.375  24.436  0.00  0.00     0.245 C 
ATOM     46  O28 L04 d          28.317  38.256  24.752  0.00  0.00    -0.271 OA
ATOM     47  N29 L04 d          28.361  40.015  23.326  0.00  0.00    -0.325 N 
ATOM     48  H47 L04 d          28.717  40.944  23.220  0.00  0.00     0.169 HD
BRANCH  47  49
ATOM     49  C30 L04 d          27.550  39.563  22.302  0.00  0.00     0.034 A 
ATOM     50  C35 L04 d          26.356  38.874  22.507  0.00  0.00    -0.057 A 
ATOM     51  C34 L04 d          25.590  38.437  21.429  0.00  0.00    -0.081 A 
ATOM     52  H39 L04 d          26.019  38.676  23.518  0.00  0.00     0.086 H 
ATOM     53  C33 L04 d          26.016  38.690  20.126  0.00  0.00    -0.083 A 
ATOM     54  H38 L04 d          24.663  37.901  21.603  0.00  0.00     0.083 H 
ATOM     55  C32 L04 d          27.206  39.376  19.910  0.00  0.00    -0.081 A 
ATOM     56  H37 L04 d          25.422  38.353  19.284  0.00  0.00     0.083 H 
ATOM     57  C31 L04 d          27.964  39.809  20.994  0.00  0.00    -0.057 A 
ATOM     58  H36 L04 d          27.543  39.573  18.899  0.00  0.00     0.083 H 
ATOM     59  H35 L04 d          28.890  40.345  20.818  0.00  0.00     0.086 H 
ENDBRANCH  47  49
ENDBRANCH  43  45
BRANCH  43  60
ATOM     60  C20 L04 d          29.287  41.633  25.350  0.00  0.00    -0.035 C 
ATOM     61  H21 L04 d          28.503  41.764  24.589  0.00  0.00     0.037 H 
ATOM     62  H22 L04 d          30.190  42.183  25.045  0.00  0.00     0.037 H 
BRANCH  60  63
ATOM     63  C21 L04 d          28.778  42.280  26.641  0.00  0.00    -0.059 C 
ATOM     64  H23 L04 d          28.158  43.152  26.386  0.00  0.00     0.038 H 
BRANCH  63  65
ATOM     65  C4  L04 d          27.927  41.263  27.380  0.00  0.00    -0.073 C 
ATOM     66  H4  L04 d          28.206  41.255  28.444  0.00  0.00     0.028 H 
ATOM     67  H5  L04 d          28.093  40.264  26.951  0.00  0.00     0.028 H 
ATOM     68  H6  L04 d          26.864  41.532  27.282  0.00  0.00     0.028 H 
ENDBRANCH  63  65
BRANCH  63  69
ATOM     69  C22 L04 d          29.942  42.748  27.513  0.00  0.00    -0.073 C 
ATOM     70  H24 L04 d          30.894  42.479  27.029  0.00  0.00     0.028 H 
ATOM     71  H25 L04 d          29.881  42.262  28.497  0.00  0.00     0.028 H 
ATOM     72  H26 L04 d          29.891  43.839  27.639  0.00  0.00     0.028 H 
ENDBRANCH  63  69
ENDBRANCH  60  63
ENDBRANCH  43  60
ENDBRANCH  41  43
ENDBRANCH   1  39
BRANCH   1  73
ATOM     73  C8  L04 d          33.369  41.238  22.375  0.00  0.00    -0.050 C 
ATOM     74  H9  L04 d          32.687  42.102  22.348  0.00  0.00     0.034 H 
ATOM     75  H10 L04 d          33.260  40.656  21.448  0.00  0.00     0.034 H 
BRANCH  73  76
ATOM     76  C9  L04 d          34.782  41.753  22.447  0.00  0.00    -0.040 C 
ATOM     77  H11 L04 d          34.900  42.293  23.397  0.00  0.00     0.040 H 
ATOM     78  H12 L04 d          34.936  42.448  21.608  0.00  0.00     0.040 H 
BRANCH  76  79
ATOM     79  C10 L04 d          35.840  40.696  22.376  0.00  0.00    -0.058 A 
ATOM     80  C15 L04 d          35.991  39.923  21.231  0.00  0.00    -0.076 A 
ATOM     81  C14 L04 d          36.992  38.965  21.147  0.00  0.00    -0.072 A 
ATOM     82  H16 L04 d          35.320  40.069  20.393  0.00  0.00     0.084 H 
ATOM     83  C13 L04 d          37.859  38.762  22.214  0.00  0.00    -0.026 A 
ATOM     84  H15 L04 d          37.098  38.373  20.246  0.00  0.00     0.084 H 
ATOM     85  C12 L04 d          37.703  39.535  23.360  0.00  0.00    -0.072 A 
ATOM     86  C11 L04 d          36.706  40.489  23.441  0.00  0.00    -0.076 A 
ATOM     87  H14 L04 d          38.371  39.387  24.201  0.00  0.00     0.084 H 
ATOM     88  H13 L04 d          36.599  41.080  24.344  0.00  0.00     0.084 H 
BRANCH  83  89
ATOM     89  C5  L04 d          38.927  37.752  22.141  0.00  0.00    -0.026 A 
ATOM     90  C43 L04 d          38.910  36.647  22.984  0.00  0.00    -0.069 A 
ATOM     91  C42 L04 d          39.921  35.698  22.925  0.00  0.00    -0.045 A 
ATOM     92  H45 L04 d          38.100  36.526  23.695  0.00  0.00     0.085 H 
ATOM     93  C41 L04 d          40.968  35.833  22.024  0.00  0.00     0.116 A 
ATOM     94  H44 L04 d          39.893  34.842  23.588  0.00  0.00     0.088 H 
ATOM     95  C17 L04 d          40.981  36.926  21.168  0.00  0.00    -0.045 A 
ATOM     96  F1  L04 d          41.953  34.912  21.986  0.00  0.00    -0.206 F 
ATOM     97  C6  L04 d          39.973  37.882  21.232  0.00  0.00    -0.069 A 
ATOM     98  H17 L04 d          41.783  37.035  20.446  0.00  0.00     0.088 H 
ATOM     99  H7  L04 d          40.002  38.737  20.566  0.00  0.00     0.085 H 
ENDBRANCH  83  89
ENDBRANCH  76  79
ENDBRANCH  73  76
ENDBRANCH   1  73
TORSDOF 20
ENDMDL
MODEL 6
REMARK VINA RESULT:     -10.9      4.302      9.594
REMARK  20 active torsions:
REMARK  status: ('A' for Active; 'I' for Inactive)
REMARK    1  A    between atoms: C1_1  and  C23_23 
REMARK    2  A    between atoms: C1_1  and  C2_2 
REMARK    3  A    between atoms: C2_2  and  C18_18 
REMARK    4  A    between atoms: C2_2  and  C3_3 
REMARK    5  A    between atoms: C21_21  and  C4_4 
REMARK    6  A    between atoms: C13_13  and  C5_5 
REMARK    7  A    between atoms: C18_18  and  C7_7 
REMARK    8  A    between atoms: C7_7  and  C16_16 
REMARK    9  A    between atoms: C7_7  and  C8_8 
REMARK   10  A    between atoms: C8_8  and  C9_9 
REMARK   11  A    between atoms: C9_9  and  C10_10 
REMARK       I    between atoms: C16_16  and  N18_45 
REMARK   12  A    between atoms: N18_45  and  C19_19 
REMARK   13  A    between atoms: C19_19  and  C27_27 
REMARK   14  A    between atoms: C19_19  and  C20_20 
REMARK   15  A    between atoms: C20_20  and  C21_21 
REMARK   16  A    between atoms: C21_21  and  C22_22 
REMARK   17  A    between atoms: C23_23  and  C24_24 
REMARK   18  A    between atoms: C24_24  and  C25_25 
REMARK   19  A    between atoms: C25_25  and  N1_44 
REMARK       I    between atoms: C27_27  and  N29_46 
REMARK   20  A    between atoms: N29_46  and  C30_30 
ROOT
ATOM      1  C7  L04 d          37.599  38.325  22.057  0.00  0.00     0.025 C 
ATOM      2  H8  L04 d          36.782  38.636  21.389  0.00  0.00     0.054 H 
ENDROOT
BRANCH   1   3
ATOM      3  C18 L04 d          37.341  36.888  22.507  0.00  0.00    -0.041 C 
ATOM      4  H18 L04 d          36.983  36.323  21.634  0.00  0.00     0.035 H 
ATOM      5  H19 L04 d          38.298  36.467  22.849  0.00  0.00     0.035 H 
BRANCH   3   6
ATOM      6  C2  L04 d          36.322  36.700  23.633  0.00  0.00     0.031 C 
ATOM      7  H3  L04 d          36.419  37.563  24.307  0.00  0.00     0.056 H 
BRANCH   6   8
ATOM      8  C1  L04 d          36.577  35.445  24.481  0.00  0.00    -0.052 C 
ATOM      9  H1  L04 d          37.634  35.163  24.368  0.00  0.00     0.034 H 
ATOM     10  H2  L04 d          36.375  35.693  25.533  0.00  0.00     0.034 H 
BRANCH   8  11
ATOM     11  C23 L04 d          35.722  34.248  24.101  0.00  0.00    -0.063 C 
ATOM     12  H27 L04 d          35.927  33.978  23.055  0.00  0.00     0.033 H 
ATOM     13  H28 L04 d          34.661  34.518  24.209  0.00  0.00     0.033 H 
BRANCH  11  14
ATOM     14  C24 L04 d          36.022  33.050  24.991  0.00  0.00    -0.050 C 
ATOM     15  H29 L04 d          37.112  32.956  25.106  0.00  0.00     0.035 H 
ATOM     16  H30 L04 d          35.623  32.143  24.514  0.00  0.00     0.035 H 
BRANCH  14  17
ATOM     17  C25 L04 d          35.393  33.199  26.369  0.00  0.00    -0.002 C 
ATOM     18  H31 L04 d          34.447  32.639  26.383  0.00  0.00     0.064 H 
ATOM     19  H32 L04 d          35.190  34.265  26.547  0.00  0.00     0.064 H 
BRANCH  17  20
ATOM     20  N1  L04 d          36.244  32.701  27.448  0.00  0.00    -0.344 N 
ATOM     21  C28 L04 d          36.376  31.324  27.937  0.00  0.00     0.023 A 
ATOM     22  C36 L04 d          37.462  31.464  29.003  0.00  0.00    -0.025 A 
ATOM     23  H33 L04 d          36.693  30.643  27.133  0.00  0.00     0.071 H 
ATOM     24  H34 L04 d          35.434  30.962  28.374  0.00  0.00     0.071 H 
ATOM     25  C29 L04 d          37.831  32.830  29.107  0.00  0.00     0.040 A 
ATOM     26  C38 L04 d          38.106  30.509  29.800  0.00  0.00    -0.074 A 
ATOM     27  C26 L04 d          37.023  33.574  28.133  0.00  0.00     0.254 A 
ATOM     28  C37 L04 d          38.837  33.213  30.005  0.00  0.00    -0.067 A 
ATOM     29  O1  L04 d          37.076  34.791  27.938  0.00  0.00    -0.267 OA
ATOM     30  C40 L04 d          39.462  32.249  30.782  0.00  0.00    -0.082 A 
ATOM     31  H40 L04 d          39.124  34.255  30.092  0.00  0.00     0.085 H 
ATOM     32  C39 L04 d          39.102  30.916  30.683  0.00  0.00    -0.082 A 
ATOM     33  H43 L04 d          40.243  32.544  31.474  0.00  0.00     0.083 H 
ATOM     34  H42 L04 d          39.603  30.180  31.301  0.00  0.00     0.083 H 
ATOM     35  H41 L04 d          37.832  29.464  29.730  0.00  0.00     0.084 H 
ENDBRANCH  17  20
ENDBRANCH  14  17
ENDBRANCH  11  14
ENDBRANCH   8  11
ENDBRANCH   6   8
BRANCH   6  36
ATOM     36  C3  L04 d          34.901  36.723  23.059  0.00  0.00     0.177 C 
ATOM     37  O5  L04 d          34.631  36.468  21.856  0.00  0.00    -0.648 OA
ATOM     38  O4  L04 d          33.990  37.051  23.824  0.00  0.00    -0.648 OA
ENDBRANCH   6  36
ENDBRANCH   3   6
ENDBRANCH   1   3
BRANCH   1  39
ATOM     39  C16 L04 d          38.920  38.420  21.307  0.00  0.00     0.222 C 
ATOM     40  O17 L04 d          39.163  39.378  20.568  0.00  0.00    -0.273 OA
ATOM     41  N18 L04 d          39.771  37.418  21.501  0.00  0.00    -0.347 N 
ATOM     42  H46 L04 d          39.525  36.681  22.131  0.00  0.00     0.163 HD
BRANCH  41  43
ATOM     43  C19 L04 d          41.053  37.374  20.814  0.00  0.00     0.090 C 
ATOM     44  H20 L04 d          40.994  37.957  19.883  0.00  0.00     0.087 H 
BRANCH  43  45
ATOM     45  C27 L04 d          41.348  35.913  20.491  0.00  0.00     0.245 C 
ATOM     46  O28 L04 d          41.041  35.445  19.392  0.00  0.00    -0.271 OA
ATOM     47  N29 L04 d          42.006  35.231  21.429  0.00  0.00    -0.325 N 
ATOM     48  H47 L04 d          42.250  35.746  22.251  0.00  0.00     0.169 HD
BRANCH  47  49
ATOM     49  C30 L04 d          42.394  33.905  21.415  0.00  0.00     0.034 A 
ATOM     50  C35 L04 d          41.592  32.868  20.941  0.00  0.00    -0.057 A 
ATOM     51  C34 L04 d          42.041  31.550  20.963  0.00  0.00    -0.081 A 
ATOM     52  H39 L04 d          40.606  33.091  20.549  0.00  0.00     0.086 H 
ATOM     53  C33 L04 d          43.309  31.257  21.463  0.00  0.00    -0.083 A 
ATOM     54  H38 L04 d          41.405  30.754  20.592  0.00  0.00     0.083 H 
ATOM     55  C32 L04 d          44.117  32.283  21.940  0.00  0.00    -0.081 A 
ATOM     56  H37 L04 d          43.663  30.232  21.481  0.00  0.00     0.083 H 
ATOM     57  C31 L04 d          43.659  33.596  21.913  0.00  0.00    -0.057 A 
ATOM     58  H36 L04 d          45.102  32.059  22.332  0.00  0.00     0.083 H 
ATOM     59  H35 L04 d          44.296  34.392  22.283  0.00  0.00     0.086 H 
ENDBRANCH  47  49
ENDBRANCH  43  45
BRANCH  43  60
ATOM     60  C20 L04 d          42.166  37.945  21.694  0.00  0.00    -0.035 C 
ATOM     61  H21 L04 d          42.655  38.747  21.122  0.00  0.00     0.037 H 
ATOM     62  H22 L04 d          42.885  37.132  21.877  0.00  0.00     0.037 H 
BRANCH  60  63
ATOM     63  C21 L04 d          41.788  38.529  23.058  0.00  0.00    -0.059 C 
ATOM     64  H23 L04 d          40.692  38.574  23.138  0.00  0.00     0.038 H 
BRANCH  63  65
ATOM     65  C4  L04 d          42.329  37.608  24.138  0.00  0.00    -0.073 C 
ATOM     66  H4  L04 d          43.238  37.108  23.772  0.00  0.00     0.028 H 
ATOM     67  H5  L04 d          41.571  36.851  24.389  0.00  0.00     0.028 H 
ATOM     68  H6  L04 d          42.570  38.197  25.036  0.00  0.00     0.028 H 
ENDBRANCH  63  65
BRANCH  63  69
ATOM     69  C22 L04 d          42.349  39.941  23.221  0.00  0.00    -0.073 C 
ATOM     70  H24 L04 d          42.699  40.311  22.246  0.00  0.00     0.028 H 
ATOM     71  H25 L04 d          43.190  39.922  23.930  0.00  0.00     0.028 H 
ATOM     72  H26 L04 d          41.561  40.606  23.605  0.00  0.00     0.028 H 
ENDBRANCH  63  69
ENDBRANCH  60  63
ENDBRANCH  43  60
ENDBRANCH  41  43
ENDBRANCH   1  39
BRANCH   1  73
ATOM     73  C8  L04 d          37.654  39.277  23.255  0.00  0.00    -0.050 C 
ATOM     74  H9  L04 d          38.709  39.514  23.461  0.00  0.00     0.034 H 
ATOM     75  H10 L04 d          37.217  38.764  24.124  0.00  0.00     0.034 H 
BRANCH  73  76
ATOM     76  C9  L04 d          36.911  40.569  23.045  0.00  0.00    -0.040 C 
ATOM     77  H11 L04 d          37.271  41.022  22.111  0.00  0.00     0.040 H 
ATOM     78  H12 L04 d          37.141  41.236  23.889  0.00  0.00     0.040 H 
BRANCH  76  79
ATOM     79  C10 L04 d          35.423  40.431  22.953  0.00  0.00    -0.058 A 
ATOM     80  C15 L04 d          34.632  40.525  24.092  0.00  0.00    -0.076 A 
ATOM     81  C14 L04 d          33.250  40.432  24.008  0.00  0.00    -0.072 A 
ATOM     82  H16 L04 d          35.100  40.673  25.058  0.00  0.00     0.084 H 
ATOM     83  C13 L04 d          32.634  40.238  22.778  0.00  0.00    -0.026 A 
ATOM     84  H15 L04 d          32.648  40.510  24.906  0.00  0.00     0.084 H 
ATOM     85  C12 L04 d          33.429  40.140  21.639  0.00  0.00    -0.072 A 
ATOM     86  C11 L04 d          34.805  40.234  21.726  0.00  0.00    -0.076 A 
ATOM     87  H14 L04 d          32.962  39.988  20.672  0.00  0.00     0.084 H 
ATOM     88  H13 L04 d          35.407  40.154  20.827  0.00  0.00     0.084 H 
BRANCH  83  89
ATOM     89  C5  L04 d          31.170  40.139  22.670  0.00  0.00    -0.026 A 
ATOM     90  C43 L04 d          30.376  40.163  23.811  0.00  0.00    -0.069 A 
ATOM     91  C42 L04 d          28.995  40.060  23.713  0.00  0.00    -0.045 A 
ATOM     92  H45 L04 d          30.840  40.262  24.786  0.00  0.00     0.085 H 
ATOM     93  C41 L04 d          28.381  39.931  22.476  0.00  0.00     0.116 A 
ATOM     94  H44 L04 d          28.391  40.082  24.612  0.00  0.00     0.088 H 
ATOM     95  C17 L04 d          29.167  39.923  21.332  0.00  0.00    -0.045 A 
ATOM     96  F1  L04 d          27.039  39.816  22.395  0.00  0.00    -0.206 F 
ATOM     97  C6  L04 d          30.551  40.018  21.429  0.00  0.00    -0.069 A 
ATOM     98  H17 L04 d          28.699  39.841  20.357  0.00  0.00     0.088 H 
ATOM     99  H7  L04 d          31.155  39.998  20.529  0.00  0.00     0.085 H 
ENDBRANCH  83  89
ENDBRANCH  76  79
ENDBRANCH  73  76
ENDBRANCH   1  73
TORSDOF 20
ENDMDL
MODEL 7
REMARK VINA RESULT:     -10.6      3.831     11.086
REMARK  20 active torsions:
REMARK  status: ('A' for Active; 'I' for Inactive)
REMARK    1  A    between atoms: C1_1  and  C23_23 
REMARK    2  A    between atoms: C1_1  and  C2_2 
REMARK    3  A    between atoms: C2_2  and  C18_18 
REMARK    4  A    between atoms: C2_2  and  C3_3 
REMARK    5  A    between atoms: C21_21  and  C4_4 
REMARK    6  A    between atoms: C13_13  and  C5_5 
REMARK    7  A    between atoms: C18_18  and  C7_7 
REMARK    8  A    between atoms: C7_7  and  C16_16 
REMARK    9  A    between atoms: C7_7  and  C8_8 
REMARK   10  A    between atoms: C8_8  and  C9_9 
REMARK   11  A    between atoms: C9_9  and  C10_10 
REMARK       I    between atoms: C16_16  and  N18_45 
REMARK   12  A    between atoms: N18_45  and  C19_19 
REMARK   13  A    between atoms: C19_19  and  C27_27 
REMARK   14  A    between atoms: C19_19  and  C20_20 
REMARK   15  A    between atoms: C20_20  and  C21_21 
REMARK   16  A    between atoms: C21_21  and  C22_22 
REMARK   17  A    between atoms: C23_23  and  C24_24 
REMARK   18  A    between atoms: C24_24  and  C25_25 
REMARK   19  A    between atoms: C25_25  and  N1_44 
REMARK       I    between atoms: C27_27  and  N29_46 
REMARK   20  A    between atoms: N29_46  and  C30_30 
ROOT
ATOM      1  C7  L04 d          35.204  37.285  22.771  0.00  0.00     0.025 C 
ATOM      2  H8  L04 d          35.107  37.760  23.759  0.00  0.00     0.054 H 
ENDROOT
BRANCH   1   3
ATOM      3  C18 L04 d          33.939  37.575  21.965  0.00  0.00    -0.041 C 
ATOM      4  H18 L04 d          34.226  37.646  20.906  0.00  0.00     0.035 H 
ATOM      5  H19 L04 d          33.252  36.727  22.102  0.00  0.00     0.035 H 
BRANCH   3   6
ATOM      6  C2  L04 d          33.178  38.852  22.326  0.00  0.00     0.031 C 
ATOM      7  H3  L04 d          33.565  39.654  21.682  0.00  0.00     0.056 H 
BRANCH   6   8
ATOM      8  C1  L04 d          33.401  39.302  23.777  0.00  0.00    -0.052 C 
ATOM      9  H1  L04 d          32.607  38.867  24.399  0.00  0.00     0.034 H 
ATOM     10  H2  L04 d          34.378  38.921  24.110  0.00  0.00     0.034 H 
BRANCH   8  11
ATOM     11  C23 L04 d          33.388  40.809  23.974  0.00  0.00    -0.063 C 
ATOM     12  H27 L04 d          33.203  41.296  23.005  0.00  0.00     0.033 H 
ATOM     13  H28 L04 d          34.365  41.129  24.364  0.00  0.00     0.033 H 
BRANCH  11  14
ATOM     14  C24 L04 d          32.301  41.228  24.955  0.00  0.00    -0.050 C 
ATOM     15  H29 L04 d          32.633  42.130  25.491  0.00  0.00     0.035 H 
ATOM     16  H30 L04 d          32.137  40.412  25.674  0.00  0.00     0.035 H 
BRANCH  14  17
ATOM     17  C25 L04 d          30.989  41.531  24.246  0.00  0.00    -0.002 C 
ATOM     18  H31 L04 d          31.012  41.062  23.252  0.00  0.00     0.064 H 
ATOM     19  H32 L04 d          30.894  42.621  24.135  0.00  0.00     0.064 H 
BRANCH  17  20
ATOM     20  N1  L04 d          29.817  41.035  24.967  0.00  0.00    -0.344 N 
ATOM     21  C28 L04 d          29.177  39.718  24.861  0.00  0.00     0.023 A 
ATOM     22  C36 L04 d          28.074  39.811  25.914  0.00  0.00    -0.025 A 
ATOM     23  H33 L04 d          29.886  38.910  25.097  0.00  0.00     0.071 H 
ATOM     24  H34 L04 d          28.758  39.557  23.857  0.00  0.00     0.071 H 
ATOM     25  C29 L04 d          28.096  41.107  26.490  0.00  0.00     0.040 A 
ATOM     26  C38 L04 d          27.146  38.866  26.369  0.00  0.00    -0.074 A 
ATOM     27  C26 L04 d          29.187  41.851  25.848  0.00  0.00     0.254 A 
ATOM     28  C37 L04 d          27.189  41.432  27.509  0.00  0.00    -0.067 A 
ATOM     29  O1  L04 d          29.507  43.015  26.099  0.00  0.00    -0.267 OA
ATOM     30  C40 L04 d          26.282  40.479  27.944  0.00  0.00    -0.082 A 
ATOM     31  H40 L04 d          27.198  42.421  27.953  0.00  0.00     0.085 H 
ATOM     32  C39 L04 d          26.258  39.214  27.383  0.00  0.00    -0.082 A 
ATOM     33  H43 L04 d          25.582  40.727  28.735  0.00  0.00     0.083 H 
ATOM     34  H42 L04 d          25.538  38.485  27.737  0.00  0.00     0.083 H 
ATOM     35  H41 L04 d          27.119  37.873  25.936  0.00  0.00     0.084 H 
ENDBRANCH  17  20
ENDBRANCH  14  17
ENDBRANCH  11  14
ENDBRANCH   8  11
ENDBRANCH   6   8
BRANCH   6  36
ATOM     36  C3  L04 d          31.689  38.681  22.003  0.00  0.00     0.177 C 
ATOM     37  O5  L04 d          30.961  37.796  22.522  0.00  0.00    -0.648 OA
ATOM     38  O4  L04 d          31.207  39.437  21.154  0.00  0.00    -0.648 OA
ENDBRANCH   6  36
ENDBRANCH   3   6
ENDBRANCH   1   3
BRANCH   1  39
ATOM     39  C16 L04 d          36.428  37.849  22.065  0.00  0.00     0.222 C 
ATOM     40  O17 L04 d          36.311  38.618  21.108  0.00  0.00    -0.273 OA
ATOM     41  N18 L04 d          37.605  37.460  22.545  0.00  0.00    -0.347 N 
ATOM     42  H46 L04 d          37.634  36.853  23.339  0.00  0.00     0.163 HD
BRANCH  41  43
ATOM     43  C19 L04 d          38.851  37.901  21.935  0.00  0.00     0.090 C 
ATOM     44  H20 L04 d          38.704  38.043  20.854  0.00  0.00     0.087 H 
BRANCH  43  45
ATOM     45  C27 L04 d          39.888  36.810  22.177  0.00  0.00     0.245 C 
ATOM     46  O28 L04 d          40.328  36.611  23.312  0.00  0.00    -0.271 OA
ATOM     47  N29 L04 d          40.211  36.068  21.116  0.00  0.00    -0.325 N 
ATOM     48  H47 L04 d          39.735  36.294  20.266  0.00  0.00     0.169 HD
BRANCH  47  49
ATOM     49  C30 L04 d          41.118  35.028  21.038  0.00  0.00     0.034 A 
ATOM     50  C35 L04 d          41.389  34.324  19.866  0.00  0.00    -0.057 A 
ATOM     51  C34 L04 d          42.309  33.279  19.857  0.00  0.00    -0.081 A 
ATOM     52  H39 L04 d          40.878  34.594  18.949  0.00  0.00     0.086 H 
ATOM     53  C33 L04 d          42.971  32.927  21.033  0.00  0.00    -0.083 A 
ATOM     54  H38 L04 d          42.509  32.739  18.939  0.00  0.00     0.083 H 
ATOM     55  C32 L04 d          42.707  33.621  22.209  0.00  0.00    -0.081 A 
ATOM     56  H37 L04 d          43.689  32.114  21.031  0.00  0.00     0.083 H 
ATOM     57  C31 L04 d          41.787  34.665  22.206  0.00  0.00    -0.057 A 
ATOM     58  H36 L04 d          43.218  33.350  23.125  0.00  0.00     0.083 H 
ATOM     59  H35 L04 d          41.588  35.204  23.125  0.00  0.00     0.086 H 
ENDBRANCH  47  49
ENDBRANCH  43  45
BRANCH  43  60
ATOM     60  C20 L04 d          39.329  39.215  22.555  0.00  0.00    -0.035 C 
ATOM     61  H21 L04 d          40.380  39.075  22.846  0.00  0.00     0.037 H 
ATOM     62  H22 L04 d          38.718  39.392  23.453  0.00  0.00     0.037 H 
BRANCH  60  63
ATOM     63  C21 L04 d          39.261  40.487  21.705  0.00  0.00    -0.059 C 
ATOM     64  H23 L04 d          38.889  40.231  20.703  0.00  0.00     0.038 H 
BRANCH  63  65
ATOM     65  C4  L04 d          38.291  41.451  22.366  0.00  0.00    -0.073 C 
ATOM     66  H4  L04 d          38.027  41.078  23.367  0.00  0.00     0.028 H 
ATOM     67  H5  L04 d          37.381  41.534  21.754  0.00  0.00     0.028 H 
ATOM     68  H6  L04 d          38.763  42.441  22.457  0.00  0.00     0.028 H 
ENDBRANCH  63  65
BRANCH  63  69
ATOM     69  C22 L04 d          40.644  41.123  21.565  0.00  0.00    -0.073 C 
ATOM     70  H24 L04 d          41.256  40.521  20.877  0.00  0.00     0.028 H 
ATOM     71  H25 L04 d          41.131  41.163  22.550  0.00  0.00     0.028 H 
ATOM     72  H26 L04 d          40.540  42.143  21.166  0.00  0.00     0.028 H 
ENDBRANCH  63  69
ENDBRANCH  60  63
ENDBRANCH  43  60
ENDBRANCH  41  43
ENDBRANCH   1  39
BRANCH   1  73
ATOM     73  C8  L04 d          35.405  35.779  22.959  0.00  0.00    -0.050 C 
ATOM     74  H9  L04 d          36.448  35.604  23.262  0.00  0.00     0.034 H 
ATOM     75  H10 L04 d          35.215  35.282  21.996  0.00  0.00     0.034 H 
BRANCH  73  76
ATOM     76  C9  L04 d          34.502  35.165  23.995  0.00  0.00    -0.040 C 
ATOM     77  H11 L04 d          33.876  34.410  23.498  0.00  0.00     0.040 H 
ATOM     78  H12 L04 d          33.862  35.959  24.405  0.00  0.00     0.040 H 
BRANCH  76  79
ATOM     79  C10 L04 d          35.212  34.503  25.135  0.00  0.00    -0.058 A 
ATOM     80  C15 L04 d          35.601  35.241  26.248  0.00  0.00    -0.076 A 
ATOM     81  C14 L04 d          36.229  34.627  27.323  0.00  0.00    -0.072 A 
ATOM     82  H16 L04 d          35.411  36.307  26.277  0.00  0.00     0.084 H 
ATOM     83  C13 L04 d          36.482  33.261  27.301  0.00  0.00    -0.026 A 
ATOM     84  H15 L04 d          36.522  35.216  28.184  0.00  0.00     0.084 H 
ATOM     85  C12 L04 d          36.096  32.527  26.183  0.00  0.00    -0.072 A 
ATOM     86  C11 L04 d          35.470  33.140  25.114  0.00  0.00    -0.076 A 
ATOM     87  H14 L04 d          36.289  31.460  26.151  0.00  0.00     0.084 H 
ATOM     88  H13 L04 d          35.177  32.550  24.252  0.00  0.00     0.084 H 
BRANCH  83  89
ATOM     89  C5  L04 d          37.146  32.594  28.432  0.00  0.00    -0.026 A 
ATOM     90  C43 L04 d          37.830  33.339  29.386  0.00  0.00    -0.069 A 
ATOM     91  C42 L04 d          38.465  32.712  30.450  0.00  0.00    -0.045 A 
ATOM     92  H45 L04 d          37.870  34.419  29.298  0.00  0.00     0.085 H 
ATOM     93  C41 L04 d          38.428  31.331  30.581  0.00  0.00     0.116 A 
ATOM     94  H44 L04 d          38.994  33.307  31.185  0.00  0.00     0.088 H 
ATOM     95  C17 L04 d          37.733  30.584  29.641  0.00  0.00    -0.045 A 
ATOM     96  F1  L04 d          39.063  30.732  31.610  0.00  0.00    -0.206 F 
ATOM     97  C6  L04 d          37.103  31.210  28.571  0.00  0.00    -0.069 A 
ATOM     98  H17 L04 d          37.680  29.505  29.742  0.00  0.00     0.088 H 
ATOM     99  H7  L04 d          36.573  30.614  27.837  0.00  0.00     0.085 H 
ENDBRANCH  83  89
ENDBRANCH  76  79
ENDBRANCH  73  76
ENDBRANCH   1  73
TORSDOF 20
ENDMDL
MODEL 8
REMARK VINA RESULT:     -10.3      3.931      8.109
REMARK  20 active torsions:
REMARK  status: ('A' for Active; 'I' for Inactive)
REMARK    1  A    between atoms: C1_1  and  C23_23 
REMARK    2  A    between atoms: C1_1  and  C2_2 
REMARK    3  A    between atoms: C2_2  and  C18_18 
REMARK    4  A    between atoms: C2_2  and  C3_3 
REMARK    5  A    between atoms: C21_21  and  C4_4 
REMARK    6  A    between atoms: C13_13  and  C5_5 
REMARK    7  A    between atoms: C18_18  and  C7_7 
REMARK    8  A    between atoms: C7_7  and  C16_16 
REMARK    9  A    between atoms: C7_7  and  C8_8 
REMARK   10  A    between atoms: C8_8  and  C9_9 
REMARK   11  A    between atoms: C9_9  and  C10_10 
REMARK       I    between atoms: C16_16  and  N18_45 
REMARK   12  A    between atoms: N18_45  and  C19_19 
REMARK   13  A    between atoms: C19_19  and  C27_27 
REMARK   14  A    between atoms: C19_19  and  C20_20 
REMARK   15  A    between atoms: C20_20  and  C21_21 
REMARK   16  A    between atoms: C21_21  and  C22_22 
REMARK   17  A    between atoms: C23_23  and  C24_24 
REMARK   18  A    between atoms: C24_24  and  C25_25 
REMARK   19  A    between atoms: C25_25  and  N1_44 
REMARK       I    between atoms: C27_27  and  N29_46 
REMARK   20  A    between atoms: N29_46  and  C30_30 
ROOT
ATOM      1  C7  L04 d          36.089  39.663  23.792  0.00  0.00     0.025 C 
ATOM      2  H8  L04 d          36.856  39.627  24.579  0.00  0.00     0.054 H 
ENDROOT
BRANCH   1   3
ATOM      3  C18 L04 d          36.746  39.325  22.455  0.00  0.00    -0.041 C 
ATOM      4  H18 L04 d          36.303  38.386  22.092  0.00  0.00     0.035 H 
ATOM      5  H19 L04 d          36.511  40.137  21.751  0.00  0.00     0.035 H 
BRANCH   3   6
ATOM      6  C2  L04 d          38.266  39.146  22.468  0.00  0.00     0.031 C 
ATOM      7  H3  L04 d          38.661  39.787  23.270  0.00  0.00     0.056 H 
BRANCH   6   8
ATOM      8  C1  L04 d          38.942  39.599  21.166  0.00  0.00    -0.052 C 
ATOM      9  H1  L04 d          39.524  38.754  20.769  0.00  0.00     0.034 H 
ATOM     10  H2  L04 d          38.157  39.874  20.447  0.00  0.00     0.034 H 
BRANCH   8  11
ATOM     11  C23 L04 d          39.877  40.786  21.327  0.00  0.00    -0.063 C 
ATOM     12  H27 L04 d          39.376  41.558  21.929  0.00  0.00     0.033 H 
ATOM     13  H28 L04 d          40.114  41.193  20.333  0.00  0.00     0.033 H 
BRANCH  11  14
ATOM     14  C24 L04 d          41.172  40.380  22.018  0.00  0.00    -0.050 C 
ATOM     15  H29 L04 d          40.933  39.706  22.854  0.00  0.00     0.035 H 
ATOM     16  H30 L04 d          41.668  41.282  22.403  0.00  0.00     0.035 H 
BRANCH  14  17
ATOM     17  C25 L04 d          42.119  39.666  21.065  0.00  0.00    -0.002 C 
ATOM     18  H31 L04 d          43.141  40.026  21.253  0.00  0.00     0.064 H 
ATOM     19  H32 L04 d          41.829  39.912  20.033  0.00  0.00     0.064 H 
BRANCH  17  20
ATOM     20  N1  L04 d          42.104  38.212  21.217  0.00  0.00    -0.344 N 
ATOM     21  C28 L04 d          42.297  37.426  22.442  0.00  0.00     0.023 A 
ATOM     22  C36 L04 d          42.087  35.998  21.944  0.00  0.00    -0.025 A 
ATOM     23  H33 L04 d          41.556  37.694  23.210  0.00  0.00     0.071 H 
ATOM     24  H34 L04 d          43.310  37.562  22.848  0.00  0.00     0.071 H 
ATOM     25  C29 L04 d          41.858  36.027  20.544  0.00  0.00     0.040 A 
ATOM     26  C38 L04 d          42.063  34.774  22.624  0.00  0.00    -0.074 A 
ATOM     27  C26 L04 d          41.904  37.434  20.126  0.00  0.00     0.254 A 
ATOM     28  C37 L04 d          41.609  34.833  19.853  0.00  0.00    -0.067 A 
ATOM     29  O1  L04 d          41.743  37.845  18.974  0.00  0.00    -0.267 OA
ATOM     30  C40 L04 d          41.587  33.634  20.549  0.00  0.00    -0.082 A 
ATOM     31  H40 L04 d          41.435  34.847  18.784  0.00  0.00     0.085 H 
ATOM     32  C39 L04 d          41.812  33.603  21.915  0.00  0.00    -0.082 A 
ATOM     33  H43 L04 d          41.391  32.709  20.017  0.00  0.00     0.083 H 
ATOM     34  H42 L04 d          41.792  32.654  22.439  0.00  0.00     0.083 H 
ATOM     35  H41 L04 d          42.238  34.738  23.693  0.00  0.00     0.084 H 
ENDBRANCH  17  20
ENDBRANCH  14  17
ENDBRANCH  11  14
ENDBRANCH   8  11
ENDBRANCH   6   8
BRANCH   6  36
ATOM     36  C3  L04 d          38.617  37.697  22.823  0.00  0.00     0.177 C 
ATOM     37  O5  L04 d          38.710  36.775  21.972  0.00  0.00    -0.648 OA
ATOM     38  O4  L04 d          38.774  37.432  24.018  0.00  0.00    -0.648 OA
ENDBRANCH   6  36
ENDBRANCH   3   6
ENDBRANCH   1   3
BRANCH   1  39
ATOM     39  C16 L04 d          34.993  38.658  24.118  0.00  0.00     0.222 C 
ATOM     40  O17 L04 d          34.201  38.861  25.042  0.00  0.00    -0.273 OA
ATOM     41  N18 L04 d          34.955  37.573  23.352  0.00  0.00    -0.347 N 
ATOM     42  H46 L04 d          35.611  37.478  22.603  0.00  0.00     0.163 HD
BRANCH  41  43
ATOM     43  C19 L04 d          33.977  36.520  23.584  0.00  0.00     0.090 C 
ATOM     44  H20 L04 d          34.053  35.763  22.790  0.00  0.00     0.087 H 
BRANCH  43  45
ATOM     45  C27 L04 d          32.596  37.166  23.554  0.00  0.00     0.245 C 
ATOM     46  O28 L04 d          32.164  37.659  22.508  0.00  0.00    -0.271 OA
ATOM     47  N29 L04 d          31.893  37.091  24.684  0.00  0.00    -0.325 N 
ATOM     48  H47 L04 d          32.336  36.610  25.441  0.00  0.00     0.169 HD
BRANCH  47  49
ATOM     49  C30 L04 d          30.631  37.590  24.947  0.00  0.00     0.034 A 
ATOM     50  C35 L04 d          29.451  36.921  24.624  0.00  0.00    -0.057 A 
ATOM     51  C34 L04 d          28.210  37.485  24.908  0.00  0.00    -0.081 A 
ATOM     52  H39 L04 d          29.501  35.950  24.146  0.00  0.00     0.086 H 
ATOM     53  C33 L04 d          28.139  38.734  25.524  0.00  0.00    -0.083 A 
ATOM     54  H38 L04 d          27.301  36.954  24.650  0.00  0.00     0.083 H 
ATOM     55  C32 L04 d          29.310  39.410  25.850  0.00  0.00    -0.081 A 
ATOM     56  H37 L04 d          27.175  39.176  25.749  0.00  0.00     0.083 H 
ATOM     57  C31 L04 d          30.545  38.837  25.562  0.00  0.00    -0.057 A 
ATOM     58  H36 L04 d          29.260  40.382  26.327  0.00  0.00     0.083 H 
ATOM     59  H35 L04 d          31.454  39.369  25.821  0.00  0.00     0.086 H 
ENDBRANCH  47  49
ENDBRANCH  43  45
BRANCH  43  60
ATOM     60  C20 L04 d          34.205  35.850  24.940  0.00  0.00    -0.035 C 
ATOM     61  H21 L04 d          33.216  35.589  25.345  0.00  0.00     0.037 H 
ATOM     62  H22 L04 d          34.686  36.594  25.594  0.00  0.00     0.037 H 
BRANCH  60  63
ATOM     63  C21 L04 d          35.063  34.583  24.991  0.00  0.00    -0.059 C 
ATOM     64  H23 L04 d          34.921  34.091  25.964  0.00  0.00     0.038 H 
BRANCH  63  65
ATOM     65  C4  L04 d          34.598  33.649  23.887  0.00  0.00    -0.073 C 
ATOM     66  H4  L04 d          34.555  34.198  22.935  0.00  0.00     0.028 H 
ATOM     67  H5  L04 d          33.599  33.259  24.132  0.00  0.00     0.028 H 
ATOM     68  H6  L04 d          35.305  32.810  23.794  0.00  0.00     0.028 H 
ENDBRANCH  63  65
BRANCH  63  69
ATOM     69  C22 L04 d          36.544  34.920  24.825  0.00  0.00    -0.073 C 
ATOM     70  H24 L04 d          36.912  35.415  25.737  0.00  0.00     0.028 H 
ATOM     71  H25 L04 d          36.673  35.594  23.966  0.00  0.00     0.028 H 
ATOM     72  H26 L04 d          37.114  33.995  24.655  0.00  0.00     0.028 H 
ENDBRANCH  63  69
ENDBRANCH  60  63
ENDBRANCH  43  60
ENDBRANCH  41  43
ENDBRANCH   1  39
BRANCH   1  73
ATOM     73  C8  L04 d          35.469  41.063  23.763  0.00  0.00    -0.050 C 
ATOM     74  H9  L04 d          36.218  41.781  24.127  0.00  0.00     0.034 H 
ATOM     75  H10 L04 d          34.598  41.069  24.435  0.00  0.00     0.034 H 
BRANCH  73  76
ATOM     76  C9  L04 d          35.016  41.504  22.397  0.00  0.00    -0.040 C 
ATOM     77  H11 L04 d          35.653  41.009  21.650  0.00  0.00     0.040 H 
ATOM     78  H12 L04 d          35.148  42.593  22.328  0.00  0.00     0.040 H 
BRANCH  76  79
ATOM     79  C10 L04 d          33.588  41.186  22.075  0.00  0.00    -0.058 A 
ATOM     80  C15 L04 d          33.225  40.782  20.795  0.00  0.00    -0.076 A 
ATOM     81  C14 L04 d          31.910  40.454  20.500  0.00  0.00    -0.072 A 
ATOM     82  H16 L04 d          33.979  40.722  20.019  0.00  0.00     0.084 H 
ATOM     83  C13 L04 d          30.931  40.529  21.483  0.00  0.00    -0.026 A 
ATOM     84  H15 L04 d          31.645  40.138  19.497  0.00  0.00     0.084 H 
ATOM     85  C12 L04 d          31.296  40.937  22.762  0.00  0.00    -0.072 A 
ATOM     86  C11 L04 d          32.607  41.263  23.054  0.00  0.00    -0.076 A 
ATOM     87  H14 L04 d          30.543  41.002  23.539  0.00  0.00     0.084 H 
ATOM     88  H13 L04 d          32.872  41.580  24.057  0.00  0.00     0.084 H 
BRANCH  83  89
ATOM     89  C5  L04 d          29.531  40.183  21.187  0.00  0.00    -0.026 A 
ATOM     90  C43 L04 d          28.686  39.743  22.199  0.00  0.00    -0.069 A 
ATOM     91  C42 L04 d          27.367  39.408  21.922  0.00  0.00    -0.045 A 
ATOM     92  H45 L04 d          29.059  39.662  23.214  0.00  0.00     0.085 H 
ATOM     93  C41 L04 d          26.869  39.503  20.630  0.00  0.00     0.116 A 
ATOM     94  H44 L04 d          26.721  39.068  22.722  0.00  0.00     0.088 H 
ATOM     95  C17 L04 d          27.704  39.956  19.619  0.00  0.00    -0.045 A 
ATOM     96  F1  L04 d          25.591  39.158  20.370  0.00  0.00    -0.206 F 
ATOM     97  C6  L04 d          29.027  40.286  19.894  0.00  0.00    -0.069 A 
ATOM     98  H17 L04 d          27.324  40.053  18.608  0.00  0.00     0.088 H 
ATOM     99  H7  L04 d          29.673  40.627  19.093  0.00  0.00     0.085 H 
ENDBRANCH  83  89
ENDBRANCH  76  79
ENDBRANCH  73  76
ENDBRANCH   1  73
TORSDOF 20
ENDMDL
MODEL 9
REMARK VINA RESULT:     -10.2      1.688      3.557
REMARK  20 active torsions:
REMARK  status: ('A' for Active; 'I' for Inactive)
REMARK    1  A    between atoms: C1_1  and  C23_23 
REMARK    2  A    between atoms: C1_1  and  C2_2 
REMARK    3  A    between atoms: C2_2  and  C18_18 
REMARK    4  A    between atoms: C2_2  and  C3_3 
REMARK    5  A    between atoms: C21_21  and  C4_4 
REMARK    6  A    between atoms: C13_13  and  C5_5 
REMARK    7  A    between atoms: C18_18  and  C7_7 
REMARK    8  A    between atoms: C7_7  and  C16_16 
REMARK    9  A    between atoms: C7_7  and  C8_8 
REMARK   10  A    between atoms: C8_8  and  C9_9 
REMARK   11  A    between atoms: C9_9  and  C10_10 
REMARK       I    between atoms: C16_16  and  N18_45 
REMARK   12  A    between atoms: N18_45  and  C19_19 
REMARK   13  A    between atoms: C19_19  and  C27_27 
REMARK   14  A    between atoms: C19_19  and  C20_20 
REMARK   15  A    between atoms: C20_20  and  C21_21 
REMARK   16  A    between atoms: C21_21  and  C22_22 
REMARK   17  A    between atoms: C23_23  and  C24_24 
REMARK   18  A    between atoms: C24_24  and  C25_25 
REMARK   19  A    between atoms: C25_25  and  N1_44 
REMARK       I    between atoms: C27_27  and  N29_46 
REMARK   20  A    between atoms: N29_46  and  C30_30 
ROOT
ATOM      1  C7  L04 d          33.347  39.105  22.928  0.00  0.00     0.025 C 
ATOM      2  H8  L04 d          33.886  39.520  23.793  0.00  0.00     0.054 H 
ENDROOT
BRANCH   1   3
ATOM      3  C18 L04 d          33.548  37.590  22.911  0.00  0.00    -0.041 C 
ATOM      4  H18 L04 d          32.562  37.121  23.038  0.00  0.00     0.035 H 
ATOM      5  H19 L04 d          33.959  37.318  21.928  0.00  0.00     0.035 H 
BRANCH   3   6
ATOM      6  C2  L04 d          34.478  37.014  23.979  0.00  0.00     0.031 C 
ATOM      7  H3  L04 d          35.222  37.788  24.214  0.00  0.00     0.056 H 
BRANCH   6   8
ATOM      8  C1  L04 d          35.259  35.779  23.504  0.00  0.00    -0.052 C 
ATOM      9  H1  L04 d          34.540  34.971  23.309  0.00  0.00     0.034 H 
ATOM     10  H2  L04 d          35.781  36.040  22.571  0.00  0.00     0.034 H 
BRANCH   8  11
ATOM     11  C23 L04 d          36.289  35.269  24.499  0.00  0.00    -0.063 C 
ATOM     12  H27 L04 d          36.196  35.839  25.435  0.00  0.00     0.033 H 
ATOM     13  H28 L04 d          37.295  35.415  24.079  0.00  0.00     0.033 H 
BRANCH  11  14
ATOM     14  C24 L04 d          36.084  33.790  24.796  0.00  0.00    -0.050 C 
ATOM     15  H29 L04 d          37.067  33.302  24.871  0.00  0.00     0.035 H 
ATOM     16  H30 L04 d          35.511  33.338  23.973  0.00  0.00     0.035 H 
BRANCH  14  17
ATOM     17  C25 L04 d          35.327  33.576  26.098  0.00  0.00    -0.002 C 
ATOM     18  H31 L04 d          34.705  32.675  25.997  0.00  0.00     0.064 H 
ATOM     19  H32 L04 d          34.681  34.449  26.275  0.00  0.00     0.064 H 
BRANCH  17  20
ATOM     20  N1  L04 d          36.205  33.407  27.255  0.00  0.00    -0.344 N 
ATOM     21  C28 L04 d          36.893  34.446  28.032  0.00  0.00     0.023 A 
ATOM     22  C36 L04 d          37.572  33.629  29.129  0.00  0.00    -0.025 A 
ATOM     23  H33 L04 d          36.178  35.166  28.456  0.00  0.00     0.071 H 
ATOM     24  H34 L04 d          37.632  34.980  27.417  0.00  0.00     0.071 H 
ATOM     25  C29 L04 d          37.308  32.253  28.909  0.00  0.00     0.040 A 
ATOM     26  C38 L04 d          38.329  34.020  30.241  0.00  0.00    -0.074 A 
ATOM     27  C26 L04 d          36.470  32.157  27.708  0.00  0.00     0.254 A 
ATOM     28  C37 L04 d          37.805  31.295  29.805  0.00  0.00    -0.067 A 
ATOM     29  O1  L04 d          36.039  31.111  27.214  0.00  0.00    -0.267 OA
ATOM     30  C40 L04 d          38.549  31.708  30.901  0.00  0.00    -0.082 A 
ATOM     31  H40 L04 d          37.609  30.242  29.643  0.00  0.00     0.085 H 
ATOM     32  C39 L04 d          38.809  33.050  31.116  0.00  0.00    -0.082 A 
ATOM     33  H43 L04 d          38.931  30.969  31.597  0.00  0.00     0.083 H 
ATOM     34  H42 L04 d          39.395  33.350  31.978  0.00  0.00     0.083 H 
ATOM     35  H41 L04 d          38.538  35.068  30.419  0.00  0.00     0.084 H 
ENDBRANCH  17  20
ENDBRANCH  14  17
ENDBRANCH  11  14
ENDBRANCH   8  11
ENDBRANCH   6   8
BRANCH   6  36
ATOM     36  C3  L04 d          33.688  36.732  25.262  0.00  0.00     0.177 C 
ATOM     37  O5  L04 d          32.533  36.232  25.273  0.00  0.00    -0.648 OA
ATOM     38  O4  L04 d          34.213  37.059  26.330  0.00  0.00    -0.648 OA
ENDBRANCH   6  36
ENDBRANCH   3   6
ENDBRANCH   1   3
BRANCH   1  39
ATOM     39  C16 L04 d          31.869  39.446  23.050  0.00  0.00     0.222 C 
ATOM     40  O17 L04 d          31.098  38.715  23.677  0.00  0.00    -0.273 OA
ATOM     41  N18 L04 d          31.480  40.564  22.445  0.00  0.00    -0.347 N 
ATOM     42  H46 L04 d          32.158  41.127  21.972  0.00  0.00     0.163 HD
BRANCH  41  43
ATOM     43  C19 L04 d          30.086  40.982  22.457  0.00  0.00     0.090 C 
ATOM     44  H20 L04 d          29.969  41.897  21.857  0.00  0.00     0.087 H 
BRANCH  43  45
ATOM     45  C27 L04 d          29.707  41.263  23.907  0.00  0.00     0.245 C 
ATOM     46  O28 L04 d          30.119  42.280  24.471  0.00  0.00    -0.271 OA
ATOM     47  N29 L04 d          28.867  40.392  24.468  0.00  0.00    -0.325 N 
ATOM     48  H47 L04 d          28.560  39.644  23.880  0.00  0.00     0.169 HD
BRANCH  47  49
ATOM     49  C30 L04 d          28.365  40.390  25.755  0.00  0.00     0.034 A 
ATOM     50  C35 L04 d          27.154  39.799  26.113  0.00  0.00    -0.057 A 
ATOM     51  C34 L04 d          26.700  39.840  27.429  0.00  0.00    -0.081 A 
ATOM     52  H39 L04 d          26.558  39.302  25.357  0.00  0.00     0.086 H 
ATOM     53  C33 L04 d          27.463  40.477  28.407  0.00  0.00    -0.083 A 
ATOM     54  H38 L04 d          25.755  39.378  27.692  0.00  0.00     0.083 H 
ATOM     55  C32 L04 d          28.672  41.070  28.062  0.00  0.00    -0.081 A 
ATOM     56  H37 L04 d          27.114  40.510  29.433  0.00  0.00     0.083 H 
ATOM     57  C31 L04 d          29.117  41.023  26.744  0.00  0.00    -0.057 A 
ATOM     58  H36 L04 d          29.267  41.569  28.818  0.00  0.00     0.083 H 
ATOM     59  H35 L04 d          30.062  41.485  26.482  0.00  0.00     0.086 H 
ENDBRANCH  47  49
ENDBRANCH  43  45
BRANCH  43  60
ATOM     60  C20 L04 d          29.181  39.888  21.888  0.00  0.00    -0.035 C 
ATOM     61  H21 L04 d          28.335  39.773  22.580  0.00  0.00     0.037 H 
ATOM     62  H22 L04 d          29.769  38.958  21.868  0.00  0.00     0.037 H 
BRANCH  60  63
ATOM     63  C21 L04 d          28.596  40.084  20.486  0.00  0.00    -0.059 C 
ATOM     64  H23 L04 d          28.649  41.149  20.220  0.00  0.00     0.038 H 
BRANCH  63  65
ATOM     65  C4  L04 d          29.433  39.283  19.504  0.00  0.00    -0.073 C 
ATOM     66  H4  L04 d          28.891  38.370  19.219  0.00  0.00     0.028 H 
ATOM     67  H5  L04 d          30.389  39.009  19.974  0.00  0.00     0.028 H 
ATOM     68  H6  L04 d          29.627  39.890  18.607  0.00  0.00     0.028 H 
ENDBRANCH  63  65
BRANCH  63  69
ATOM     69  C22 L04 d          27.135  39.639  20.439  0.00  0.00    -0.073 C 
ATOM     70  H24 L04 d          27.087  38.542  20.376  0.00  0.00     0.028 H 
ATOM     71  H25 L04 d          26.646  40.079  19.557  0.00  0.00     0.028 H 
ATOM     72  H26 L04 d          26.619  39.978  21.350  0.00  0.00     0.028 H 
ENDBRANCH  63  69
ENDBRANCH  60  63
ENDBRANCH  43  60
ENDBRANCH  41  43
ENDBRANCH   1  39
BRANCH   1  73
ATOM     73  C8  L04 d          33.888  39.747  21.647  0.00  0.00    -0.050 C 
ATOM     74  H9  L04 d          33.035  40.117  21.059  0.00  0.00     0.034 H 
ATOM     75  H10 L04 d          34.423  38.976  21.074  0.00  0.00     0.034 H 
BRANCH  73  76
ATOM     76  C9  L04 d          34.829  40.896  21.889  0.00  0.00    -0.040 C 
ATOM     77  H11 L04 d          34.572  41.351  22.856  0.00  0.00     0.040 H 
ATOM     78  H12 L04 d          34.681  41.634  21.087  0.00  0.00     0.040 H 
BRANCH  76  79
ATOM     79  C10 L04 d          36.280  40.526  21.919  0.00  0.00    -0.058 A 
ATOM     80  C15 L04 d          36.691  39.252  21.544  0.00  0.00    -0.076 A 
ATOM     81  C14 L04 d          38.037  38.913  21.537  0.00  0.00    -0.072 A 
ATOM     82  H16 L04 d          35.952  38.515  21.252  0.00  0.00     0.084 H 
ATOM     83  C13 L04 d          38.997  39.846  21.910  0.00  0.00    -0.026 A 
ATOM     84  H15 L04 d          38.340  37.916  21.238  0.00  0.00     0.084 H 
ATOM     85  C12 L04 d          38.581  41.119  22.289  0.00  0.00    -0.072 A 
ATOM     86  C11 L04 d          37.240  41.454  22.294  0.00  0.00    -0.076 A 
ATOM     87  H14 L04 d          39.319  41.856  22.585  0.00  0.00     0.084 H 
ATOM     88  H13 L04 d          36.937  42.451  22.594  0.00  0.00     0.084 H 
BRANCH  83  89
ATOM     89  C5  L04 d          40.428  39.504  21.907  0.00  0.00    -0.026 A 
ATOM     90  C43 L04 d          41.377  40.444  22.291  0.00  0.00    -0.069 A 
ATOM     91  C42 L04 d          42.729  40.127  22.281  0.00  0.00    -0.045 A 
ATOM     92  H45 L04 d          41.060  41.433  22.601  0.00  0.00     0.085 H 
ATOM     93  C41 L04 d          43.158  38.868  21.886  0.00  0.00     0.116 A 
ATOM     94  H44 L04 d          43.456  40.871  22.583  0.00  0.00     0.088 H 
ATOM     95  C17 L04 d          42.214  37.920  21.517  0.00  0.00    -0.045 A 
ATOM     96  F1  L04 d          44.475  38.578  21.864  0.00  0.00    -0.206 F 
ATOM     97  C6  L04 d          40.860  38.239  21.521  0.00  0.00    -0.069 A 
ATOM     98  H17 L04 d          42.533  36.927  21.224  0.00  0.00     0.088 H 
ATOM     99  H7  L04 d          40.133  37.493  21.219  0.00  0.00     0.085 H 
ENDBRANCH  83  89
ENDBRANCH  76  79
ENDBRANCH  73  76
ENDBRANCH   1  73
TORSDOF 20
ENDMDL
MODEL 10
REMARK VINA RESULT:     -10.1      2.952      4.920
REMARK  20 active torsions:
REMARK  status: ('A' for Active; 'I' for Inactive)
REMARK    1  A    between atoms: C1_1  and  C23_23 
REMARK    2  A    between atoms: C1_1  and  C2_2 
REMARK    3  A    between atoms: C2_2  and  C18_18 
REMARK    4  A    between atoms: C2_2  and  C3_3 
REMARK    5  A    between atoms: C21_21  and  C4_4 
REMARK    6  A    between atoms: C13_13  and  C5_5 
REMARK    7  A    between atoms: C18_18  and  C7_7 
REMARK    8  A    between atoms: C7_7  and  C16_16 
REMARK    9  A    between atoms: C7_7  and  C8_8 
REMARK   10  A    between atoms: C8_8  and  C9_9 
REMARK   11  A    between atoms: C9_9  and  C10_10 
REMARK       I    between atoms: C16_16  and  N18_45 
REMARK   12  A    between atoms: N18_45  and  C19_19 
REMARK   13  A    between atoms: C19_19  and  C27_27 
REMARK   14  A    between atoms: C19_19  and  C20_20 
REMARK   15  A    between atoms: C20_20  and  C21_21 
REMARK   16  A    between atoms: C21_21  and  C22_22 
REMARK   17  A    between atoms: C23_23  and  C24_24 
REMARK   18  A    between atoms: C24_24  and  C25_25 
REMARK   19  A    between atoms: C25_25  and  N1_44 
REMARK       I    between atoms: C27_27  and  N29_46 
REMARK   20  A    between atoms: N29_46  and  C30_30 
ROOT
ATOM      1  C7  L04 d          33.101  39.041  23.134  0.00  0.00     0.025 C 
ATOM      2  H8  L04 d          33.656  39.244  24.062  0.00  0.00     0.054 H 
ENDROOT
BRANCH   1   3
ATOM      3  C18 L04 d          33.312  37.577  22.749  0.00  0.00    -0.041 C 
ATOM      4  H18 L04 d          32.321  37.106  22.673  0.00  0.00     0.035 H 
ATOM      5  H19 L04 d          33.803  37.558  21.765  0.00  0.00     0.035 H 
BRANCH   3   6
ATOM      6  C2  L04 d          34.156  36.736  23.708  0.00  0.00     0.031 C 
ATOM      7  H3  L04 d          35.075  37.303  23.914  0.00  0.00     0.056 H 
BRANCH   6   8
ATOM      8  C1  L04 d          34.590  35.388  23.113  0.00  0.00    -0.052 C 
ATOM      9  H1  L04 d          33.748  34.687  23.198  0.00  0.00     0.034 H 
ATOM     10  H2  L04 d          34.832  35.543  22.051  0.00  0.00     0.034 H 
BRANCH   8  11
ATOM     11  C23 L04 d          35.799  34.766  23.791  0.00  0.00    -0.063 C 
ATOM     12  H27 L04 d          36.141  33.907  23.195  0.00  0.00     0.033 H 
ATOM     13  H28 L04 d          35.510  34.424  24.795  0.00  0.00     0.033 H 
BRANCH  11  14
ATOM     14  C24 L04 d          36.938  35.768  23.916  0.00  0.00    -0.050 C 
ATOM     15  H29 L04 d          37.664  35.392  24.653  0.00  0.00     0.035 H 
ATOM     16  H30 L04 d          36.530  36.729  24.260  0.00  0.00     0.035 H 
BRANCH  14  17
ATOM     17  C25 L04 d          37.651  35.981  22.589  0.00  0.00    -0.002 C 
ATOM     18  H31 L04 d          37.269  36.906  22.132  0.00  0.00     0.064 H 
ATOM     19  H32 L04 d          37.428  35.128  21.931  0.00  0.00     0.064 H 
BRANCH  17  20
ATOM     20  N1  L04 d          39.102  36.096  22.725  0.00  0.00    -0.344 N 
ATOM     21  C28 L04 d          40.140  35.259  22.110  0.00  0.00     0.023 A 
ATOM     22  C36 L04 d          41.423  35.941  22.581  0.00  0.00    -0.025 A 
ATOM     23  H33 L04 d          40.063  35.270  21.012  0.00  0.00     0.071 H 
ATOM     24  H34 L04 d          40.083  34.223  22.472  0.00  0.00     0.071 H 
ATOM     25  C29 L04 d          41.083  37.024  23.432  0.00  0.00     0.040 A 
ATOM     26  C38 L04 d          42.769  35.685  22.290  0.00  0.00    -0.074 A 
ATOM     27  C26 L04 d          39.618  37.069  23.516  0.00  0.00     0.254 A 
ATOM     28  C37 L04 d          42.095  37.829  23.974  0.00  0.00    -0.067 A 
ATOM     29  O1  L04 d          38.960  37.885  24.166  0.00  0.00    -0.267 OA
ATOM     30  C40 L04 d          43.420  37.557  23.669  0.00  0.00    -0.082 A 
ATOM     31  H40 L04 d          41.844  38.657  24.627  0.00  0.00     0.085 H 
ATOM     32  C39 L04 d          43.754  36.499  22.841  0.00  0.00    -0.082 A 
ATOM     33  H43 L04 d          44.204  38.180  24.085  0.00  0.00     0.083 H 
ATOM     34  H42 L04 d          44.796  36.303  22.617  0.00  0.00     0.083 H 
ATOM     35  H41 L04 d          43.040  34.859  21.643  0.00  0.00     0.084 H 
ENDBRANCH  17  20
ENDBRANCH  14  17
ENDBRANCH  11  14
ENDBRANCH   8  11
ENDBRANCH   6   8
BRANCH   6  36
ATOM     36  C3  L04 d          33.415  36.562  25.039  0.00  0.00     0.177 C 
ATOM     37  O5  L04 d          32.336  35.926  25.157  0.00  0.00    -0.648 OA
ATOM     38  O4  L04 d          33.899  37.117  26.029  0.00  0.00    -0.648 OA
ENDBRANCH   6  36
ENDBRANCH   3   6
ENDBRANCH   1   3
BRANCH   1  39
ATOM     39  C16 L04 d          31.624  39.326  23.365  0.00  0.00     0.222 C 
ATOM     40  O17 L04 d          30.975  38.682  24.194  0.00  0.00    -0.273 OA
ATOM     41  N18 L04 d          31.097  40.295  22.623  0.00  0.00    -0.347 N 
ATOM     42  H46 L04 d          31.681  40.796  21.984  0.00  0.00     0.163 HD
BRANCH  41  43
ATOM     43  C19 L04 d          29.686  40.639  22.723  0.00  0.00     0.090 C 
ATOM     44  H20 L04 d          29.448  41.436  22.004  0.00  0.00     0.087 H 
BRANCH  43  45
ATOM     45  C27 L04 d          29.437  41.132  24.144  0.00  0.00     0.245 C 
ATOM     46  O28 L04 d          29.815  42.255  24.487  0.00  0.00    -0.271 OA
ATOM     47  N29 L04 d          28.739  40.312  24.931  0.00  0.00    -0.325 N 
ATOM     48  H47 L04 d          28.439  39.456  24.510  0.00  0.00     0.169 HD
BRANCH  47  49
ATOM     49  C30 L04 d          28.376  40.490  26.252  0.00  0.00     0.034 A 
ATOM     50  C35 L04 d          29.243  40.966  27.235  0.00  0.00    -0.057 A 
ATOM     51  C34 L04 d          28.816  41.114  28.553  0.00  0.00    -0.081 A 
ATOM     52  H39 L04 d          30.262  41.224  26.971  0.00  0.00     0.086 H 
ATOM     53  C33 L04 d          27.506  40.786  28.899  0.00  0.00    -0.083 A 
ATOM     54  H38 L04 d          29.501  41.484  29.308  0.00  0.00     0.083 H 
ATOM     55  C32 L04 d          26.633  40.309  27.927  0.00  0.00    -0.081 A 
ATOM     56  H37 L04 d          27.169  40.901  29.923  0.00  0.00     0.083 H 
ATOM     57  C31 L04 d          27.070  40.166  26.614  0.00  0.00    -0.057 A 
ATOM     58  H36 L04 d          25.615  40.050  28.192  0.00  0.00     0.083 H 
ATOM     59  H35 L04 d          26.384  39.796  25.860  0.00  0.00     0.086 H 
ENDBRANCH  47  49
ENDBRANCH  43  45
BRANCH  43  60
ATOM     60  C20 L04 d          28.805  39.422  22.435  0.00  0.00    -0.035 C 
ATOM     61  H21 L04 d          28.637  38.907  23.392  0.00  0.00     0.037 H 
ATOM     62  H22 L04 d          29.369  38.765  21.757  0.00  0.00     0.037 H 
BRANCH  60  63
ATOM     63  C21 L04 d          27.431  39.653  21.800  0.00  0.00    -0.059 C 
ATOM     64  H23 L04 d          27.081  40.664  22.056  0.00  0.00     0.038 H 
BRANCH  63  65
ATOM     65  C4  L04 d          27.578  39.543  20.292  0.00  0.00    -0.073 C 
ATOM     66  H4  L04 d          27.270  40.490  19.823  0.00  0.00     0.028 H 
ATOM     67  H5  L04 d          26.942  38.726  19.920  0.00  0.00     0.028 H 
ATOM     68  H6  L04 d          28.628  39.334  20.040  0.00  0.00     0.028 H 
ENDBRANCH  63  65
BRANCH  63  69
ATOM     69  C22 L04 d          26.412  38.639  22.319  0.00  0.00    -0.073 C 
ATOM     70  H24 L04 d          26.578  38.471  23.394  0.00  0.00     0.028 H 
ATOM     71  H25 L04 d          26.531  37.689  21.777  0.00  0.00     0.028 H 
ATOM     72  H26 L04 d          25.395  39.027  22.161  0.00  0.00     0.028 H 
ENDBRANCH  63  69
ENDBRANCH  60  63
ENDBRANCH  43  60
ENDBRANCH  41  43
ENDBRANCH   1  39
BRANCH   1  73
ATOM     73  C8  L04 d          33.608  39.979  22.034  0.00  0.00    -0.050 C 
ATOM     74  H9  L04 d          32.743  40.505  21.602  0.00  0.00     0.034 H 
ATOM     75  H10 L04 d          34.093  39.370  21.258  0.00  0.00     0.034 H 
BRANCH  73  76
ATOM     76  C9  L04 d          34.596  41.008  22.514  0.00  0.00    -0.040 C 
ATOM     77  H11 L04 d          34.496  41.095  23.606  0.00  0.00     0.040 H 
ATOM     78  H12 L04 d          34.341  41.971  22.046  0.00  0.00     0.040 H 
BRANCH  76  79
ATOM     79  C10 L04 d          36.027  40.701  22.200  0.00  0.00    -0.058 A 
ATOM     80  C15 L04 d          36.361  39.572  21.462  0.00  0.00    -0.076 A 
ATOM     81  C14 L04 d          37.683  39.300  21.139  0.00  0.00    -0.072 A 
ATOM     82  H16 L04 d          35.581  38.895  21.135  0.00  0.00     0.084 H 
ATOM     83  C13 L04 d          38.697  40.155  21.553  0.00  0.00    -0.026 A 
ATOM     84  H15 L04 d          37.926  38.416  20.560  0.00  0.00     0.084 H 
ATOM     85  C12 L04 d          38.359  41.283  22.295  0.00  0.00    -0.072 A 
ATOM     86  C11 L04 d          37.042  41.552  22.615  0.00  0.00    -0.076 A 
ATOM     87  H14 L04 d          39.139  41.959  22.627  0.00  0.00     0.084 H 
ATOM     88  H13 L04 d          36.799  42.436  23.195  0.00  0.00     0.084 H 
BRANCH  83  89
ATOM     89  C5  L04 d          40.103  39.883  21.217  0.00  0.00    -0.026 A 
ATOM     90  C43 L04 d          41.120  40.663  21.758  0.00  0.00    -0.069 A 
ATOM     91  C42 L04 d          42.447  40.414  21.436  0.00  0.00    -0.045 A 
ATOM     92  H45 L04 d          40.874  41.472  22.436  0.00  0.00     0.085 H 
ATOM     93  C41 L04 d          42.785  39.385  20.569  0.00  0.00     0.116 A 
ATOM     94  H44 L04 d          43.228  41.031  21.866  0.00  0.00     0.088 H 
ATOM     95  C17 L04 d          41.776  38.593  20.040  0.00  0.00    -0.045 A 
ATOM     96  F1  L04 d          44.077  39.164  20.251  0.00  0.00    -0.206 F 
ATOM     97  C6  L04 d          40.445  38.846  20.356  0.00  0.00    -0.069 A 
ATOM     98  H17 L04 d          42.026  37.773  19.375  0.00  0.00     0.088 H 
ATOM     99  H7  L04 d          39.665  38.227  19.926  0.00  0.00     0.085 H 
ENDBRANCH  83  89
ENDBRANCH  76  79
ENDBRANCH  73  76
ENDBRANCH   1  73
TORSDOF 20
ENDMDL
