MODEL 1
REMARK VINA RESULT:     -10.0      0.000      0.000
REMARK  11 active torsions:
REMARK  status: ('A' for Active; 'I' for Inactive)
REMARK    1  A    between atoms: CAA_1  and  CAP_2 
REMARK    2  A    between atoms: CAP_2  and  CAQ_3 
REMARK    3  A    between atoms: CAQ_3  and  CAS_4 
REMARK    4  A    between atoms: CAS_4  and  CAV_5 
REMARK    5  A    between atoms: CAX_10  and  CAY_11 
REMARK    6  A    between atoms: CAW_16  and  CAT_17 
REMARK    7  A    between atoms: CAT_17  and  CAR_18 
REMARK    8  A    between atoms: CAR_18  and  CAU_19 
REMARK    9  A    between atoms: CAU_19  and  CAZ_20 
REMARK   10  A    between atoms: CAZ_20  and  PBA_21 
REMARK   11  A    between atoms: CAZ_20  and  SBB_25 
ROOT
ATOM      1  CAY B69 d          14.598  56.652  37.733  0.00  0.00    -0.026 A 
ATOM      2  CAO B69 d          14.710  56.107  36.458  0.00  0.00    -0.072 A 
ATOM      3  CAK B69 d          15.446  54.941  36.265  0.00  0.00    -0.076 A 
ATOM      4  CAN B69 d          15.239  56.039  38.803  0.00  0.00    -0.072 A 
ATOM      5  CAJ B69 d          15.973  54.873  38.610  0.00  0.00    -0.076 A 
ATOM      6  CAW B69 d          16.072  54.320  37.338  0.00  0.00    -0.058 A 
ATOM      7  H14 B69 d          14.225  56.589  35.616  0.00  0.00     0.084 H 
ATOM      8  H15 B69 d          15.531  54.516  35.271  0.00  0.00     0.084 H 
ATOM      9  H16 B69 d          15.167  56.473  39.794  0.00  0.00     0.084 H 
ATOM     10  H17 B69 d          16.466  54.397  39.450  0.00  0.00     0.084 H 
ENDROOT
BRANCH   1  11
ATOM     11  CAX B69 d          13.753  57.734  37.954  0.00  0.00    -0.026 A 
ATOM     12  CAM B69 d          12.696  58.014  37.093  0.00  0.00    -0.072 A 
ATOM     13  CAI B69 d          11.921  59.152  37.288  0.00  0.00    -0.076 A 
ATOM     14  H11 B69 d          12.478  57.344  36.269  0.00  0.00     0.084 H 
ATOM     15  CAV B69 d          12.186  60.011  38.350  0.00  0.00    -0.058 A 
ATOM     16  H10 B69 d          11.105  59.370  36.608  0.00  0.00     0.084 H 
ATOM     17  CAH B69 d          13.250  59.740  39.199  0.00  0.00    -0.076 A 
ATOM     18  CAL B69 d          14.027  58.603  39.004  0.00  0.00    -0.072 A 
ATOM     19  H12 B69 d          13.476  60.415  40.016  0.00  0.00     0.084 H 
ATOM     20  H13 B69 d          14.853  58.393  39.674  0.00  0.00     0.084 H 
BRANCH  15  21
ATOM     21  CAS B69 d          11.167  61.082  38.750  0.00  0.00    -0.041 C 
ATOM     22  H8  B69 d          10.730  60.787  39.714  0.00  0.00     0.040 H 
ATOM     23  H9  B69 d          11.707  62.033  38.868  0.00  0.00     0.040 H 
BRANCH  21  24
ATOM     24  CAQ B69 d          10.017  61.316  37.767  0.00  0.00    -0.062 C 
ATOM     25  H6  B69 d          10.004  62.369  37.452  0.00  0.00     0.033 H 
ATOM     26  H7  B69 d          10.143  60.670  36.885  0.00  0.00     0.033 H 
BRANCH  24  27
ATOM     27  CAP B69 d           8.707  60.971  38.483  0.00  0.00    -0.068 C 
ATOM     28  H4  B69 d           8.786  61.278  39.536  0.00  0.00     0.032 H 
ATOM     29  H5  B69 d           7.884  61.520  38.002  0.00  0.00     0.032 H 
BRANCH  27  30
ATOM     30  CAA B69 d           8.402  59.473  38.426  0.00  0.00    -0.077 C 
ATOM     31  H1  B69 d           8.529  59.035  39.427  0.00  0.00     0.027 H 
ATOM     32  H2  B69 d           9.092  58.985  37.722  0.00  0.00     0.027 H 
ATOM     33  H3  B69 d           7.366  59.322  38.088  0.00  0.00     0.027 H 
ENDBRANCH  27  30
ENDBRANCH  24  27
ENDBRANCH  21  24
ENDBRANCH  15  21
ENDBRANCH   1  11
BRANCH   6  34
ATOM     34  CAT B69 d          16.836  53.010  37.113  0.00  0.00    -0.041 C 
ATOM     35  H18 B69 d          17.673  53.198  36.424  0.00  0.00     0.040 H 
ATOM     36  H19 B69 d          16.154  52.271  36.669  0.00  0.00     0.040 H 
BRANCH  34  37
ATOM     37  CAR B69 d          17.389  52.451  38.425  0.00  0.00    -0.059 C 
ATOM     38  H20 B69 d          16.918  51.479  38.628  0.00  0.00     0.033 H 
ATOM     39  H21 B69 d          17.153  53.151  39.241  0.00  0.00     0.033 H 
BRANCH  37  40
ATOM     40  CAU B69 d          18.906  52.265  38.349  0.00  0.00    -0.034 C 
ATOM     41  H22 B69 d          19.138  51.205  38.526  0.00  0.00     0.036 H 
ATOM     42  H23 B69 d          19.375  52.879  39.133  0.00  0.00     0.036 H 
BRANCH  40  43
ATOM     43  CAZ B69 d          19.489  52.673  36.996  0.00  0.00     0.169 C 
ATOM     44  H24 B69 d          18.681  53.061  36.358  0.00  0.00     0.090 H 
BRANCH  43  45
ATOM     45  PBA B69 d          20.263  51.228  36.161  0.00  0.00     0.281 P 
ATOM     46  OAC B69 d          21.187  50.479  37.248  0.00  0.00    -0.639 OA
ATOM     47  OAD B69 d          19.058  50.224  35.802  0.00  0.00    -0.639 OA
ATOM     48  OAB B69 d          21.044  51.642  34.973  0.00  0.00    -0.639 OA
ENDBRANCH  43  45
BRANCH  43  49
ATOM     49  SBB B69 d          20.734  53.989  37.257  0.00  0.00     0.119 S 
ATOM     50  OAG B69 d          22.017  53.390  37.453  0.00  0.00    -0.594 OA
ATOM     51  OAF B69 d          20.361  54.793  38.466  0.00  0.00    -0.594 OA
ATOM     52  OAE B69 d          20.764  54.884  36.052  0.00  0.00    -0.594 OA
ENDBRANCH  43  49
ENDBRANCH  40  43
ENDBRANCH  37  40
ENDBRANCH  34  37
ENDBRANCH   6  34
TORSDOF 11
ENDMDL
MODEL 2
REMARK VINA RESULT:      -9.8      0.953      2.277
REMARK  11 active torsions:
REMARK  status: ('A' for Active; 'I' for Inactive)
REMARK    1  A    between atoms: CAA_1  and  CAP_2 
REMARK    2  A    between atoms: CAP_2  and  CAQ_3 
REMARK    3  A    between atoms: CAQ_3  and  CAS_4 
REMARK    4  A    between atoms: CAS_4  and  CAV_5 
REMARK    5  A    between atoms: CAX_10  and  CAY_11 
REMARK    6  A    between atoms: CAW_16  and  CAT_17 
REMARK    7  A    between atoms: CAT_17  and  CAR_18 
REMARK    8  A    between atoms: CAR_18  and  CAU_19 
REMARK    9  A    between atoms: CAU_19  and  CAZ_20 
REMARK   10  A    between atoms: CAZ_20  and  PBA_21 
REMARK   11  A    between atoms: CAZ_20  and  SBB_25 
ROOT
ATOM      1  CAY B69 d          14.622  56.759  38.055  0.00  0.00    -0.026 A 
ATOM      2  CAO B69 d          14.713  56.039  36.868  0.00  0.00    -0.072 A 
ATOM      3  CAK B69 d          15.465  54.868  36.825  0.00  0.00    -0.076 A 
ATOM      4  CAN B69 d          15.300  56.316  39.184  0.00  0.00    -0.072 A 
ATOM      5  CAJ B69 d          16.051  55.145  39.140  0.00  0.00    -0.076 A 
ATOM      6  CAW B69 d          16.129  54.416  37.959  0.00  0.00    -0.058 A 
ATOM      7  H14 B69 d          14.199  56.388  35.980  0.00  0.00     0.084 H 
ATOM      8  H15 B69 d          15.534  54.306  35.900  0.00  0.00     0.084 H 
ATOM      9  H16 B69 d          15.245  56.887  40.104  0.00  0.00     0.084 H 
ATOM     10  H17 B69 d          16.573  54.801  40.026  0.00  0.00     0.084 H 
ENDROOT
BRANCH   1  11
ATOM     11  CAX B69 d          13.763  57.849  38.141  0.00  0.00    -0.026 A 
ATOM     12  CAM B69 d          12.750  58.047  37.208  0.00  0.00    -0.072 A 
ATOM     13  CAI B69 d          11.961  59.190  37.268  0.00  0.00    -0.076 A 
ATOM     14  H11 B69 d          12.575  57.308  36.435  0.00  0.00     0.084 H 
ATOM     15  CAV B69 d          12.169  60.139  38.265  0.00  0.00    -0.058 A 
ATOM     16  H10 B69 d          11.180  59.344  36.533  0.00  0.00     0.084 H 
ATOM     17  CAH B69 d          13.191  59.948  39.186  0.00  0.00    -0.076 A 
ATOM     18  CAL B69 d          13.981  58.806  39.126  0.00  0.00    -0.072 A 
ATOM     19  H12 B69 d          13.373  60.692  39.953  0.00  0.00     0.084 H 
ATOM     20  H13 B69 d          14.773  58.660  39.852  0.00  0.00     0.084 H 
BRANCH  15  21
ATOM     21  CAS B69 d          11.127  61.231  38.522  0.00  0.00    -0.041 C 
ATOM     22  H8  B69 d          10.746  61.098  39.544  0.00  0.00     0.040 H 
ATOM     23  H9  B69 d          11.634  62.204  38.443  0.00  0.00     0.040 H 
BRANCH  21  24
ATOM     24  CAQ B69 d           9.926  61.251  37.573  0.00  0.00    -0.062 C 
ATOM     25  H6  B69 d           9.813  62.253  37.136  0.00  0.00     0.033 H 
ATOM     26  H7  B69 d          10.073  60.514  36.769  0.00  0.00     0.033 H 
BRANCH  24  27
ATOM     27  CAP B69 d           8.677  60.894  38.385  0.00  0.00    -0.068 C 
ATOM     28  H4  B69 d           8.792  61.290  39.405  0.00  0.00     0.032 H 
ATOM     29  H5  B69 d           7.800  61.355  37.910  0.00  0.00     0.032 H 
BRANCH  27  30
ATOM     30  CAA B69 d           8.459  59.382  38.463  0.00  0.00    -0.077 C 
ATOM     31  H1  B69 d           9.398  58.891  38.761  0.00  0.00     0.027 H 
ATOM     32  H2  B69 d           8.145  59.006  37.479  0.00  0.00     0.027 H 
ATOM     33  H3  B69 d           7.679  59.162  39.207  0.00  0.00     0.027 H 
ENDBRANCH  27  30
ENDBRANCH  24  27
ENDBRANCH  21  24
ENDBRANCH  15  21
ENDBRANCH   1  11
BRANCH   6  34
ATOM     34  CAT B69 d          16.912  53.100  37.903  0.00  0.00    -0.041 C 
ATOM     35  H18 B69 d          16.375  52.339  38.489  0.00  0.00     0.040 H 
ATOM     36  H19 B69 d          17.910  53.259  38.335  0.00  0.00     0.040 H 
BRANCH  34  37
ATOM     37  CAR B69 d          17.067  52.600  36.465  0.00  0.00    -0.059 C 
ATOM     38  H20 B69 d          16.323  53.102  35.829  0.00  0.00     0.033 H 
ATOM     39  H21 B69 d          16.897  51.514  36.442  0.00  0.00     0.033 H 
BRANCH  37  40
ATOM     40  CAU B69 d          18.468  52.899  35.927  0.00  0.00    -0.034 C 
ATOM     41  H22 B69 d          18.576  53.988  35.817  0.00  0.00     0.036 H 
ATOM     42  H23 B69 d          18.575  52.419  34.943  0.00  0.00     0.036 H 
BRANCH  40  43
ATOM     43  CAZ B69 d          19.580  52.389  36.843  0.00  0.00     0.169 C 
ATOM     44  H24 B69 d          19.132  51.990  37.765  0.00  0.00     0.090 H 
BRANCH  43  45
ATOM     45  PBA B69 d          20.733  53.752  37.285  0.00  0.00     0.281 P 
ATOM     46  OAC B69 d          20.749  54.790  36.053  0.00  0.00    -0.639 OA
ATOM     47  OAD B69 d          20.060  54.518  38.530  0.00  0.00    -0.639 OA
ATOM     48  OAB B69 d          22.089  53.240  37.586  0.00  0.00    -0.639 OA
ENDBRANCH  43  45
BRANCH  43  49
ATOM     49  SBB B69 d          20.489  51.050  35.987  0.00  0.00     0.119 S 
ATOM     50  OAG B69 d          19.551  50.180  35.349  0.00  0.00    -0.594 OA
ATOM     51  OAF B69 d          21.297  50.280  36.987  0.00  0.00    -0.594 OA
ATOM     52  OAE B69 d          21.406  51.655  34.963  0.00  0.00    -0.594 OA
ENDBRANCH  43  49
ENDBRANCH  40  43
ENDBRANCH  37  40
ENDBRANCH  34  37
ENDBRANCH   6  34
TORSDOF 11
ENDMDL
MODEL 3
REMARK VINA RESULT:      -9.5      1.180      1.614
REMARK  11 active torsions:
REMARK  status: ('A' for Active; 'I' for Inactive)
REMARK    1  A    between atoms: CAA_1  and  CAP_2 
REMARK    2  A    between atoms: CAP_2  and  CAQ_3 
REMARK    3  A    between atoms: CAQ_3  and  CAS_4 
REMARK    4  A    between atoms: CAS_4  and  CAV_5 
REMARK    5  A    between atoms: CAX_10  and  CAY_11 
REMARK    6  A    between atoms: CAW_16  and  CAT_17 
REMARK    7  A    between atoms: CAT_17  and  CAR_18 
REMARK    8  A    between atoms: CAR_18  and  CAU_19 
REMARK    9  A    between atoms: CAU_19  and  CAZ_20 
REMARK   10  A    between atoms: CAZ_20  and  PBA_21 
REMARK   11  A    between atoms: CAZ_20  and  SBB_25 
ROOT
ATOM      1  CAY B69 d          15.059  56.009  37.910  0.00  0.00    -0.026 A 
ATOM      2  CAO B69 d          15.186  55.529  36.610  0.00  0.00    -0.072 A 
ATOM      3  CAK B69 d          15.762  54.282  36.386  0.00  0.00    -0.076 A 
ATOM      4  CAN B69 d          15.527  55.249  38.974  0.00  0.00    -0.072 A 
ATOM      5  CAJ B69 d          16.101  54.002  38.750  0.00  0.00    -0.076 A 
ATOM      6  CAW B69 d          16.214  53.514  37.452  0.00  0.00    -0.058 A 
ATOM      7  H14 B69 d          14.837  56.125  35.774  0.00  0.00     0.084 H 
ATOM      8  H15 B69 d          15.859  53.907  35.373  0.00  0.00     0.084 H 
ATOM      9  H16 B69 d          15.445  55.631  39.985  0.00  0.00     0.084 H 
ATOM     10  H17 B69 d          16.459  53.411  39.585  0.00  0.00     0.084 H 
ENDROOT
BRANCH   1  11
ATOM     11  CAX B69 d          14.362  57.189  38.148  0.00  0.00    -0.026 A 
ATOM     12  CAM B69 d          13.309  57.585  37.329  0.00  0.00    -0.072 A 
ATOM     13  CAI B69 d          12.687  58.811  37.539  0.00  0.00    -0.076 A 
ATOM     14  H11 B69 d          12.975  56.938  36.527  0.00  0.00     0.084 H 
ATOM     15  CAV B69 d          13.101  59.644  38.574  0.00  0.00    -0.058 A 
ATOM     16  H10 B69 d          11.874  59.119  36.891  0.00  0.00     0.084 H 
ATOM     17  CAH B69 d          14.162  59.254  39.381  0.00  0.00    -0.076 A 
ATOM     18  CAL B69 d          14.786  58.030  39.171  0.00  0.00    -0.072 A 
ATOM     19  H12 B69 d          14.504  59.906  40.176  0.00  0.00     0.084 H 
ATOM     20  H13 B69 d          15.609  57.729  39.809  0.00  0.00     0.084 H 
BRANCH  15  21
ATOM     21  CAS B69 d          12.237  60.835  38.999  0.00  0.00    -0.041 C 
ATOM     22  H8  B69 d          12.695  61.278  39.896  0.00  0.00     0.040 H 
ATOM     23  H9  B69 d          12.250  61.569  38.180  0.00  0.00     0.040 H 
BRANCH  21  24
ATOM     24  CAQ B69 d          10.775  60.522  39.326  0.00  0.00    -0.062 C 
ATOM     25  H6  B69 d          10.524  59.509  38.981  0.00  0.00     0.033 H 
ATOM     26  H7  B69 d          10.613  60.591  40.412  0.00  0.00     0.033 H 
BRANCH  24  27
ATOM     27  CAP B69 d           9.900  61.550  38.602  0.00  0.00    -0.068 C 
ATOM     28  H4  B69 d           8.863  61.445  38.956  0.00  0.00     0.032 H 
ATOM     29  H5  B69 d          10.267  62.559  38.840  0.00  0.00     0.032 H 
BRANCH  27  30
ATOM     30  CAA B69 d           9.928  61.358  37.086  0.00  0.00    -0.077 C 
ATOM     31  H1  B69 d           8.947  60.994  36.744  0.00  0.00     0.027 H 
ATOM     32  H2  B69 d          10.704  60.624  36.823  0.00  0.00     0.027 H 
ATOM     33  H3  B69 d          10.152  62.319  36.598  0.00  0.00     0.027 H 
ENDBRANCH  27  30
ENDBRANCH  24  27
ENDBRANCH  21  24
ENDBRANCH  15  21
ENDBRANCH   1  11
BRANCH   6  34
ATOM     34  CAT B69 d          16.800  52.123  37.189  0.00  0.00    -0.041 C 
ATOM     35  H18 B69 d          16.012  51.475  36.778  0.00  0.00     0.040 H 
ATOM     36  H19 B69 d          17.163  51.703  38.138  0.00  0.00     0.040 H 
BRANCH  34  37
ATOM     37  CAR B69 d          17.961  52.183  36.195  0.00  0.00    -0.059 C 
ATOM     38  H20 B69 d          18.059  53.212  35.818  0.00  0.00     0.033 H 
ATOM     39  H21 B69 d          17.752  51.503  35.356  0.00  0.00     0.033 H 
BRANCH  37  40
ATOM     40  CAU B69 d          19.276  51.768  36.859  0.00  0.00    -0.034 C 
ATOM     41  H22 B69 d          19.417  50.688  36.712  0.00  0.00     0.036 H 
ATOM     42  H23 B69 d          19.210  51.987  37.935  0.00  0.00     0.036 H 
BRANCH  40  43
ATOM     43  CAZ B69 d          20.490  52.500  36.286  0.00  0.00     0.169 C 
ATOM     44  H24 B69 d          20.288  52.767  35.238  0.00  0.00     0.090 H 
BRANCH  43  45
ATOM     45  PBA B69 d          21.983  51.427  36.347  0.00  0.00     0.281 P 
ATOM     46  OAC B69 d          21.621  50.148  37.257  0.00  0.00    -0.639 OA
ATOM     47  OAD B69 d          22.204  50.885  34.849  0.00  0.00    -0.639 OA
ATOM     48  OAB B69 d          23.156  52.159  36.876  0.00  0.00    -0.639 OA
ENDBRANCH  43  45
BRANCH  43  49
ATOM     49  SBB B69 d          20.774  54.029  37.252  0.00  0.00     0.119 S 
ATOM     50  OAG B69 d          20.810  55.147  36.362  0.00  0.00    -0.594 OA
ATOM     51  OAF B69 d          22.080  53.920  37.981  0.00  0.00    -0.594 OA
ATOM     52  OAE B69 d          19.660  54.198  38.244  0.00  0.00    -0.594 OA
ENDBRANCH  43  49
ENDBRANCH  40  43
ENDBRANCH  37  40
ENDBRANCH  34  37
ENDBRANCH   6  34
TORSDOF 11
ENDMDL
MODEL 4
REMARK VINA RESULT:      -8.6      1.954      2.764
REMARK  11 active torsions:
REMARK  status: ('A' for Active; 'I' for Inactive)
REMARK    1  A    between atoms: CAA_1  and  CAP_2 
REMARK    2  A    between atoms: CAP_2  and  CAQ_3 
REMARK    3  A    between atoms: CAQ_3  and  CAS_4 
REMARK    4  A    between atoms: CAS_4  and  CAV_5 
REMARK    5  A    between atoms: CAX_10  and  CAY_11 
REMARK    6  A    between atoms: CAW_16  and  CAT_17 
REMARK    7  A    between atoms: CAT_17  and  CAR_18 
REMARK    8  A    between atoms: CAR_18  and  CAU_19 
REMARK    9  A    between atoms: CAU_19  and  CAZ_20 
REMARK   10  A    between atoms: CAZ_20  and  PBA_21 
REMARK   11  A    between atoms: CAZ_20  and  SBB_25 
ROOT
ATOM      1  CAY B69 d          16.074  55.504  37.682  0.00  0.00    -0.026 A 
ATOM      2  CAO B69 d          17.208  55.939  37.003  0.00  0.00    -0.072 A 
ATOM      3  CAK B69 d          18.166  55.017  36.592  0.00  0.00    -0.076 A 
ATOM      4  CAN B69 d          15.915  54.152  37.963  0.00  0.00    -0.072 A 
ATOM      5  CAJ B69 d          16.872  53.231  37.550  0.00  0.00    -0.076 A 
ATOM      6  CAW B69 d          17.998  53.663  36.858  0.00  0.00    -0.058 A 
ATOM      7  H14 B69 d          17.345  56.995  36.795  0.00  0.00     0.084 H 
ATOM      8  H15 B69 d          19.049  55.357  36.062  0.00  0.00     0.084 H 
ATOM      9  H16 B69 d          15.041  53.815  38.507  0.00  0.00     0.084 H 
ATOM     10  H17 B69 d          16.740  52.177  37.768  0.00  0.00     0.084 H 
ENDROOT
BRANCH   1  11
ATOM     11  CAX B69 d          15.052  56.401  37.971  0.00  0.00    -0.026 A 
ATOM     12  CAM B69 d          14.016  56.633  37.071  0.00  0.00    -0.072 A 
ATOM     13  CAI B69 d          13.055  57.598  37.348  0.00  0.00    -0.076 A 
ATOM     14  H11 B69 d          13.959  56.060  36.153  0.00  0.00     0.084 H 
ATOM     15  CAV B69 d          13.112  58.331  38.530  0.00  0.00    -0.058 A 
ATOM     16  H10 B69 d          12.256  57.782  36.639  0.00  0.00     0.084 H 
ATOM     17  CAH B69 d          14.154  58.109  39.421  0.00  0.00    -0.076 A 
ATOM     18  CAL B69 d          15.117  57.146  39.144  0.00  0.00    -0.072 A 
ATOM     19  H12 B69 d          14.218  58.690  40.334  0.00  0.00     0.084 H 
ATOM     20  H13 B69 d          15.925  56.973  39.846  0.00  0.00     0.084 H 
BRANCH  15  21
ATOM     21  CAS B69 d          11.909  59.164  38.982  0.00  0.00    -0.041 C 
ATOM     22  H8  B69 d          11.034  58.500  39.016  0.00  0.00     0.040 H 
ATOM     23  H9  B69 d          12.123  59.542  39.992  0.00  0.00     0.040 H 
BRANCH  21  24
ATOM     24  CAQ B69 d          11.553  60.363  38.099  0.00  0.00    -0.062 C 
ATOM     25  H6  B69 d          11.418  61.259  38.723  0.00  0.00     0.033 H 
ATOM     26  H7  B69 d          12.358  60.541  37.370  0.00  0.00     0.033 H 
BRANCH  24  27
ATOM     27  CAP B69 d          10.248  60.038  37.366  0.00  0.00    -0.068 C 
ATOM     28  H4  B69 d           9.830  60.969  36.956  0.00  0.00     0.032 H 
ATOM     29  H5  B69 d          10.466  59.341  36.544  0.00  0.00     0.032 H 
BRANCH  27  30
ATOM     30  CAA B69 d           9.215  59.399  38.295  0.00  0.00    -0.077 C 
ATOM     31  H1  B69 d           8.204  59.578  37.897  0.00  0.00     0.027 H 
ATOM     32  H2  B69 d           9.298  59.843  39.298  0.00  0.00     0.027 H 
ATOM     33  H3  B69 d           9.397  58.316  38.357  0.00  0.00     0.027 H 
ENDBRANCH  27  30
ENDBRANCH  24  27
ENDBRANCH  21  24
ENDBRANCH  15  21
ENDBRANCH   1  11
BRANCH   6  34
ATOM     34  CAT B69 d          19.040  52.659  36.354  0.00  0.00    -0.041 C 
ATOM     35  H18 B69 d          19.000  52.622  35.256  0.00  0.00     0.040 H 
ATOM     36  H19 B69 d          18.805  51.665  36.763  0.00  0.00     0.040 H 
BRANCH  34  37
ATOM     37  CAR B69 d          20.453  53.052  36.788  0.00  0.00    -0.059 C 
ATOM     38  H20 B69 d          20.393  53.659  37.703  0.00  0.00     0.033 H 
ATOM     39  H21 B69 d          20.923  53.641  35.987  0.00  0.00     0.033 H 
BRANCH  37  40
ATOM     40  CAU B69 d          21.309  51.814  37.066  0.00  0.00    -0.034 C 
ATOM     41  H22 B69 d          20.722  50.919  36.813  0.00  0.00     0.036 H 
ATOM     42  H23 B69 d          21.563  51.796  38.136  0.00  0.00     0.036 H 
BRANCH  40  43
ATOM     43  CAZ B69 d          22.605  51.791  36.256  0.00  0.00     0.169 C 
ATOM     44  H24 B69 d          22.671  52.711  35.656  0.00  0.00     0.090 H 
BRANCH  43  45
ATOM     45  PBA B69 d          22.639  50.340  35.126  0.00  0.00     0.281 P 
ATOM     46  OAC B69 d          22.517  49.016  36.035  0.00  0.00    -0.639 OA
ATOM     47  OAD B69 d          21.294  50.429  34.248  0.00  0.00    -0.639 OA
ATOM     48  OAB B69 d          23.868  50.324  34.300  0.00  0.00    -0.639 OA
ENDBRANCH  43  45
BRANCH  43  49
ATOM     49  SBB B69 d          24.026  51.723  37.409  0.00  0.00     0.119 S 
ATOM     50  OAG B69 d          25.242  51.793  36.660  0.00  0.00    -0.594 OA
ATOM     51  OAF B69 d          23.979  50.437  38.179  0.00  0.00    -0.594 OA
ATOM     52  OAE B69 d          23.942  52.880  38.362  0.00  0.00    -0.594 OA
ENDBRANCH  43  49
ENDBRANCH  40  43
ENDBRANCH  37  40
ENDBRANCH  34  37
ENDBRANCH   6  34
TORSDOF 11
ENDMDL
MODEL 5
REMARK VINA RESULT:      -7.4      1.365      2.548
REMARK  11 active torsions:
REMARK  status: ('A' for Active; 'I' for Inactive)
REMARK    1  A    between atoms: CAA_1  and  CAP_2 
REMARK    2  A    between atoms: CAP_2  and  CAQ_3 
REMARK    3  A    between atoms: CAQ_3  and  CAS_4 
REMARK    4  A    between atoms: CAS_4  and  CAV_5 
REMARK    5  A    between atoms: CAX_10  and  CAY_11 
REMARK    6  A    between atoms: CAW_16  and  CAT_17 
REMARK    7  A    between atoms: CAT_17  and  CAR_18 
REMARK    8  A    between atoms: CAR_18  and  CAU_19 
REMARK    9  A    between atoms: CAU_19  and  CAZ_20 
REMARK   10  A    between atoms: CAZ_20  and  PBA_21 
REMARK   11  A    between atoms: CAZ_20  and  SBB_25 
ROOT
ATOM      1  CAY B69 d          14.920  56.313  38.054  0.00  0.00    -0.026 A 
ATOM      2  CAO B69 d          15.002  55.772  36.774  0.00  0.00    -0.072 A 
ATOM      3  CAK B69 d          15.537  54.499  36.594  0.00  0.00    -0.076 A 
ATOM      4  CAN B69 d          15.392  55.587  39.141  0.00  0.00    -0.072 A 
ATOM      5  CAJ B69 d          15.924  54.315  38.960  0.00  0.00    -0.076 A 
ATOM      6  CAW B69 d          15.992  53.767  37.683  0.00  0.00    -0.058 A 
ATOM      7  H14 B69 d          14.650  56.340  35.921  0.00  0.00     0.084 H 
ATOM      8  H15 B69 d          15.599  54.078  35.597  0.00  0.00     0.084 H 
ATOM      9  H16 B69 d          15.344  56.015  40.135  0.00  0.00     0.084 H 
ATOM     10  H17 B69 d          16.285  53.751  39.812  0.00  0.00     0.084 H 
ENDROOT
BRANCH   1  11
ATOM     11  CAX B69 d          14.262  57.522  38.255  0.00  0.00    -0.026 A 
ATOM     12  CAM B69 d          14.697  58.431  39.214  0.00  0.00    -0.072 A 
ATOM     13  CAI B69 d          13.970  59.592  39.454  0.00  0.00    -0.076 A 
ATOM     14  H11 B69 d          15.603  58.234  39.774  0.00  0.00     0.084 H 
ATOM     15  CAV B69 d          12.812  59.860  38.731  0.00  0.00    -0.058 A 
ATOM     16  H10 B69 d          14.308  60.292  40.208  0.00  0.00     0.084 H 
ATOM     17  CAH B69 d          12.370  58.944  37.785  0.00  0.00    -0.076 A 
ATOM     18  CAL B69 d          13.095  57.783  37.546  0.00  0.00    -0.072 A 
ATOM     19  H12 B69 d          11.457  59.135  37.232  0.00  0.00     0.084 H 
ATOM     20  H13 B69 d          12.748  57.075  36.801  0.00  0.00     0.084 H 
BRANCH  15  21
ATOM     21  CAS B69 d          12.184  61.256  38.768  0.00  0.00    -0.041 C 
ATOM     22  H8  B69 d          12.844  61.907  39.359  0.00  0.00     0.040 H 
ATOM     23  H9  B69 d          12.131  61.629  37.735  0.00  0.00     0.040 H 
BRANCH  21  24
ATOM     24  CAQ B69 d          10.779  61.345  39.369  0.00  0.00    -0.062 C 
ATOM     25  H6  B69 d          10.534  60.405  39.885  0.00  0.00     0.033 H 
ATOM     26  H7  B69 d          10.731  62.180  40.084  0.00  0.00     0.033 H 
BRANCH  24  27
ATOM     27  CAP B69 d           9.790  61.583  38.224  0.00  0.00    -0.068 C 
ATOM     28  H4  B69 d           9.346  62.583  38.340  0.00  0.00     0.032 H 
ATOM     29  H5  B69 d          10.332  61.533  37.269  0.00  0.00     0.032 H 
BRANCH  27  30
ATOM     30  CAA B69 d           8.669  60.543  38.211  0.00  0.00    -0.077 C 
ATOM     31  H1  B69 d           7.827  60.904  38.822  0.00  0.00     0.027 H 
ATOM     32  H2  B69 d           9.043  59.595  38.626  0.00  0.00     0.027 H 
ATOM     33  H3  B69 d           8.329  60.383  37.177  0.00  0.00     0.027 H 
ENDBRANCH  27  30
ENDBRANCH  24  27
ENDBRANCH  21  24
ENDBRANCH  15  21
ENDBRANCH   1  11
BRANCH   6  34
ATOM     34  CAT B69 d          16.532  52.349  37.469  0.00  0.00    -0.041 C 
ATOM     35  H18 B69 d          16.557  52.135  36.390  0.00  0.00     0.040 H 
ATOM     36  H19 B69 d          15.864  51.633  37.970  0.00  0.00     0.040 H 
BRANCH  34  37
ATOM     37  CAR B69 d          17.943  52.194  38.039  0.00  0.00    -0.059 C 
ATOM     38  H20 B69 d          18.561  51.635  37.321  0.00  0.00     0.033 H 
ATOM     39  H21 B69 d          17.888  51.639  38.987  0.00  0.00     0.033 H 
BRANCH  37  40
ATOM     40  CAU B69 d          18.586  53.558  38.294  0.00  0.00    -0.034 C 
ATOM     41  H22 B69 d          18.940  53.590  39.335  0.00  0.00     0.036 H 
ATOM     42  H23 B69 d          17.826  54.339  38.141  0.00  0.00     0.036 H 
BRANCH  40  43
ATOM     43  CAZ B69 d          19.770  53.842  37.369  0.00  0.00     0.169 C 
ATOM     44  H24 B69 d          20.626  54.179  37.973  0.00  0.00     0.090 H 
BRANCH  43  45
ATOM     45  PBA B69 d          19.344  55.158  36.157  0.00  0.00     0.281 P 
ATOM     46  OAC B69 d          18.366  54.504  35.057  0.00  0.00    -0.639 OA
ATOM     47  OAD B69 d          18.476  56.245  36.965  0.00  0.00    -0.639 OA
ATOM     48  OAB B69 d          20.557  55.736  35.534  0.00  0.00    -0.639 OA
ENDBRANCH  43  45
BRANCH  43  49
ATOM     49  SBB B69 d          20.222  52.301  36.491  0.00  0.00     0.119 S 
ATOM     50  OAG B69 d          21.255  52.586  35.544  0.00  0.00    -0.594 OA
ATOM     51  OAF B69 d          19.018  51.763  35.780  0.00  0.00    -0.594 OA
ATOM     52  OAE B69 d          20.707  51.290  37.490  0.00  0.00    -0.594 OA
ENDBRANCH  43  49
ENDBRANCH  40  43
ENDBRANCH  37  40
ENDBRANCH  34  37
ENDBRANCH   6  34
TORSDOF 11
ENDMDL
MODEL 6
REMARK VINA RESULT:      -7.3      2.235      3.144
REMARK  11 active torsions:
REMARK  status: ('A' for Active; 'I' for Inactive)
REMARK    1  A    between atoms: CAA_1  and  CAP_2 
REMARK    2  A    between atoms: CAP_2  and  CAQ_3 
REMARK    3  A    between atoms: CAQ_3  and  CAS_4 
REMARK    4  A    between atoms: CAS_4  and  CAV_5 
REMARK    5  A    between atoms: CAX_10  and  CAY_11 
REMARK    6  A    between atoms: CAW_16  and  CAT_17 
REMARK    7  A    between atoms: CAT_17  and  CAR_18 
REMARK    8  A    between atoms: CAR_18  and  CAU_19 
REMARK    9  A    between atoms: CAU_19  and  CAZ_20 
REMARK   10  A    between atoms: CAZ_20  and  PBA_21 
REMARK   11  A    between atoms: CAZ_20  and  SBB_25 
ROOT
ATOM      1  CAY B69 d          15.420  56.657  38.084  0.00  0.00    -0.026 A 
ATOM      2  CAO B69 d          16.120  56.827  36.893  0.00  0.00    -0.072 A 
ATOM      3  CAK B69 d          17.278  56.091  36.658  0.00  0.00    -0.076 A 
ATOM      4  CAN B69 d          15.894  55.767  39.040  0.00  0.00    -0.072 A 
ATOM      5  CAJ B69 d          17.050  55.030  38.804  0.00  0.00    -0.076 A 
ATOM      6  CAW B69 d          17.741  55.188  37.608  0.00  0.00    -0.058 A 
ATOM      7  H14 B69 d          15.764  57.532  36.150  0.00  0.00     0.084 H 
ATOM      8  H15 B69 d          17.821  56.223  35.730  0.00  0.00     0.084 H 
ATOM      9  H16 B69 d          15.359  55.647  39.975  0.00  0.00     0.084 H 
ATOM     10  H17 B69 d          17.411  54.333  39.552  0.00  0.00     0.084 H 
ENDROOT
BRANCH   1  11
ATOM     11  CAX B69 d          14.193  57.285  38.263  0.00  0.00    -0.026 A 
ATOM     12  CAM B69 d          13.130  57.057  37.395  0.00  0.00    -0.072 A 
ATOM     13  CAI B69 d          11.942  57.765  37.547  0.00  0.00    -0.076 A 
ATOM     14  H11 B69 d          13.227  56.328  36.600  0.00  0.00     0.084 H 
ATOM     15  CAV B69 d          11.802  58.695  38.572  0.00  0.00    -0.058 A 
ATOM     16  H10 B69 d          11.121  57.590  36.862  0.00  0.00     0.084 H 
ATOM     17  CAH B69 d          12.869  58.933  39.429  0.00  0.00    -0.076 A 
ATOM     18  CAL B69 d          14.057  58.227  39.277  0.00  0.00    -0.072 A 
ATOM     19  H12 B69 d          12.776  59.670  40.217  0.00  0.00     0.084 H 
ATOM     20  H13 B69 d          14.884  58.413  39.953  0.00  0.00     0.084 H 
BRANCH  15  21
ATOM     21  CAS B69 d          10.419  59.245  38.932  0.00  0.00    -0.041 C 
ATOM     22  H8  B69 d           9.894  58.478  39.520  0.00  0.00     0.040 H 
ATOM     23  H9  B69 d          10.565  60.144  39.549  0.00  0.00     0.040 H 
BRANCH  21  24
ATOM     24  CAQ B69 d           9.520  59.628  37.754  0.00  0.00    -0.062 C 
ATOM     25  H6  B69 d          10.010  59.357  36.808  0.00  0.00     0.033 H 
ATOM     26  H7  B69 d           8.558  59.101  37.833  0.00  0.00     0.033 H 
BRANCH  24  27
ATOM     27  CAP B69 d           9.292  61.142  37.807  0.00  0.00    -0.068 C 
ATOM     28  H4  B69 d           9.322  61.541  36.782  0.00  0.00     0.032 H 
ATOM     29  H5  B69 d           8.303  61.337  38.247  0.00  0.00     0.032 H 
BRANCH  27  30
ATOM     30  CAA B69 d          10.355  61.852  38.645  0.00  0.00    -0.077 C 
ATOM     31  H1  B69 d          11.121  61.126  38.957  0.00  0.00     0.027 H 
ATOM     32  H2  B69 d           9.885  62.294  39.536  0.00  0.00     0.027 H 
ATOM     33  H3  B69 d          10.825  62.646  38.047  0.00  0.00     0.027 H 
ENDBRANCH  27  30
ENDBRANCH  24  27
ENDBRANCH  21  24
ENDBRANCH  15  21
ENDBRANCH   1  11
BRANCH   6  34
ATOM     34  CAT B69 d          18.990  54.351  37.310  0.00  0.00    -0.041 C 
ATOM     35  H18 B69 d          19.355  53.907  38.248  0.00  0.00     0.040 H 
ATOM     36  H19 B69 d          19.765  55.006  36.886  0.00  0.00     0.040 H 
BRANCH  34  37
ATOM     37  CAR B69 d          18.688  53.230  36.314  0.00  0.00    -0.059 C 
ATOM     38  H20 B69 d          19.186  52.308  36.650  0.00  0.00     0.033 H 
ATOM     39  H21 B69 d          19.074  53.515  35.324  0.00  0.00     0.033 H 
BRANCH  37  40
ATOM     40  CAU B69 d          17.183  52.975  36.210  0.00  0.00    -0.034 C 
ATOM     41  H22 B69 d          16.860  53.197  35.182  0.00  0.00     0.036 H 
ATOM     42  H23 B69 d          16.664  53.647  36.910  0.00  0.00     0.036 H 
BRANCH  40  43
ATOM     43  CAZ B69 d          16.798  51.533  36.541  0.00  0.00     0.169 C 
ATOM     44  H24 B69 d          15.810  51.317  36.108  0.00  0.00     0.090 H 
BRANCH  43  45
ATOM     45  PBA B69 d          16.714  51.286  38.362  0.00  0.00     0.281 P 
ATOM     46  OAC B69 d          15.465  52.143  38.909  0.00  0.00    -0.639 OA
ATOM     47  OAD B69 d          16.349  49.735  38.585  0.00  0.00    -0.639 OA
ATOM     48  OAB B69 d          17.979  51.683  39.022  0.00  0.00    -0.639 OA
ENDBRANCH  43  45
BRANCH  43  49
ATOM     49  SBB B69 d          18.037  50.402  35.810  0.00  0.00     0.119 S 
ATOM     50  OAG B69 d          17.562  49.058  35.909  0.00  0.00    -0.594 OA
ATOM     51  OAF B69 d          19.332  50.538  36.552  0.00  0.00    -0.594 OA
ATOM     52  OAE B69 d          18.246  50.768  34.368  0.00  0.00    -0.594 OA
ENDBRANCH  43  49
ENDBRANCH  40  43
ENDBRANCH  37  40
ENDBRANCH  34  37
ENDBRANCH   6  34
TORSDOF 11
ENDMDL
MODEL 7
REMARK VINA RESULT:      -7.1      5.772     10.490
REMARK  11 active torsions:
REMARK  status: ('A' for Active; 'I' for Inactive)
REMARK    1  A    between atoms: CAA_1  and  CAP_2 
REMARK    2  A    between atoms: CAP_2  and  CAQ_3 
REMARK    3  A    between atoms: CAQ_3  and  CAS_4 
REMARK    4  A    between atoms: CAS_4  and  CAV_5 
REMARK    5  A    between atoms: CAX_10  and  CAY_11 
REMARK    6  A    between atoms: CAW_16  and  CAT_17 
REMARK    7  A    between atoms: CAT_17  and  CAR_18 
REMARK    8  A    between atoms: CAR_18  and  CAU_19 
REMARK    9  A    between atoms: CAU_19  and  CAZ_20 
REMARK   10  A    between atoms: CAZ_20  and  PBA_21 
REMARK   11  A    between atoms: CAZ_20  and  SBB_25 
ROOT
ATOM      1  CAY B69 d          17.598  53.975  37.441  0.00  0.00    -0.026 A 
ATOM      2  CAO B69 d          17.431  55.319  37.121  0.00  0.00    -0.072 A 
ATOM      3  CAK B69 d          16.506  56.088  37.822  0.00  0.00    -0.076 A 
ATOM      4  CAN B69 d          16.824  53.404  38.444  0.00  0.00    -0.072 A 
ATOM      5  CAJ B69 d          15.901  54.174  39.145  0.00  0.00    -0.076 A 
ATOM      6  CAW B69 d          15.745  55.521  38.837  0.00  0.00    -0.058 A 
ATOM      7  H14 B69 d          18.020  55.766  36.328  0.00  0.00     0.084 H 
ATOM      8  H15 B69 d          16.378  57.136  37.573  0.00  0.00     0.084 H 
ATOM      9  H16 B69 d          16.941  52.353  38.681  0.00  0.00     0.084 H 
ATOM     10  H17 B69 d          15.304  53.724  39.931  0.00  0.00     0.084 H 
ENDROOT
BRANCH   1  11
ATOM     11  CAX B69 d          18.614  53.240  36.841  0.00  0.00    -0.026 A 
ATOM     12  CAM B69 d          18.423  51.915  36.463  0.00  0.00    -0.072 A 
ATOM     13  CAI B69 d          19.482  51.178  35.944  0.00  0.00    -0.076 A 
ATOM     14  H11 B69 d          17.447  51.457  36.572  0.00  0.00     0.084 H 
ATOM     15  CAV B69 d          20.736  51.761  35.788  0.00  0.00    -0.058 A 
ATOM     16  H10 B69 d          19.330  50.144  35.661  0.00  0.00     0.084 H 
ATOM     17  CAH B69 d          20.930  53.079  36.180  0.00  0.00    -0.076 A 
ATOM     18  CAL B69 d          19.872  53.816  36.700  0.00  0.00    -0.072 A 
ATOM     19  H12 B69 d          21.909  53.534  36.081  0.00  0.00     0.084 H 
ATOM     20  H13 B69 d          20.029  54.847  36.998  0.00  0.00     0.084 H 
BRANCH  15  21
ATOM     21  CAS B69 d          21.811  51.067  34.948  0.00  0.00    -0.041 C 
ATOM     22  H8  B69 d          21.374  50.836  33.966  0.00  0.00     0.040 H 
ATOM     23  H9  B69 d          22.646  51.771  34.820  0.00  0.00     0.040 H 
BRANCH  21  24
ATOM     24  CAQ B69 d          22.380  49.768  35.523  0.00  0.00    -0.062 C 
ATOM     25  H6  B69 d          21.575  49.026  35.637  0.00  0.00     0.033 H 
ATOM     26  H7  B69 d          23.154  49.369  34.851  0.00  0.00     0.033 H 
BRANCH  24  27
ATOM     27  CAP B69 d          22.991  50.085  36.892  0.00  0.00    -0.068 C 
ATOM     28  H4  B69 d          22.224  50.558  37.522  0.00  0.00     0.032 H 
ATOM     29  H5  B69 d          23.321  49.147  37.360  0.00  0.00     0.032 H 
BRANCH  27  30
ATOM     30  CAA B69 d          24.189  51.029  36.778  0.00  0.00    -0.077 C 
ATOM     31  H1  B69 d          23.875  52.052  37.032  0.00  0.00     0.027 H 
ATOM     32  H2  B69 d          24.574  51.009  35.747  0.00  0.00     0.027 H 
ATOM     33  H3  B69 d          24.979  50.705  37.471  0.00  0.00     0.027 H 
ENDBRANCH  27  30
ENDBRANCH  24  27
ENDBRANCH  21  24
ENDBRANCH  15  21
ENDBRANCH   1  11
BRANCH   6  34
ATOM     34  CAT B69 d          14.768  56.396  39.629  0.00  0.00    -0.041 C 
ATOM     35  H18 B69 d          14.954  56.258  40.704  0.00  0.00     0.040 H 
ATOM     36  H19 B69 d          13.739  56.087  39.392  0.00  0.00     0.040 H 
BRANCH  34  37
ATOM     37  CAR B69 d          14.934  57.876  39.282  0.00  0.00    -0.059 C 
ATOM     38  H20 B69 d          15.205  57.969  38.220  0.00  0.00     0.033 H 
ATOM     39  H21 B69 d          15.735  58.303  39.904  0.00  0.00     0.033 H 
BRANCH  37  40
ATOM     40  CAU B69 d          13.638  58.650  39.536  0.00  0.00    -0.034 C 
ATOM     41  H22 B69 d          13.834  59.424  40.292  0.00  0.00     0.036 H 
ATOM     42  H23 B69 d          12.879  57.949  39.916  0.00  0.00     0.036 H 
BRANCH  40  43
ATOM     43  CAZ B69 d          13.090  59.325  38.278  0.00  0.00     0.169 C 
ATOM     44  H24 B69 d          13.876  59.957  37.839  0.00  0.00     0.090 H 
BRANCH  43  45
ATOM     45  PBA B69 d          11.639  60.378  38.686  0.00  0.00     0.281 P 
ATOM     46  OAC B69 d          10.736  59.567  39.746  0.00  0.00    -0.639 OA
ATOM     47  OAD B69 d          12.224  61.662  39.459  0.00  0.00    -0.639 OA
ATOM     48  OAB B69 d          10.868  60.734  37.473  0.00  0.00    -0.639 OA
ENDBRANCH  43  45
BRANCH  43  49
ATOM     49  SBB B69 d          12.612  58.035  37.071  0.00  0.00     0.119 S 
ATOM     50  OAG B69 d          11.785  58.620  36.062  0.00  0.00    -0.594 OA
ATOM     51  OAF B69 d          11.857  56.949  37.777  0.00  0.00    -0.594 OA
ATOM     52  OAE B69 d          13.851  57.459  36.448  0.00  0.00    -0.594 OA
ENDBRANCH  43  49
ENDBRANCH  40  43
ENDBRANCH  37  40
ENDBRANCH  34  37
ENDBRANCH   6  34
TORSDOF 11
ENDMDL
