MODEL 1
REMARK VINA RESULT:      -5.7      0.000      0.000
REMARK  19 active torsions:
REMARK  status: ('A' for Active; 'I' for Inactive)
REMARK    1  A    between atoms: C2_4  and  C1_2 
REMARK    2  A    between atoms: O2_17  and  C2_4 
REMARK    3  A    between atoms: C6_6  and  C7_7 
REMARK    4  A    between atoms: C7_7  and  C8_8 
REMARK    5  A    between atoms: C7_7  and  O7_10 
REMARK    6  A    between atoms: C8_8  and  O8_9 
REMARK    7  A    between atoms: C5_11  and  O5_12 
REMARK    8  A    between atoms: C4_13  and  O4_14 
REMARK    9  A    between atoms: C3_15  and  O3_16 
REMARK   10  A    between atoms: C4_23  and  O2_17 
REMARK   11  A    between atoms: C2_21  and  C1_18 
REMARK   12  A    between atoms: C2_21  and  O2_32 
REMARK   13  A    between atoms: C5_24  and  O5_25 
REMARK   14  A    between atoms: C6_26  and  C7_28 
REMARK   15  A    between atoms: C7_28  and  O7_29 
REMARK   16  A    between atoms: C7_28  and  C8_30 
REMARK   17  A    between atoms: C8_30  and  O8_31 
REMARK   18  A    between atoms: O2_32  and  C9_33 
REMARK   19  A    between atoms: C9_33  and  C10_34 
ROOT
ATOM      1  C2  KO1 d          -8.639   1.604  70.874  0.00  0.00     0.259 C 
ATOM      2  C3  KO1 d          -8.455   2.000  69.376  0.00  0.00     0.024 C 
ATOM      3  C4  KO1 d          -7.840   0.909  68.463  0.00  0.00     0.075 C 
ATOM      4  C5  KO1 d          -6.564   0.219  69.012  0.00  0.00     0.088 C 
ATOM      5  C6  KO1 d          -6.883  -0.281  70.455  0.00  0.00     0.096 C 
ATOM      6  O6  KO1 d          -7.503   0.787  71.283  0.00  0.00    -0.336 OA
ATOM      7  H13 KO1 d          -7.800   2.883  69.337  0.00  0.00     0.045 H 
ATOM      8  H14 KO1 d          -9.445   2.261  68.971  0.00  0.00     0.045 H 
ATOM      9  H15 KO1 d          -8.616   0.143  68.320  0.00  0.00     0.087 H 
ATOM     10  H16 KO1 d          -6.344  -0.659  68.387  0.00  0.00     0.091 H 
ATOM     11  H18 KO1 d          -7.642  -1.071  70.350  0.00  0.00     0.091 H 
ENDROOT
BRANCH   3  12
ATOM     12  O2  KO1 d          -7.424   1.415  67.155  0.00  0.00    -0.336 OA
BRANCH  12  13
ATOM     13  C2  KO1 d          -8.433   1.715  66.128  0.00  0.00     0.286 C 
ATOM     14  O6  KO1 d          -9.048   3.107  66.456  0.00  0.00    -0.334 OA
ATOM     15  C6  KO1 d          -7.940   4.119  66.629  0.00  0.00     0.096 C 
ATOM     16  C5  KO1 d          -7.226   4.306  65.288  0.00  0.00     0.090 C 
ATOM     17  H1  KO1 d          -7.202   3.771  67.367  0.00  0.00     0.091 H 
ATOM     18  C4  KO1 d          -6.597   2.951  64.865  0.00  0.00     0.093 C 
ATOM     19  H7  KO1 d          -6.439   5.068  65.388  0.00  0.00     0.091 H 
ATOM     20  C3  KO1 d          -7.617   1.773  64.796  0.00  0.00     0.127 C 
ATOM     21  H9  KO1 d          -5.829   2.687  65.607  0.00  0.00     0.091 H 
ATOM     22  H11 KO1 d          -7.068   0.836  64.623  0.00  0.00     0.096 H 
BRANCH  13  23
ATOM     23  C1  KO1 d          -9.606   0.723  65.962  0.00  0.00     0.241 C 
ATOM     24  OA1 KO1 d         -10.776   1.081  66.266  0.00  0.00    -0.644 OA
ATOM     25  O1B KO1 d          -9.371  -0.402  65.519  0.00  0.00    -0.644 OA
ENDBRANCH  13  23
BRANCH  15  26
ATOM     26  C7  KO1 d          -8.681   5.370  67.190  0.00  0.00     0.083 C 
ATOM     27  H2  KO1 d          -8.448   6.236  66.554  0.00  0.00     0.090 H 
BRANCH  26  28
ATOM     28  C8  KO1 d         -10.216   5.219  67.185  0.00  0.00     0.043 C 
ATOM     29  H3  KO1 d         -10.695   5.912  67.894  0.00  0.00     0.078 H 
ATOM     30  H4  KO1 d         -10.523   4.189  67.416  0.00  0.00     0.078 H 
BRANCH  28  31
ATOM     31  O8  KO1 d         -10.511   5.570  65.815  0.00  0.00    -0.398 OA
ATOM     32  H5  KO1 d         -11.399   5.902  65.758  0.00  0.00     0.209 HD
ENDBRANCH  28  31
ENDBRANCH  26  28
BRANCH  26  33
ATOM     33  O7  KO1 d          -8.088   5.577  68.463  0.00  0.00    -0.391 OA
ATOM     34  H6  KO1 d          -7.779   4.746  68.807  0.00  0.00     0.210 HD
ENDBRANCH  26  33
ENDBRANCH  15  26
BRANCH  16  35
ATOM     35  O5  KO1 d          -8.178   4.718  64.291  0.00  0.00    -0.390 OA
ATOM     36  H8  KO1 d          -8.185   5.666  64.235  0.00  0.00     0.210 HD
ENDBRANCH  16  35
BRANCH  18  37
ATOM     37  O4  KO1 d          -5.980   3.116  63.610  0.00  0.00    -0.390 OA
ATOM     38  H10 KO1 d          -5.398   2.383  63.446  0.00  0.00     0.210 HD
ENDBRANCH  18  37
BRANCH  20  39
ATOM     39  O3  KO1 d          -8.628   1.934  63.822  0.00  0.00    -0.387 OA
ATOM     40  H12 KO1 d          -9.303   2.510  64.160  0.00  0.00     0.210 HD
ENDBRANCH  20  39
ENDBRANCH  12  13
ENDBRANCH   3  12
BRANCH   4  41
ATOM     41  O5  KO1 d          -5.406   1.105  68.943  0.00  0.00    -0.390 OA
ATOM     42  H17 KO1 d          -5.563   1.873  69.479  0.00  0.00     0.210 HD
ENDBRANCH   4  41
BRANCH   1  43
ATOM     43  C1  KO1 d          -8.661   2.953  71.662  0.00  0.00     0.239 C 
ATOM     44  O1A KO1 d          -8.030   3.901  71.119  0.00  0.00    -0.644 OA
ATOM     45  O1B KO1 d          -9.272   3.031  72.780  0.00  0.00    -0.644 OA
ENDBRANCH   1  43
BRANCH   1  46
ATOM     46  O2  KO1 d          -9.801   0.787  71.147  0.00  0.00    -0.343 OA
BRANCH  46  47
ATOM     47  C9  KO1 d         -11.021   0.238  70.765  0.00  0.00     0.038 C 
ATOM     48  H24 KO1 d         -11.769   1.015  70.983  0.00  0.00     0.080 H 
ATOM     49  H25 KO1 d         -11.175  -0.620  71.437  0.00  0.00     0.080 H 
BRANCH  47  50
ATOM     50  C10 KO1 d         -11.348  -0.240  69.475  0.00  0.00    -0.089 C 
ATOM     51  C11 KO1 d         -11.246  -1.588  69.095  0.00  0.00    -0.123 C 
ATOM     52  H27 KO1 d         -11.513  -1.891  68.084  0.00  0.00     0.066 H 
ATOM     53  H28 KO1 d         -10.898  -2.331  69.812  0.00  0.00     0.066 H 
ATOM     54  H26 KO1 d         -11.699   0.478  68.734  0.00  0.00     0.078 H 
ENDBRANCH  47  50
ENDBRANCH  46  47
ENDBRANCH   1  46
BRANCH   5  55
ATOM     55  C7  KO1 d          -5.657  -0.948  71.138  0.00  0.00     0.083 C 
ATOM     56  H19 KO1 d          -5.984  -1.263  72.140  0.00  0.00     0.090 H 
BRANCH  55  57
ATOM     57  O7  KO1 d          -4.578  -0.001  71.307  0.00  0.00    -0.391 OA
ATOM     58  H20 KO1 d          -4.068   0.041  70.507  0.00  0.00     0.210 HD
ENDBRANCH  55  57
BRANCH  55  59
ATOM     59  C8  KO1 d          -5.135  -2.221  70.407  0.00  0.00     0.043 C 
ATOM     60  H21 KO1 d          -4.035  -2.211  70.423  0.00  0.00     0.078 H 
ATOM     61  H22 KO1 d          -5.486  -2.201  69.365  0.00  0.00     0.078 H 
BRANCH  59  62
ATOM     62  O8  KO1 d          -5.602  -3.443  71.034  0.00  0.00    -0.398 OA
ATOM     63  H23 KO1 d          -5.862  -3.258  71.929  0.00  0.00     0.209 HD
ENDBRANCH  59  62
ENDBRANCH  55  59
ENDBRANCH   5  55
TORSDOF 19
ENDMDL
MODEL 2
REMARK VINA RESULT:      -5.5      1.521      3.079
REMARK  19 active torsions:
REMARK  status: ('A' for Active; 'I' for Inactive)
REMARK    1  A    between atoms: C2_4  and  C1_2 
REMARK    2  A    between atoms: O2_17  and  C2_4 
REMARK    3  A    between atoms: C6_6  and  C7_7 
REMARK    4  A    between atoms: C7_7  and  C8_8 
REMARK    5  A    between atoms: C7_7  and  O7_10 
REMARK    6  A    between atoms: C8_8  and  O8_9 
REMARK    7  A    between atoms: C5_11  and  O5_12 
REMARK    8  A    between atoms: C4_13  and  O4_14 
REMARK    9  A    between atoms: C3_15  and  O3_16 
REMARK   10  A    between atoms: C4_23  and  O2_17 
REMARK   11  A    between atoms: C2_21  and  C1_18 
REMARK   12  A    between atoms: C2_21  and  O2_32 
REMARK   13  A    between atoms: C5_24  and  O5_25 
REMARK   14  A    between atoms: C6_26  and  C7_28 
REMARK   15  A    between atoms: C7_28  and  O7_29 
REMARK   16  A    between atoms: C7_28  and  C8_30 
REMARK   17  A    between atoms: C8_30  and  O8_31 
REMARK   18  A    between atoms: O2_32  and  C9_33 
REMARK   19  A    between atoms: C9_33  and  C10_34 
ROOT
ATOM      1  C2  KO1 d          -6.683   1.301  71.486  0.00  0.00     0.259 C 
ATOM      2  C3  KO1 d          -6.435   1.395  69.948  0.00  0.00     0.024 C 
ATOM      3  C4  KO1 d          -7.701   1.305  69.057  0.00  0.00     0.075 C 
ATOM      4  C5  KO1 d          -8.672   0.143  69.390  0.00  0.00     0.088 C 
ATOM      5  C6  KO1 d          -8.986   0.214  70.916  0.00  0.00     0.096 C 
ATOM      6  O6  KO1 d          -7.747   0.335  71.729  0.00  0.00    -0.336 OA
ATOM      7  H13 KO1 d          -5.762   0.573  69.662  0.00  0.00     0.045 H 
ATOM      8  H14 KO1 d          -5.945   2.359  69.742  0.00  0.00     0.045 H 
ATOM      9  H15 KO1 d          -8.240   2.256  69.179  0.00  0.00     0.087 H 
ATOM     10  H16 KO1 d          -9.610   0.302  68.839  0.00  0.00     0.091 H 
ATOM     11  H18 KO1 d          -9.551   1.145  71.074  0.00  0.00     0.091 H 
ENDROOT
BRANCH   3  12
ATOM     12  O2  KO1 d          -7.398   1.109  67.640  0.00  0.00    -0.336 OA
BRANCH  12  13
ATOM     13  C2  KO1 d          -8.346   1.569  66.614  0.00  0.00     0.286 C 
ATOM     14  O6  KO1 d          -8.578   3.093  66.828  0.00  0.00    -0.334 OA
ATOM     15  C6  KO1 d          -7.245   3.803  66.882  0.00  0.00     0.096 C 
ATOM     16  C5  KO1 d          -6.570   3.693  65.513  0.00  0.00     0.090 C 
ATOM     17  H1  KO1 d          -6.585   3.342  67.630  0.00  0.00     0.091 H 
ATOM     18  C4  KO1 d          -6.320   2.193  65.200  0.00  0.00     0.093 C 
ATOM     19  H7  KO1 d          -5.614   4.237  65.523  0.00  0.00     0.091 H 
ATOM     20  C3  KO1 d          -7.603   1.309  65.263  0.00  0.00     0.127 C 
ATOM     21  H9  KO1 d          -5.608   1.805  65.944  0.00  0.00     0.091 H 
ATOM     22  H11 KO1 d          -7.314   0.253  65.163  0.00  0.00     0.096 H 
BRANCH  13  23
ATOM     23  C1  KO1 d          -9.736   0.896  66.567  0.00  0.00     0.241 C 
ATOM     24  OA1 KO1 d          -9.821  -0.356  66.445  0.00  0.00    -0.644 OA
ATOM     25  O1B KO1 d         -10.740   1.604  66.666  0.00  0.00    -0.644 OA
ENDBRANCH  13  23
BRANCH  15  26
ATOM     26  C7  KO1 d          -7.624   5.242  67.344  0.00  0.00     0.083 C 
ATOM     27  H2  KO1 d          -7.356   5.954  66.550  0.00  0.00     0.090 H 
BRANCH  26  28
ATOM     28  C8  KO1 d          -9.135   5.420  67.603  0.00  0.00     0.043 C 
ATOM     29  H3  KO1 d          -9.341   6.312  68.212  0.00  0.00     0.078 H 
ATOM     30  H4  KO1 d          -9.570   4.535  68.089  0.00  0.00     0.078 H 
BRANCH  28  31
ATOM     31  O8  KO1 d          -9.616   5.575  66.249  0.00  0.00    -0.398 OA
ATOM     32  H5  KO1 d         -10.530   5.837  66.267  0.00  0.00     0.209 HD
ENDBRANCH  28  31
ENDBRANCH  26  28
BRANCH  26  33
ATOM     33  O7  KO1 d          -6.778   5.477  68.460  0.00  0.00    -0.391 OA
ATOM     34  H6  KO1 d          -7.005   4.876  69.160  0.00  0.00     0.210 HD
ENDBRANCH  26  33
ENDBRANCH  15  26
BRANCH  16  35
ATOM     35  O5  KO1 d          -7.435   4.249  64.506  0.00  0.00    -0.390 OA
ATOM     36  H8  KO1 d          -7.196   3.897  63.656  0.00  0.00     0.210 HD
ENDBRANCH  16  35
BRANCH  18  37
ATOM     37  O4  KO1 d          -5.740   2.093  63.920  0.00  0.00    -0.390 OA
ATOM     38  H10 KO1 d          -6.392   1.782  63.302  0.00  0.00     0.210 HD
ENDBRANCH  18  37
BRANCH  20  39
ATOM     39  O3  KO1 d          -8.586   1.640  64.303  0.00  0.00    -0.387 OA
ATOM     40  H12 KO1 d          -8.164   1.837  63.474  0.00  0.00     0.210 HD
ENDBRANCH  20  39
ENDBRANCH  12  13
ENDBRANCH   3  12
BRANCH   4  41
ATOM     41  O5  KO1 d          -8.130  -1.144  68.964  0.00  0.00    -0.390 OA
ATOM     42  H17 KO1 d          -8.164  -1.757  69.689  0.00  0.00     0.210 HD
ENDBRANCH   4  41
BRANCH   1  43
ATOM     43  C1  KO1 d          -5.333   0.801  72.095  0.00  0.00     0.239 C 
ATOM     44  O1A KO1 d          -4.574   1.709  72.532  0.00  0.00    -0.644 OA
ATOM     45  O1B KO1 d          -5.059  -0.445  72.106  0.00  0.00    -0.644 OA
ENDBRANCH   1  43
BRANCH   1  46
ATOM     46  O2  KO1 d          -7.145   2.526  72.101  0.00  0.00    -0.343 OA
BRANCH  46  47
ATOM     47  C9  KO1 d          -8.146   3.456  72.362  0.00  0.00     0.038 C 
ATOM     48  H24 KO1 d          -7.724   4.130  73.121  0.00  0.00     0.080 H 
ATOM     49  H25 KO1 d          -8.971   2.876  72.803  0.00  0.00     0.080 H 
BRANCH  47  50
ATOM     50  C10 KO1 d          -8.758   4.304  71.411  0.00  0.00    -0.089 C 
ATOM     51  C11 KO1 d         -10.108   4.207  71.035  0.00  0.00    -0.123 C 
ATOM     52  H27 KO1 d         -10.519   4.891  70.296  0.00  0.00     0.066 H 
ATOM     53  H28 KO1 d         -10.744   3.445  71.484  0.00  0.00     0.066 H 
ATOM     54  H26 KO1 d          -8.149   5.077  70.943  0.00  0.00     0.078 H 
ENDBRANCH  47  50
ENDBRANCH  46  47
ENDBRANCH   1  46
BRANCH   5  55
ATOM     55  C7  KO1 d          -9.914  -0.939  71.386  0.00  0.00     0.083 C 
ATOM     56  H19 KO1 d         -10.356  -0.622  72.342  0.00  0.00     0.090 H 
BRANCH  55  57
ATOM     57  O7  KO1 d          -9.158  -2.146  71.633  0.00  0.00    -0.391 OA
ATOM     58  H20 KO1 d          -8.430  -1.950  72.211  0.00  0.00     0.210 HD
ENDBRANCH  55  57
BRANCH  55  59
ATOM     59  C8  KO1 d         -11.095  -1.243  70.416  0.00  0.00     0.043 C 
ATOM     60  H21 KO1 d         -11.204  -0.401  69.718  0.00  0.00     0.078 H 
ATOM     61  H22 KO1 d         -12.018  -1.354  71.005  0.00  0.00     0.078 H 
BRANCH  59  62
ATOM     62  O8  KO1 d         -10.878  -2.458  69.654  0.00  0.00    -0.398 OA
ATOM     63  H23 KO1 d         -10.073  -2.379  69.156  0.00  0.00     0.209 HD
ENDBRANCH  59  62
ENDBRANCH  55  59
ENDBRANCH   5  55
TORSDOF 19
ENDMDL
MODEL 3
REMARK VINA RESULT:      -5.1      1.697      4.765
REMARK  19 active torsions:
REMARK  status: ('A' for Active; 'I' for Inactive)
REMARK    1  A    between atoms: C2_4  and  C1_2 
REMARK    2  A    between atoms: O2_17  and  C2_4 
REMARK    3  A    between atoms: C6_6  and  C7_7 
REMARK    4  A    between atoms: C7_7  and  C8_8 
REMARK    5  A    between atoms: C7_7  and  O7_10 
REMARK    6  A    between atoms: C8_8  and  O8_9 
REMARK    7  A    between atoms: C5_11  and  O5_12 
REMARK    8  A    between atoms: C4_13  and  O4_14 
REMARK    9  A    between atoms: C3_15  and  O3_16 
REMARK   10  A    between atoms: C4_23  and  O2_17 
REMARK   11  A    between atoms: C2_21  and  C1_18 
REMARK   12  A    between atoms: C2_21  and  O2_32 
REMARK   13  A    between atoms: C5_24  and  O5_25 
REMARK   14  A    between atoms: C6_26  and  C7_28 
REMARK   15  A    between atoms: C7_28  and  O7_29 
REMARK   16  A    between atoms: C7_28  and  C8_30 
REMARK   17  A    between atoms: C8_30  and  O8_31 
REMARK   18  A    between atoms: O2_32  and  C9_33 
REMARK   19  A    between atoms: C9_33  and  C10_34 
ROOT
ATOM      1  C2  KO1 d          -6.878   0.219  70.211  0.00  0.00     0.259 C 
ATOM      2  C3  KO1 d          -7.211   1.284  69.119  0.00  0.00     0.024 C 
ATOM      3  C4  KO1 d          -8.216   2.387  69.541  0.00  0.00     0.075 C 
ATOM      4  C5  KO1 d          -9.508   1.885  70.235  0.00  0.00     0.088 C 
ATOM      5  C6  KO1 d          -9.080   0.949  71.408  0.00  0.00     0.096 C 
ATOM      6  O6  KO1 d          -8.091  -0.070  70.966  0.00  0.00    -0.336 OA
ATOM      7  H13 KO1 d          -7.633   0.757  68.250  0.00  0.00     0.045 H 
ATOM      8  H14 KO1 d          -6.271   1.776  68.828  0.00  0.00     0.045 H 
ATOM      9  H15 KO1 d          -7.682   3.051  70.237  0.00  0.00     0.087 H 
ATOM     10  H16 KO1 d         -10.035   2.750  70.663  0.00  0.00     0.091 H 
ATOM     11  H18 KO1 d          -8.562   1.585  72.140  0.00  0.00     0.091 H 
ENDROOT
BRANCH   3  12
ATOM     12  O2  KO1 d          -8.712   3.178  68.415  0.00  0.00    -0.336 OA
BRANCH  12  13
ATOM     13  C2  KO1 d          -7.781   3.996  67.624  0.00  0.00     0.286 C 
ATOM     14  O6  KO1 d          -7.275   3.129  66.435  0.00  0.00    -0.334 OA
ATOM     15  C6  KO1 d          -8.458   2.548  65.696  0.00  0.00     0.096 C 
ATOM     16  C5  KO1 d          -9.246   3.689  65.048  0.00  0.00     0.090 C 
ATOM     17  H1  KO1 d          -9.128   2.015  66.386  0.00  0.00     0.091 H 
ATOM     18  C4  KO1 d          -9.773   4.629  66.166  0.00  0.00     0.093 C 
ATOM     19  H7  KO1 d         -10.091   3.280  64.474  0.00  0.00     0.091 H 
ATOM     20  C3  KO1 d          -8.659   5.182  67.107  0.00  0.00     0.127 C 
ATOM     21  H9  KO1 d         -10.481   4.057  66.784  0.00  0.00     0.091 H 
ATOM     22  H11 KO1 d          -9.132   5.722  67.940  0.00  0.00     0.096 H 
BRANCH  13  23
ATOM     23  C1  KO1 d          -6.535   4.563  68.341  0.00  0.00     0.241 C 
ATOM     24  OA1 KO1 d          -5.396   4.086  68.088  0.00  0.00    -0.644 OA
ATOM     25  O1B KO1 d          -6.682   5.487  69.143  0.00  0.00    -0.644 OA
ENDBRANCH  13  23
BRANCH  15  26
ATOM     26  C7  KO1 d          -7.803   1.526  64.719  0.00  0.00     0.083 C 
ATOM     27  H2  KO1 d          -8.134   1.751  63.694  0.00  0.00     0.090 H 
BRANCH  26  28
ATOM     28  C8  KO1 d          -6.262   1.596  64.709  0.00  0.00     0.043 C 
ATOM     29  H3  KO1 d          -5.815   0.661  64.339  0.00  0.00     0.078 H 
ATOM     30  H4  KO1 d          -5.860   1.825  65.707  0.00  0.00     0.078 H 
BRANCH  28  31
ATOM     31  O8  KO1 d          -6.054   2.688  63.786  0.00  0.00    -0.398 OA
ATOM     32  H5  KO1 d          -6.703   2.644  63.093  0.00  0.00     0.209 HD
ENDBRANCH  28  31
ENDBRANCH  26  28
BRANCH  26  33
ATOM     33  O7  KO1 d          -8.360   0.278  65.104  0.00  0.00    -0.391 OA
ATOM     34  H6  KO1 d          -7.668  -0.289  65.426  0.00  0.00     0.210 HD
ENDBRANCH  26  33
ENDBRANCH  15  26
BRANCH  16  35
ATOM     35  O5  KO1 d          -8.379   4.434  64.173  0.00  0.00    -0.390 OA
ATOM     36  H8  KO1 d          -8.515   4.148  63.277  0.00  0.00     0.210 HD
ENDBRANCH  16  35
BRANCH  18  37
ATOM     37  O4  KO1 d         -10.458   5.701  65.563  0.00  0.00    -0.390 OA
ATOM     38  H10 KO1 d         -10.076   5.882  64.712  0.00  0.00     0.210 HD
ENDBRANCH  18  37
BRANCH  20  39
ATOM     39  O3  KO1 d          -7.711   6.010  66.463  0.00  0.00    -0.387 OA
ATOM     40  H12 KO1 d          -8.151   6.768  66.098  0.00  0.00     0.210 HD
ENDBRANCH  20  39
ENDBRANCH  12  13
ENDBRANCH   3  12
BRANCH   4  41
ATOM     41  O5  KO1 d         -10.415   1.251  69.282  0.00  0.00    -0.390 OA
ATOM     42  H17 KO1 d         -11.286   1.615  69.384  0.00  0.00     0.210 HD
ENDBRANCH   4  41
BRANCH   1  43
ATOM     43  C1  KO1 d          -6.400  -1.045  69.427  0.00  0.00     0.239 C 
ATOM     44  O1A KO1 d          -6.192  -2.067  70.136  0.00  0.00    -0.644 OA
ATOM     45  O1B KO1 d          -6.228  -0.987  68.164  0.00  0.00    -0.644 OA
ENDBRANCH   1  43
BRANCH   1  46
ATOM     46  O2  KO1 d          -5.917   0.649  71.203  0.00  0.00    -0.343 OA
BRANCH  46  47
ATOM     47  C9  KO1 d          -5.515   0.795  72.526  0.00  0.00     0.038 C 
ATOM     48  H24 KO1 d          -5.910   1.773  72.842  0.00  0.00     0.080 H 
ATOM     49  H25 KO1 d          -4.416   0.837  72.492  0.00  0.00     0.080 H 
BRANCH  47  50
ATOM     50  C10 KO1 d          -5.818  -0.088  73.588  0.00  0.00    -0.089 C 
ATOM     51  C11 KO1 d          -6.013  -1.468  73.420  0.00  0.00    -0.123 C 
ATOM     52  H27 KO1 d          -6.245  -2.094  74.280  0.00  0.00     0.066 H 
ATOM     53  H28 KO1 d          -5.932  -1.913  72.429  0.00  0.00     0.066 H 
ATOM     54  H26 KO1 d          -5.907   0.326  74.592  0.00  0.00     0.078 H 
ENDBRANCH  47  50
ENDBRANCH  46  47
ENDBRANCH   1  46
BRANCH   5  55
ATOM     55  C7  KO1 d         -10.297   0.335  72.153  0.00  0.00     0.083 C 
ATOM     56  H19 KO1 d         -11.119   1.062  72.071  0.00  0.00     0.090 H 
BRANCH  55  57
ATOM     57  O7  KO1 d         -10.009   0.155  73.557  0.00  0.00    -0.391 OA
ATOM     58  H20 KO1 d         -10.082   0.990  74.004  0.00  0.00     0.210 HD
ENDBRANCH  55  57
BRANCH  55  59
ATOM     59  C8  KO1 d         -10.809  -1.003  71.541  0.00  0.00     0.043 C 
ATOM     60  H21 KO1 d         -10.991  -0.855  70.467  0.00  0.00     0.078 H 
ATOM     61  H22 KO1 d         -11.750  -1.283  72.037  0.00  0.00     0.078 H 
BRANCH  59  62
ATOM     62  O8  KO1 d          -9.854  -2.083  71.708  0.00  0.00    -0.398 OA
ATOM     63  H23 KO1 d         -10.289  -2.914  71.558  0.00  0.00     0.209 HD
ENDBRANCH  59  62
ENDBRANCH  55  59
ENDBRANCH   5  55
TORSDOF 19
ENDMDL
MODEL 4
REMARK VINA RESULT:      -4.5      1.875      6.782
REMARK  19 active torsions:
REMARK  status: ('A' for Active; 'I' for Inactive)
REMARK    1  A    between atoms: C2_4  and  C1_2 
REMARK    2  A    between atoms: O2_17  and  C2_4 
REMARK    3  A    between atoms: C6_6  and  C7_7 
REMARK    4  A    between atoms: C7_7  and  C8_8 
REMARK    5  A    between atoms: C7_7  and  O7_10 
REMARK    6  A    between atoms: C8_8  and  O8_9 
REMARK    7  A    between atoms: C5_11  and  O5_12 
REMARK    8  A    between atoms: C4_13  and  O4_14 
REMARK    9  A    between atoms: C3_15  and  O3_16 
REMARK   10  A    between atoms: C4_23  and  O2_17 
REMARK   11  A    between atoms: C2_21  and  C1_18 
REMARK   12  A    between atoms: C2_21  and  O2_32 
REMARK   13  A    between atoms: C5_24  and  O5_25 
REMARK   14  A    between atoms: C6_26  and  C7_28 
REMARK   15  A    between atoms: C7_28  and  O7_29 
REMARK   16  A    between atoms: C7_28  and  C8_30 
REMARK   17  A    between atoms: C8_30  and  O8_31 
REMARK   18  A    between atoms: O2_32  and  C9_33 
REMARK   19  A    between atoms: C9_33  and  C10_34 
ROOT
ATOM      1  C2  KO1 d          -7.691   1.987  65.746  0.00  0.00     0.259 C 
ATOM      2  C3  KO1 d          -7.017   1.206  66.918  0.00  0.00     0.024 C 
ATOM      3  C4  KO1 d          -7.432   1.647  68.344  0.00  0.00     0.075 C 
ATOM      4  C5  KO1 d          -7.400   3.175  68.609  0.00  0.00     0.088 C 
ATOM      5  C6  KO1 d          -8.224   3.865  67.478  0.00  0.00     0.096 C 
ATOM      6  O6  KO1 d          -7.817   3.387  66.130  0.00  0.00    -0.336 OA
ATOM      7  H13 KO1 d          -5.928   1.334  66.827  0.00  0.00     0.045 H 
ATOM      8  H14 KO1 d          -7.272   0.141  66.805  0.00  0.00     0.045 H 
ATOM      9  H15 KO1 d          -8.460   1.288  68.500  0.00  0.00     0.087 H 
ATOM     10  H16 KO1 d          -7.901   3.374  69.567  0.00  0.00     0.091 H 
ATOM     11  H18 KO1 d          -9.268   3.548  67.616  0.00  0.00     0.091 H 
ENDROOT
BRANCH   3  12
ATOM     12  O2  KO1 d          -6.573   1.096  69.393  0.00  0.00    -0.336 OA
BRANCH  12  13
ATOM     13  C2  KO1 d          -6.989  -0.108  70.127  0.00  0.00     0.286 C 
ATOM     14  O6  KO1 d          -6.713   0.136  71.639  0.00  0.00    -0.334 OA
ATOM     15  C6  KO1 d          -7.350   1.438  72.064  0.00  0.00     0.096 C 
ATOM     16  C5  KO1 d          -8.871   1.304  71.954  0.00  0.00     0.090 C 
ATOM     17  H1  KO1 d          -7.029   2.263  71.411  0.00  0.00     0.091 H 
ATOM     18  C4  KO1 d          -9.242   1.032  70.472  0.00  0.00     0.093 C 
ATOM     19  H7  KO1 d          -9.353   2.233  72.296  0.00  0.00     0.091 H 
ATOM     20  C3  KO1 d          -8.526  -0.210  69.856  0.00  0.00     0.127 C 
ATOM     21  H9  KO1 d          -8.951   1.913  69.882  0.00  0.00     0.091 H 
ATOM     22  H11 KO1 d          -8.740  -0.247  68.779  0.00  0.00     0.096 H 
BRANCH  13  23
ATOM     23  C1  KO1 d          -6.317  -1.448  69.749  0.00  0.00     0.241 C 
ATOM     24  OA1 KO1 d          -5.930  -2.232  70.657  0.00  0.00    -0.644 OA
ATOM     25  O1B KO1 d          -6.187  -1.728  68.556  0.00  0.00    -0.644 OA
ENDBRANCH  13  23
BRANCH  15  26
ATOM     26  C7  KO1 d          -6.784   1.663  73.498  0.00  0.00     0.083 C 
ATOM     27  H2  KO1 d          -7.440   1.159  74.223  0.00  0.00     0.090 H 
BRANCH  26  28
ATOM     28  C8  KO1 d          -5.373   1.072  73.694  0.00  0.00     0.043 C 
ATOM     29  H3  KO1 d          -5.373  -0.023  73.590  0.00  0.00     0.078 H 
ATOM     30  H4  KO1 d          -4.950   1.347  74.671  0.00  0.00     0.078 H 
BRANCH  28  31
ATOM     31  O8  KO1 d          -4.667   1.712  72.608  0.00  0.00    -0.398 OA
ATOM     32  H5  KO1 d          -4.309   2.539  72.908  0.00  0.00     0.209 HD
ENDBRANCH  28  31
ENDBRANCH  26  28
BRANCH  26  33
ATOM     33  O7  KO1 d          -6.896   3.065  73.695  0.00  0.00    -0.391 OA
ATOM     34  H6  KO1 d          -6.042   3.422  73.910  0.00  0.00     0.210 HD
ENDBRANCH  26  33
ENDBRANCH  15  26
BRANCH  16  35
ATOM     35  O5  KO1 d          -9.314   0.200  72.764  0.00  0.00    -0.390 OA
ATOM     36  H8  KO1 d          -9.176  -0.613  72.292  0.00  0.00     0.210 HD
ENDBRANCH  16  35
BRANCH  18  37
ATOM     37  O4  KO1 d         -10.637   0.864  70.382  0.00  0.00    -0.390 OA
ATOM     38  H10 KO1 d         -11.054   1.281  71.128  0.00  0.00     0.210 HD
ENDBRANCH  18  37
BRANCH  20  39
ATOM     39  O3  KO1 d          -8.865  -1.439  70.465  0.00  0.00    -0.387 OA
ATOM     40  H12 KO1 d          -8.100  -2.003  70.485  0.00  0.00     0.210 HD
ENDBRANCH  20  39
ENDBRANCH  12  13
ENDBRANCH   3  12
BRANCH   4  41
ATOM     41  O5  KO1 d          -6.031   3.669  68.720  0.00  0.00    -0.390 OA
ATOM     42  H17 KO1 d          -5.939   4.165  69.525  0.00  0.00     0.210 HD
ENDBRANCH   4  41
BRANCH   1  43
ATOM     43  C1  KO1 d          -6.722   1.832  64.530  0.00  0.00     0.239 C 
ATOM     44  O1A KO1 d          -6.425   0.643  64.230  0.00  0.00    -0.644 OA
ATOM     45  O1B KO1 d          -6.276   2.867  63.932  0.00  0.00    -0.644 OA
ENDBRANCH   1  43
BRANCH   1  46
ATOM     46  O2  KO1 d          -9.039   1.565  65.433  0.00  0.00    -0.343 OA
BRANCH  46  47
ATOM     47  C9  KO1 d         -10.366   1.852  65.128  0.00  0.00     0.038 C 
ATOM     48  H24 KO1 d         -10.857   2.014  66.100  0.00  0.00     0.080 H 
ATOM     49  H25 KO1 d         -10.761   0.936  64.665  0.00  0.00     0.080 H 
BRANCH  47  50
ATOM     50  C10 KO1 d         -10.818   2.908  64.304  0.00  0.00    -0.089 C 
ATOM     51  C11 KO1 d         -10.678   4.266  64.633  0.00  0.00    -0.123 C 
ATOM     52  H27 KO1 d         -11.049   5.032  63.953  0.00  0.00     0.066 H 
ATOM     53  H28 KO1 d         -10.199   4.554  65.568  0.00  0.00     0.066 H 
ATOM     54  H26 KO1 d         -11.302   2.655  63.362  0.00  0.00     0.078 H 
ENDBRANCH  47  50
ENDBRANCH  46  47
ENDBRANCH   1  46
BRANCH   5  55
ATOM     55  C7  KO1 d          -8.222   5.414  67.603  0.00  0.00     0.083 C 
ATOM     56  H19 KO1 d          -8.691   5.806  66.688  0.00  0.00     0.090 H 
BRANCH  55  57
ATOM     57  O7  KO1 d          -6.873   5.929  67.659  0.00  0.00    -0.391 OA
ATOM     58  H20 KO1 d          -6.295   5.352  67.173  0.00  0.00     0.210 HD
ENDBRANCH  55  57
BRANCH  55  59
ATOM     59  C8  KO1 d          -9.047   5.957  68.807  0.00  0.00     0.043 C 
ATOM     60  H21 KO1 d          -9.236   7.029  68.651  0.00  0.00     0.078 H 
ATOM     61  H22 KO1 d          -8.462   5.819  69.729  0.00  0.00     0.078 H 
BRANCH  59  62
ATOM     62  O8  KO1 d         -10.318   5.274  68.954  0.00  0.00    -0.398 OA
ATOM     63  H23 KO1 d         -10.538   5.211  69.876  0.00  0.00     0.209 HD
ENDBRANCH  59  62
ENDBRANCH  55  59
ENDBRANCH   5  55
TORSDOF 19
ENDMDL
MODEL 5
REMARK VINA RESULT:      -4.4      2.169      4.737
REMARK  19 active torsions:
REMARK  status: ('A' for Active; 'I' for Inactive)
REMARK    1  A    between atoms: C2_4  and  C1_2 
REMARK    2  A    between atoms: O2_17  and  C2_4 
REMARK    3  A    between atoms: C6_6  and  C7_7 
REMARK    4  A    between atoms: C7_7  and  C8_8 
REMARK    5  A    between atoms: C7_7  and  O7_10 
REMARK    6  A    between atoms: C8_8  and  O8_9 
REMARK    7  A    between atoms: C5_11  and  O5_12 
REMARK    8  A    between atoms: C4_13  and  O4_14 
REMARK    9  A    between atoms: C3_15  and  O3_16 
REMARK   10  A    between atoms: C4_23  and  O2_17 
REMARK   11  A    between atoms: C2_21  and  C1_18 
REMARK   12  A    between atoms: C2_21  and  O2_32 
REMARK   13  A    between atoms: C5_24  and  O5_25 
REMARK   14  A    between atoms: C6_26  and  C7_28 
REMARK   15  A    between atoms: C7_28  and  O7_29 
REMARK   16  A    between atoms: C7_28  and  C8_30 
REMARK   17  A    between atoms: C8_30  and  O8_31 
REMARK   18  A    between atoms: O2_32  and  C9_33 
REMARK   19  A    between atoms: C9_33  and  C10_34 
ROOT
ATOM      1  C2  KO1 d          -6.787   1.887  72.332  0.00  0.00     0.259 C 
ATOM      2  C3  KO1 d          -6.417   2.196  70.847  0.00  0.00     0.024 C 
ATOM      3  C4  KO1 d          -7.610   2.516  69.911  0.00  0.00     0.075 C 
ATOM      4  C5  KO1 d          -8.805   1.531  69.989  0.00  0.00     0.088 C 
ATOM      5  C6  KO1 d          -9.209   1.397  71.490  0.00  0.00     0.096 C 
ATOM      6  O6  KO1 d          -8.030   1.126  72.355  0.00  0.00    -0.336 OA
ATOM      7  H13 KO1 d          -5.893   1.319  70.440  0.00  0.00     0.045 H 
ATOM      8  H14 KO1 d          -5.740   3.063  70.841  0.00  0.00     0.045 H 
ATOM      9  H15 KO1 d          -7.967   3.519  70.186  0.00  0.00     0.087 H 
ATOM     10  H16 KO1 d          -9.655   1.967  69.444  0.00  0.00     0.091 H 
ATOM     11  H18 KO1 d          -9.596   2.380  71.797  0.00  0.00     0.091 H 
ENDROOT
BRANCH   3  12
ATOM     12  O2  KO1 d          -7.250   2.512  68.493  0.00  0.00    -0.336 OA
BRANCH  12  13
ATOM     13  C2  KO1 d          -6.889   3.770  67.823  0.00  0.00     0.286 C 
ATOM     14  O6  KO1 d          -6.777   3.483  66.297  0.00  0.00    -0.334 OA
ATOM     15  C6  KO1 d          -8.037   2.801  65.818  0.00  0.00     0.096 C 
ATOM     16  C5  KO1 d          -9.209   3.776  65.953  0.00  0.00     0.090 C 
ATOM     17  H1  KO1 d          -8.256   1.911  66.427  0.00  0.00     0.091 H 
ATOM     18  C4  KO1 d          -9.383   4.142  67.452  0.00  0.00     0.093 C 
ATOM     19  H7  KO1 d         -10.129   3.307  65.574  0.00  0.00     0.091 H 
ATOM     20  C3  KO1 d          -8.096   4.720  68.117  0.00  0.00     0.127 C 
ATOM     21  H9  KO1 d          -9.659   3.227  67.995  0.00  0.00     0.091 H 
ATOM     22  H11 KO1 d          -8.269   4.823  69.198  0.00  0.00     0.096 H 
BRANCH  13  23
ATOM     23  C1  KO1 d          -5.579   4.465  68.256  0.00  0.00     0.241 C 
ATOM     24  OA1 KO1 d          -5.616   5.397  69.105  0.00  0.00    -0.644 OA
ATOM     25  O1B KO1 d          -4.515   4.081  67.768  0.00  0.00    -0.644 OA
ENDBRANCH  13  23
BRANCH  15  26
ATOM     26  C7  KO1 d          -7.677   2.359  64.368  0.00  0.00     0.083 C 
ATOM     27  H2  KO1 d          -7.036   3.127  63.911  0.00  0.00     0.090 H 
BRANCH  26  28
ATOM     28  C8  KO1 d          -6.886   1.036  64.314  0.00  0.00     0.043 C 
ATOM     29  H3  KO1 d          -7.096   0.474  63.393  0.00  0.00     0.078 H 
ATOM     30  H4  KO1 d          -7.097   0.401  65.187  0.00  0.00     0.078 H 
BRANCH  28  31
ATOM     31  O8  KO1 d          -5.531   1.539  64.335  0.00  0.00    -0.398 OA
ATOM     32  H5  KO1 d          -5.374   1.987  65.158  0.00  0.00     0.209 HD
ENDBRANCH  28  31
ENDBRANCH  26  28
BRANCH  26  33
ATOM     33  O7  KO1 d          -8.925   2.357  63.691  0.00  0.00    -0.391 OA
ATOM     34  H6  KO1 d          -9.591   2.730  64.257  0.00  0.00     0.210 HD
ENDBRANCH  26  33
ENDBRANCH  15  26
BRANCH  16  35
ATOM     35  O5  KO1 d          -8.927   4.971  65.203  0.00  0.00    -0.390 OA
ATOM     36  H8  KO1 d          -8.263   4.784  64.550  0.00  0.00     0.210 HD
ENDBRANCH  16  35
BRANCH  18  37
ATOM     37  O4  KO1 d         -10.433   5.074  67.566  0.00  0.00    -0.390 OA
ATOM     38  H10 KO1 d         -10.252   5.666  68.287  0.00  0.00     0.210 HD
ENDBRANCH  18  37
BRANCH  20  39
ATOM     39  O3  KO1 d          -7.660   5.950  67.572  0.00  0.00    -0.387 OA
ATOM     40  H12 KO1 d          -6.844   6.205  67.985  0.00  0.00     0.210 HD
ENDBRANCH  20  39
ENDBRANCH  12  13
ENDBRANCH   3  12
BRANCH   4  41
ATOM     41  O5  KO1 d          -8.488   0.256  69.353  0.00  0.00    -0.390 OA
ATOM     42  H17 KO1 d          -8.640   0.322  68.418  0.00  0.00     0.210 HD
ENDBRANCH   4  41
BRANCH   1  43
ATOM     43  C1  KO1 d          -5.603   1.031  72.886  0.00  0.00     0.239 C 
ATOM     44  O1A KO1 d          -4.592   1.689  73.254  0.00  0.00    -0.644 OA
ATOM     45  O1B KO1 d          -5.697  -0.242  72.923  0.00  0.00    -0.644 OA
ENDBRANCH   1  43
BRANCH   1  46
ATOM     46  O2  KO1 d          -7.051   3.053  73.146  0.00  0.00    -0.343 OA
BRANCH  46  47
ATOM     47  C9  KO1 d          -7.929   3.984  73.692  0.00  0.00     0.038 C 
ATOM     48  H24 KO1 d          -7.308   4.621  74.339  0.00  0.00     0.080 H 
ATOM     49  H25 KO1 d          -8.623   3.397  74.312  0.00  0.00     0.080 H 
BRANCH  47  50
ATOM     50  C10 KO1 d          -8.748   4.879  72.966  0.00  0.00    -0.089 C 
ATOM     51  C11 KO1 d          -8.311   5.592  71.838  0.00  0.00    -0.123 C 
ATOM     52  H27 KO1 d          -8.992   6.267  71.322  0.00  0.00     0.066 H 
ATOM     53  H28 KO1 d          -7.290   5.470  71.478  0.00  0.00     0.066 H 
ATOM     54  H26 KO1 d          -9.775   5.023  73.299  0.00  0.00     0.078 H 
ENDBRANCH  47  50
ENDBRANCH  46  47
ENDBRANCH   1  46
BRANCH   5  55
ATOM     55  C7  KO1 d         -10.369   0.388  71.706  0.00  0.00     0.083 C 
ATOM     56  H19 KO1 d         -10.866   0.261  70.732  0.00  0.00     0.090 H 
BRANCH  55  57
ATOM     57  O7  KO1 d         -11.347   0.911  72.632  0.00  0.00    -0.391 OA
ATOM     58  H20 KO1 d         -12.211   0.858  72.241  0.00  0.00     0.210 HD
ENDBRANCH  55  57
BRANCH  55  59
ATOM     59  C8  KO1 d          -9.906  -1.026  72.169  0.00  0.00     0.043 C 
ATOM     60  H21 KO1 d         -10.775  -1.572  72.561  0.00  0.00     0.078 H 
ATOM     61  H22 KO1 d          -9.155  -0.910  72.965  0.00  0.00     0.078 H 
BRANCH  59  62
ATOM     62  O8  KO1 d          -9.322  -1.793  71.084  0.00  0.00    -0.398 OA
ATOM     63  H23 KO1 d          -8.451  -1.461  70.896  0.00  0.00     0.209 HD
ENDBRANCH  59  62
ENDBRANCH  55  59
ENDBRANCH   5  55
TORSDOF 19
ENDMDL
MODEL 6
REMARK VINA RESULT:      -4.1      2.026      7.046
REMARK  19 active torsions:
REMARK  status: ('A' for Active; 'I' for Inactive)
REMARK    1  A    between atoms: C2_4  and  C1_2 
REMARK    2  A    between atoms: O2_17  and  C2_4 
REMARK    3  A    between atoms: C6_6  and  C7_7 
REMARK    4  A    between atoms: C7_7  and  C8_8 
REMARK    5  A    between atoms: C7_7  and  O7_10 
REMARK    6  A    between atoms: C8_8  and  O8_9 
REMARK    7  A    between atoms: C5_11  and  O5_12 
REMARK    8  A    between atoms: C4_13  and  O4_14 
REMARK    9  A    between atoms: C3_15  and  O3_16 
REMARK   10  A    between atoms: C4_23  and  O2_17 
REMARK   11  A    between atoms: C2_21  and  C1_18 
REMARK   12  A    between atoms: C2_21  and  O2_32 
REMARK   13  A    between atoms: C5_24  and  O5_25 
REMARK   14  A    between atoms: C6_26  and  C7_28 
REMARK   15  A    between atoms: C7_28  and  O7_29 
REMARK   16  A    between atoms: C7_28  and  C8_30 
REMARK   17  A    between atoms: C8_30  and  O8_31 
REMARK   18  A    between atoms: O2_32  and  C9_33 
REMARK   19  A    between atoms: C9_33  and  C10_34 
ROOT
ATOM      1  C2  KO1 d          -8.508   1.865  65.821  0.00  0.00     0.259 C 
ATOM      2  C3  KO1 d          -8.492   1.003  67.122  0.00  0.00     0.024 C 
ATOM      3  C4  KO1 d          -8.825   1.760  68.433  0.00  0.00     0.075 C 
ATOM      4  C5  KO1 d          -8.065   3.095  68.646  0.00  0.00     0.088 C 
ATOM      5  C6  KO1 d          -8.260   3.958  67.361  0.00  0.00     0.096 C 
ATOM      6  O6  KO1 d          -7.964   3.182  66.127  0.00  0.00    -0.336 OA
ATOM      7  H13 KO1 d          -7.487   0.569  67.227  0.00  0.00     0.045 H 
ATOM      8  H14 KO1 d          -9.230   0.195  67.001  0.00  0.00     0.045 H 
ATOM      9  H15 KO1 d          -9.904   1.973  68.410  0.00  0.00     0.087 H 
ATOM     10  H16 KO1 d          -8.526   3.629  69.489  0.00  0.00     0.091 H 
ATOM     11  H18 KO1 d          -9.329   4.213  67.316  0.00  0.00     0.091 H 
ENDROOT
BRANCH   3  12
ATOM     12  O2  KO1 d          -8.518   0.991  69.639  0.00  0.00    -0.336 OA
BRANCH  12  13
ATOM     13  C2  KO1 d          -8.904  -0.425  69.726  0.00  0.00     0.286 C 
ATOM     14  O6  KO1 d          -7.633  -1.283  69.459  0.00  0.00    -0.334 OA
ATOM     15  C6  KO1 d          -6.518  -0.831  70.373  0.00  0.00     0.096 C 
ATOM     16  C5  KO1 d          -6.909  -1.138  71.820  0.00  0.00     0.090 C 
ATOM     17  H1  KO1 d          -6.354   0.253  70.283  0.00  0.00     0.091 H 
ATOM     18  C4  KO1 d          -8.192  -0.339  72.171  0.00  0.00     0.093 C 
ATOM     19  H7  KO1 d          -6.091  -0.848  72.497  0.00  0.00     0.091 H 
ATOM     20  C3  KO1 d          -9.387  -0.600  71.203  0.00  0.00     0.127 C 
ATOM     21  H9  KO1 d          -7.949   0.732  72.123  0.00  0.00     0.091 H 
ATOM     22  H11 KO1 d         -10.200   0.100  71.442  0.00  0.00     0.096 H 
BRANCH  13  23
ATOM     23  C1  KO1 d         -10.007  -0.930  68.768  0.00  0.00     0.241 C 
ATOM     24  OA1 KO1 d          -9.705  -1.698  67.815  0.00  0.00    -0.644 OA
ATOM     25  O1B KO1 d         -11.170  -0.577  68.967  0.00  0.00    -0.644 OA
ENDBRANCH  13  23
BRANCH  15  26
ATOM     26  C7  KO1 d          -5.273  -1.589  69.823  0.00  0.00     0.083 C 
ATOM     27  H2  KO1 d          -4.499  -0.856  69.554  0.00  0.00     0.090 H 
BRANCH  26  28
ATOM     28  C8  KO1 d          -4.637  -2.542  70.857  0.00  0.00     0.043 C 
ATOM     29  H3  KO1 d          -5.282  -2.676  71.738  0.00  0.00     0.078 H 
ATOM     30  H4  KO1 d          -3.646  -2.190  71.177  0.00  0.00     0.078 H 
BRANCH  28  31
ATOM     31  O8  KO1 d          -4.546  -3.754  70.075  0.00  0.00    -0.398 OA
ATOM     32  H5  KO1 d          -5.378  -4.212  70.103  0.00  0.00     0.209 HD
ENDBRANCH  28  31
ENDBRANCH  26  28
BRANCH  26  33
ATOM     33  O7  KO1 d          -5.743  -2.201  68.631  0.00  0.00    -0.391 OA
ATOM     34  H6  KO1 d          -6.314  -2.928  68.854  0.00  0.00     0.210 HD
ENDBRANCH  26  33
ENDBRANCH  15  26
BRANCH  16  35
ATOM     35  O5  KO1 d          -7.176  -2.546  71.956  0.00  0.00    -0.390 OA
ATOM     36  H8  KO1 d          -8.080  -2.720  71.721  0.00  0.00     0.210 HD
ENDBRANCH  16  35
BRANCH  18  37
ATOM     37  O4  KO1 d          -8.574  -0.660  73.488  0.00  0.00    -0.390 OA
ATOM     38  H10 KO1 d          -7.933  -1.251  73.867  0.00  0.00     0.210 HD
ENDBRANCH  18  37
BRANCH  20  39
ATOM     39  O3  KO1 d          -9.867  -1.929  71.214  0.00  0.00    -0.387 OA
ATOM     40  H12 KO1 d         -10.698  -1.968  70.756  0.00  0.00     0.210 HD
ENDBRANCH  20  39
ENDBRANCH  12  13
ENDBRANCH   3  12
BRANCH   4  41
ATOM     41  O5  KO1 d          -6.665   2.864  68.989  0.00  0.00    -0.390 OA
ATOM     42  H17 KO1 d          -6.609   2.514  69.870  0.00  0.00     0.210 HD
ENDBRANCH   4  41
BRANCH   1  43
ATOM     43  C1  KO1 d          -7.589   1.109  64.809  0.00  0.00     0.239 C 
ATOM     44  O1A KO1 d          -7.825   1.344  63.592  0.00  0.00    -0.644 OA
ATOM     45  O1B KO1 d          -6.693   0.306  65.235  0.00  0.00    -0.644 OA
ENDBRANCH   1  43
BRANCH   1  46
ATOM     46  O2  KO1 d          -9.825   2.124  65.281  0.00  0.00    -0.343 OA
BRANCH  46  47
ATOM     47  C9  KO1 d         -11.067   2.749  65.345  0.00  0.00     0.038 C 
ATOM     48  H24 KO1 d         -11.738   2.011  65.810  0.00  0.00     0.080 H 
ATOM     49  H25 KO1 d         -11.364   2.908  64.298  0.00  0.00     0.080 H 
BRANCH  47  50
ATOM     50  C10 KO1 d         -11.348   3.970  66.000  0.00  0.00    -0.089 C 
ATOM     51  C11 KO1 d         -11.150   5.231  65.413  0.00  0.00    -0.123 C 
ATOM     52  H27 KO1 d         -11.386   6.135  65.971  0.00  0.00     0.066 H 
ATOM     53  H28 KO1 d         -10.758   5.304  64.399  0.00  0.00     0.066 H 
ATOM     54  H26 KO1 d         -11.741   3.932  67.015  0.00  0.00     0.078 H 
ENDBRANCH  47  50
ENDBRANCH  46  47
ENDBRANCH   1  46
BRANCH   5  55
ATOM     55  C7  KO1 d          -7.495   5.308  67.430  0.00  0.00     0.083 C 
ATOM     56  H19 KO1 d          -8.000   5.920  68.193  0.00  0.00     0.090 H 
BRANCH  55  57
ATOM     57  O7  KO1 d          -7.580   6.018  66.174  0.00  0.00    -0.391 OA
ATOM     58  H20 KO1 d          -6.820   6.580  66.077  0.00  0.00     0.210 HD
ENDBRANCH  55  57
BRANCH  55  59
ATOM     59  C8  KO1 d          -6.005   5.175  67.864  0.00  0.00     0.043 C 
ATOM     60  H21 KO1 d          -5.379   5.742  67.159  0.00  0.00     0.078 H 
ATOM     61  H22 KO1 d          -5.721   4.113  67.835  0.00  0.00     0.078 H 
BRANCH  59  62
ATOM     62  O8  KO1 d          -5.778   5.683  69.204  0.00  0.00    -0.398 OA
ATOM     63  H23 KO1 d          -5.700   6.630  69.173  0.00  0.00     0.209 HD
ENDBRANCH  59  62
ENDBRANCH  55  59
ENDBRANCH   5  55
TORSDOF 19
ENDMDL
MODEL 7
REMARK VINA RESULT:      -3.5      2.247      7.067
REMARK  19 active torsions:
REMARK  status: ('A' for Active; 'I' for Inactive)
REMARK    1  A    between atoms: C2_4  and  C1_2 
REMARK    2  A    between atoms: O2_17  and  C2_4 
REMARK    3  A    between atoms: C6_6  and  C7_7 
REMARK    4  A    between atoms: C7_7  and  C8_8 
REMARK    5  A    between atoms: C7_7  and  O7_10 
REMARK    6  A    between atoms: C8_8  and  O8_9 
REMARK    7  A    between atoms: C5_11  and  O5_12 
REMARK    8  A    between atoms: C4_13  and  O4_14 
REMARK    9  A    between atoms: C3_15  and  O3_16 
REMARK   10  A    between atoms: C4_23  and  O2_17 
REMARK   11  A    between atoms: C2_21  and  C1_18 
REMARK   12  A    between atoms: C2_21  and  O2_32 
REMARK   13  A    between atoms: C5_24  and  O5_25 
REMARK   14  A    between atoms: C6_26  and  C7_28 
REMARK   15  A    between atoms: C7_28  and  O7_29 
REMARK   16  A    between atoms: C7_28  and  C8_30 
REMARK   17  A    between atoms: C8_30  and  O8_31 
REMARK   18  A    between atoms: O2_32  and  C9_33 
REMARK   19  A    between atoms: C9_33  and  C10_34 
ROOT
ATOM      1  C2  KO1 d          -6.920   3.504  68.468  0.00  0.00     0.259 C 
ATOM      2  C3  KO1 d          -7.160   2.158  69.221  0.00  0.00     0.024 C 
ATOM      3  C4  KO1 d          -8.440   2.096  70.094  0.00  0.00     0.075 C 
ATOM      4  C5  KO1 d          -8.665   3.305  71.039  0.00  0.00     0.088 C 
ATOM      5  C6  KO1 d          -8.559   4.601  70.177  0.00  0.00     0.096 C 
ATOM      6  O6  KO1 d          -7.337   4.602  69.331  0.00  0.00    -0.336 OA
ATOM      7  H13 KO1 d          -6.295   1.978  69.876  0.00  0.00     0.045 H 
ATOM      8  H14 KO1 d          -7.224   1.356  68.470  0.00  0.00     0.045 H 
ATOM      9  H15 KO1 d          -9.292   2.031  69.401  0.00  0.00     0.087 H 
ATOM     10  H16 KO1 d          -9.685   3.247  71.445  0.00  0.00     0.091 H 
ATOM     11  H18 KO1 d          -9.414   4.585  69.485  0.00  0.00     0.091 H 
ENDROOT
BRANCH   3  12
ATOM     12  O2  KO1 d          -8.471   0.943  70.994  0.00  0.00    -0.336 OA
BRANCH  12  13
ATOM     13  C2  KO1 d          -8.707  -0.404  70.455  0.00  0.00     0.286 C 
ATOM     14  O6  KO1 d          -7.396  -1.225  70.629  0.00  0.00    -0.334 OA
ATOM     15  C6  KO1 d          -6.938  -1.145  72.066  0.00  0.00     0.096 C 
ATOM     16  C5  KO1 d          -7.968  -1.848  72.954  0.00  0.00     0.090 C 
ATOM     17  H1  KO1 d          -6.858  -0.098  72.394  0.00  0.00     0.091 H 
ATOM     18  C4  KO1 d          -9.326  -1.108  72.825  0.00  0.00     0.093 C 
ATOM     19  H7  KO1 d          -7.631  -1.831  74.001  0.00  0.00     0.091 H 
ATOM     20  C3  KO1 d          -9.844  -0.984  71.359  0.00  0.00     0.127 C 
ATOM     21  H9  KO1 d          -9.197  -0.090  73.222  0.00  0.00     0.091 H 
ATOM     22  H11 KO1 d         -10.732  -0.336  71.348  0.00  0.00     0.096 H 
BRANCH  13  23
ATOM     23  C1  KO1 d          -9.128  -0.522  68.972  0.00  0.00     0.241 C 
ATOM     24  OA1 KO1 d          -8.346  -1.055  68.140  0.00  0.00    -0.644 OA
ATOM     25  O1B KO1 d         -10.236  -0.100  68.637  0.00  0.00    -0.644 OA
ENDBRANCH  13  23
BRANCH  15  26
ATOM     26  C7  KO1 d          -5.518  -1.784  72.026  0.00  0.00     0.083 C 
ATOM     27  H2  KO1 d          -5.503  -2.571  71.259  0.00  0.00     0.090 H 
BRANCH  26  28
ATOM     28  C8  KO1 d          -4.409  -0.779  71.649  0.00  0.00     0.043 C 
ATOM     29  H3  KO1 d          -4.083  -0.906  70.606  0.00  0.00     0.078 H 
ATOM     30  H4  KO1 d          -3.541  -0.864  72.318  0.00  0.00     0.078 H 
BRANCH  28  31
ATOM     31  O8  KO1 d          -5.111   0.470  71.841  0.00  0.00    -0.398 OA
ATOM     32  H5  KO1 d          -5.852   0.330  72.419  0.00  0.00     0.209 HD
ENDBRANCH  28  31
ENDBRANCH  26  28
BRANCH  26  33
ATOM     33  O7  KO1 d          -5.383  -2.399  73.299  0.00  0.00    -0.391 OA
ATOM     34  H6  KO1 d          -5.157  -3.315  73.185  0.00  0.00     0.210 HD
ENDBRANCH  26  33
ENDBRANCH  15  26
BRANCH  16  35
ATOM     35  O5  KO1 d          -8.127  -3.210  72.517  0.00  0.00    -0.390 OA
ATOM     36  H8  KO1 d          -8.885  -3.272  71.948  0.00  0.00     0.210 HD
ENDBRANCH  16  35
BRANCH  18  37
ATOM     37  O4  KO1 d         -10.281  -1.785  73.607  0.00  0.00    -0.390 OA
ATOM     38  H10 KO1 d         -11.042  -1.228  73.729  0.00  0.00     0.210 HD
ENDBRANCH  18  37
BRANCH  20  39
ATOM     39  O3  KO1 d         -10.133  -2.219  70.736  0.00  0.00    -0.387 OA
ATOM     40  H12 KO1 d         -11.075  -2.339  70.696  0.00  0.00     0.210 HD
ENDBRANCH  20  39
ENDBRANCH  12  13
ENDBRANCH   3  12
BRANCH   4  41
ATOM     41  O5  KO1 d          -7.743   3.278  72.170  0.00  0.00    -0.390 OA
ATOM     42  H17 KO1 d          -7.168   2.525  72.091  0.00  0.00     0.210 HD
ENDBRANCH   4  41
BRANCH   1  43
ATOM     43  C1  KO1 d          -5.382   3.563  68.200  0.00  0.00     0.239 C 
ATOM     44  O1A KO1 d          -4.760   4.453  68.842  0.00  0.00    -0.644 OA
ATOM     45  O1B KO1 d          -4.847   2.758  67.367  0.00  0.00    -0.644 OA
ENDBRANCH   1  43
BRANCH   1  46
ATOM     46  O2  KO1 d          -7.697   3.668  67.258  0.00  0.00    -0.343 OA
BRANCH  46  47
ATOM     47  C9  KO1 d          -8.206   3.174  66.061  0.00  0.00     0.038 C 
ATOM     48  H24 KO1 d          -8.127   4.008  65.348  0.00  0.00     0.080 H 
ATOM     49  H25 KO1 d          -9.267   2.964  66.264  0.00  0.00     0.080 H 
BRANCH  47  50
ATOM     50  C10 KO1 d          -7.732   2.040  65.362  0.00  0.00    -0.089 C 
ATOM     51  C11 KO1 d          -8.540   1.240  64.538  0.00  0.00    -0.123 C 
ATOM     52  H27 KO1 d          -8.113   0.379  64.027  0.00  0.00     0.066 H 
ATOM     53  H28 KO1 d          -9.595   1.481  64.411  0.00  0.00     0.066 H 
ATOM     54  H26 KO1 d          -6.681   1.773  65.468  0.00  0.00     0.078 H 
ENDBRANCH  47  50
ENDBRANCH  46  47
ENDBRANCH   1  46
BRANCH   5  55
ATOM     55  C7  KO1 d          -8.714   5.893  71.026  0.00  0.00     0.083 C 
ATOM     56  H19 KO1 d          -8.642   6.742  70.329  0.00  0.00     0.090 H 
BRANCH  55  57
ATOM     57  O7  KO1 d          -7.638   6.018  71.982  0.00  0.00    -0.391 OA
ATOM     58  H20 KO1 d          -7.275   6.895  71.935  0.00  0.00     0.210 HD
ENDBRANCH  55  57
BRANCH  55  59
ATOM     59  C8  KO1 d         -10.086   6.017  71.753  0.00  0.00     0.043 C 
ATOM     60  H21 KO1 d         -10.748   5.213  71.399  0.00  0.00     0.078 H 
ATOM     61  H22 KO1 d         -10.531   6.993  71.508  0.00  0.00     0.078 H 
BRANCH  59  62
ATOM     62  O8  KO1 d          -9.954   5.912  73.194  0.00  0.00    -0.398 OA
ATOM     63  H23 KO1 d          -9.546   6.701  73.531  0.00  0.00     0.209 HD
ENDBRANCH  59  62
ENDBRANCH  55  59
ENDBRANCH   5  55
TORSDOF 19
ENDMDL
MODEL 8
REMARK VINA RESULT:      -3.4      2.089      7.126
REMARK  19 active torsions:
REMARK  status: ('A' for Active; 'I' for Inactive)
REMARK    1  A    between atoms: C2_4  and  C1_2 
REMARK    2  A    between atoms: O2_17  and  C2_4 
REMARK    3  A    between atoms: C6_6  and  C7_7 
REMARK    4  A    between atoms: C7_7  and  C8_8 
REMARK    5  A    between atoms: C7_7  and  O7_10 
REMARK    6  A    between atoms: C8_8  and  O8_9 
REMARK    7  A    between atoms: C5_11  and  O5_12 
REMARK    8  A    between atoms: C4_13  and  O4_14 
REMARK    9  A    between atoms: C3_15  and  O3_16 
REMARK   10  A    between atoms: C4_23  and  O2_17 
REMARK   11  A    between atoms: C2_21  and  C1_18 
REMARK   12  A    between atoms: C2_21  and  O2_32 
REMARK   13  A    between atoms: C5_24  and  O5_25 
REMARK   14  A    between atoms: C6_26  and  C7_28 
REMARK   15  A    between atoms: C7_28  and  O7_29 
REMARK   16  A    between atoms: C7_28  and  C8_30 
REMARK   17  A    between atoms: C8_30  and  O8_31 
REMARK   18  A    between atoms: O2_32  and  C9_33 
REMARK   19  A    between atoms: C9_33  and  C10_34 
ROOT
ATOM      1  C2  KO1 d          -7.831   3.891  68.474  0.00  0.00     0.259 C 
ATOM      2  C3  KO1 d          -7.398   3.115  69.757  0.00  0.00     0.024 C 
ATOM      3  C4  KO1 d          -7.607   1.580  69.716  0.00  0.00     0.075 C 
ATOM      4  C5  KO1 d          -9.002   1.107  69.229  0.00  0.00     0.088 C 
ATOM      5  C6  KO1 d          -9.289   1.813  67.868  0.00  0.00     0.096 C 
ATOM      6  O6  KO1 d          -9.042   3.277  67.944  0.00  0.00    -0.336 OA
ATOM      7  H13 KO1 d          -7.976   3.513  70.604  0.00  0.00     0.045 H 
ATOM      8  H14 KO1 d          -6.327   3.306  69.923  0.00  0.00     0.045 H 
ATOM      9  H15 KO1 d          -6.845   1.175  69.034  0.00  0.00     0.087 H 
ATOM     10  H16 KO1 d          -8.961   0.023  69.050  0.00  0.00     0.091 H 
ATOM     11  H18 KO1 d          -8.558   1.413  67.150  0.00  0.00     0.091 H 
ENDROOT
BRANCH   3  12
ATOM     12  O2  KO1 d          -7.462   0.941  71.024  0.00  0.00    -0.336 OA
BRANCH  12  13
ATOM     13  C2  KO1 d          -6.167   0.371  71.424  0.00  0.00     0.286 C 
ATOM     14  O6  KO1 d          -6.445  -0.778  72.438  0.00  0.00    -0.334 OA
ATOM     15  C6  KO1 d          -7.451  -1.739  71.848  0.00  0.00     0.096 C 
ATOM     16  C5  KO1 d          -6.826  -2.424  70.630  0.00  0.00     0.090 C 
ATOM     17  H1  KO1 d          -8.354  -1.205  71.517  0.00  0.00     0.091 H 
ATOM     18  C4  KO1 d          -6.489  -1.345  69.567  0.00  0.00     0.093 C 
ATOM     19  H7  KO1 d          -7.533  -3.155  70.210  0.00  0.00     0.091 H 
ATOM     20  C3  KO1 d          -5.572  -0.199  70.095  0.00  0.00     0.127 C 
ATOM     21  H9  KO1 d          -7.434  -0.891  69.233  0.00  0.00     0.091 H 
ATOM     22  H11 KO1 d          -5.498   0.582  69.325  0.00  0.00     0.096 H 
BRANCH  13  23
ATOM     23  C1  KO1 d          -5.136   1.318  72.077  0.00  0.00     0.241 C 
ATOM     24  OA1 KO1 d          -4.284   1.907  71.358  0.00  0.00    -0.644 OA
ATOM     25  O1B KO1 d          -5.178   1.490  73.297  0.00  0.00    -0.644 OA
ENDBRANCH  13  23
BRANCH  15  26
ATOM     26  C7  KO1 d          -7.808  -2.666  73.048  0.00  0.00     0.083 C 
ATOM     27  H2  KO1 d          -7.188  -2.385  73.911  0.00  0.00     0.090 H 
BRANCH  26  28
ATOM     28  C8  KO1 d          -9.277  -2.537  73.499  0.00  0.00     0.043 C 
ATOM     29  H3  KO1 d          -9.720  -1.583  73.176  0.00  0.00     0.078 H 
ATOM     30  H4  KO1 d          -9.377  -2.637  74.589  0.00  0.00     0.078 H 
BRANCH  28  31
ATOM     31  O8  KO1 d          -9.865  -3.660  72.804  0.00  0.00    -0.398 OA
ATOM     32  H5  KO1 d          -9.805  -4.435  73.350  0.00  0.00     0.209 HD
ENDBRANCH  28  31
ENDBRANCH  26  28
BRANCH  26  33
ATOM     33  O7  KO1 d          -7.410  -3.957  72.613  0.00  0.00    -0.391 OA
ATOM     34  H6  KO1 d          -7.741  -4.111  71.735  0.00  0.00     0.210 HD
ENDBRANCH  26  33
ENDBRANCH  15  26
BRANCH  16  35
ATOM     35  O5  KO1 d          -5.614  -3.092  71.026  0.00  0.00    -0.390 OA
ATOM     36  H8  KO1 d          -5.554  -3.101  71.974  0.00  0.00     0.210 HD
ENDBRANCH  16  35
BRANCH  18  37
ATOM     37  O4  KO1 d          -5.873  -1.974  68.468  0.00  0.00    -0.390 OA
ATOM     38  H10 KO1 d          -6.537  -2.230  67.839  0.00  0.00     0.210 HD
ENDBRANCH  18  37
BRANCH  20  39
ATOM     39  O3  KO1 d          -4.282  -0.620  70.490  0.00  0.00    -0.387 OA
ATOM     40  H12 KO1 d          -4.109  -0.317  71.374  0.00  0.00     0.210 HD
ENDBRANCH  20  39
ENDBRANCH  12  13
ENDBRANCH   3  12
BRANCH   4  41
ATOM     41  O5  KO1 d         -10.028   1.344  70.239  0.00  0.00    -0.390 OA
ATOM     42  H17 KO1 d         -10.842   1.587  69.812  0.00  0.00     0.210 HD
ENDBRANCH   4  41
BRANCH   1  43
ATOM     43  C1  KO1 d          -8.113   5.353  68.947  0.00  0.00     0.239 C 
ATOM     44  O1A KO1 d          -7.207   5.871  69.656  0.00  0.00    -0.644 OA
ATOM     45  O1B KO1 d          -9.207   5.928  68.629  0.00  0.00    -0.644 OA
ENDBRANCH   1  43
BRANCH   1  46
ATOM     46  O2  KO1 d          -6.880   3.838  67.385  0.00  0.00    -0.343 OA
BRANCH  46  47
ATOM     47  C9  KO1 d          -6.381   3.241  66.231  0.00  0.00     0.038 C 
ATOM     48  H24 KO1 d          -5.581   2.570  66.577  0.00  0.00     0.080 H 
ATOM     49  H25 KO1 d          -5.943   4.064  65.647  0.00  0.00     0.080 H 
BRANCH  47  50
ATOM     50  C10 KO1 d          -7.126   2.482  65.301  0.00  0.00    -0.089 C 
ATOM     51  C11 KO1 d          -6.665   1.287  64.725  0.00  0.00    -0.123 C 
ATOM     52  H27 KO1 d          -7.289   0.749  64.013  0.00  0.00     0.066 H 
ATOM     53  H28 KO1 d          -5.683   0.898  64.991  0.00  0.00     0.066 H 
ATOM     54  H26 KO1 d          -8.113   2.844  65.014  0.00  0.00     0.078 H 
ENDBRANCH  47  50
ENDBRANCH  46  47
ENDBRANCH   1  46
BRANCH   5  55
ATOM     55  C7  KO1 d         -10.691   1.460  67.300  0.00  0.00     0.083 C 
ATOM     56  H19 KO1 d         -11.429   1.976  67.932  0.00  0.00     0.090 H 
BRANCH  55  57
ATOM     57  O7  KO1 d         -10.948   0.041  67.395  0.00  0.00    -0.391 OA
ATOM     58  H20 KO1 d         -11.882  -0.116  67.325  0.00  0.00     0.210 HD
ENDBRANCH  55  57
BRANCH  55  59
ATOM     59  C8  KO1 d         -10.926   1.943  65.838  0.00  0.00     0.043 C 
ATOM     60  H21 KO1 d         -12.008   2.012  65.657  0.00  0.00     0.078 H 
ATOM     61  H22 KO1 d         -10.485   1.209  65.146  0.00  0.00     0.078 H 
BRANCH  59  62
ATOM     62  O8  KO1 d         -10.326   3.240  65.587  0.00  0.00    -0.398 OA
ATOM     63  H23 KO1 d          -9.897   3.547  66.376  0.00  0.00     0.209 HD
ENDBRANCH  59  62
ENDBRANCH  55  59
ENDBRANCH   5  55
TORSDOF 19
ENDMDL
MODEL 9
REMARK VINA RESULT:      -3.3      2.119      7.151
REMARK  19 active torsions:
REMARK  status: ('A' for Active; 'I' for Inactive)
REMARK    1  A    between atoms: C2_4  and  C1_2 
REMARK    2  A    between atoms: O2_17  and  C2_4 
REMARK    3  A    between atoms: C6_6  and  C7_7 
REMARK    4  A    between atoms: C7_7  and  C8_8 
REMARK    5  A    between atoms: C7_7  and  O7_10 
REMARK    6  A    between atoms: C8_8  and  O8_9 
REMARK    7  A    between atoms: C5_11  and  O5_12 
REMARK    8  A    between atoms: C4_13  and  O4_14 
REMARK    9  A    between atoms: C3_15  and  O3_16 
REMARK   10  A    between atoms: C4_23  and  O2_17 
REMARK   11  A    between atoms: C2_21  and  C1_18 
REMARK   12  A    between atoms: C2_21  and  O2_32 
REMARK   13  A    between atoms: C5_24  and  O5_25 
REMARK   14  A    between atoms: C6_26  and  C7_28 
REMARK   15  A    between atoms: C7_28  and  O7_29 
REMARK   16  A    between atoms: C7_28  and  C8_30 
REMARK   17  A    between atoms: C8_30  and  O8_31 
REMARK   18  A    between atoms: O2_32  and  C9_33 
REMARK   19  A    between atoms: C9_33  and  C10_34 
ROOT
ATOM      1  C2  KO1 d          -6.934   3.642  67.883  0.00  0.00     0.259 C 
ATOM      2  C3  KO1 d          -7.013   2.684  69.113  0.00  0.00     0.024 C 
ATOM      3  C4  KO1 d          -8.144   1.626  69.068  0.00  0.00     0.075 C 
ATOM      4  C5  KO1 d          -9.550   2.165  68.697  0.00  0.00     0.088 C 
ATOM      5  C6  KO1 d          -9.408   2.982  67.376  0.00  0.00     0.096 C 
ATOM      6  O6  KO1 d          -8.289   3.959  67.451  0.00  0.00    -0.336 OA
ATOM      7  H13 KO1 d          -7.161   3.300  70.012  0.00  0.00     0.045 H 
ATOM      8  H14 KO1 d          -6.053   2.150  69.189  0.00  0.00     0.045 H 
ATOM      9  H15 KO1 d          -7.848   0.878  68.318  0.00  0.00     0.087 H 
ATOM     10  H16 KO1 d         -10.212   1.309  68.500  0.00  0.00     0.091 H 
ATOM     11  H18 KO1 d          -9.135   2.260  66.592  0.00  0.00     0.091 H 
ENDROOT
BRANCH   3  12
ATOM     12  O2  KO1 d          -8.358   0.953  70.350  0.00  0.00    -0.336 OA
BRANCH  12  13
ATOM     13  C2  KO1 d          -7.445   1.205  71.474  0.00  0.00     0.286 C 
ATOM     14  O6  KO1 d          -7.633   0.056  72.508  0.00  0.00    -0.334 OA
ATOM     15  C6  KO1 d          -7.492  -1.277  71.811  0.00  0.00     0.096 C 
ATOM     16  C5  KO1 d          -6.054  -1.424  71.309  0.00  0.00     0.090 C 
ATOM     17  H1  KO1 d          -8.168  -1.339  70.945  0.00  0.00     0.091 H 
ATOM     18  C4  KO1 d          -5.765  -0.296  70.283  0.00  0.00     0.093 C 
ATOM     19  H7  KO1 d          -5.924  -2.406  70.831  0.00  0.00     0.091 H 
ATOM     20  C3  KO1 d          -6.021   1.142  70.832  0.00  0.00     0.127 C 
ATOM     21  H9  KO1 d          -6.426  -0.447  69.418  0.00  0.00     0.091 H 
ATOM     22  H11 KO1 d          -5.923   1.862  70.007  0.00  0.00     0.096 H 
BRANCH  13  23
ATOM     23  C1  KO1 d          -7.598   2.539  72.239  0.00  0.00     0.241 C 
ATOM     24  OA1 KO1 d          -8.235   3.493  71.714  0.00  0.00    -0.644 OA
ATOM     25  O1B KO1 d          -7.101   2.638  73.362  0.00  0.00    -0.644 OA
ENDBRANCH  13  23
BRANCH  15  26
ATOM     26  C7  KO1 d          -7.947  -2.298  72.895  0.00  0.00     0.083 C 
ATOM     27  H2  KO1 d          -7.614  -1.943  73.881  0.00  0.00     0.090 H 
BRANCH  26  28
ATOM     28  C8  KO1 d          -9.480  -2.454  72.978  0.00  0.00     0.043 C 
ATOM     29  H3  KO1 d          -9.904  -1.873  73.811  0.00  0.00     0.078 H 
ATOM     30  H4  KO1 d          -9.776  -3.508  73.079  0.00  0.00     0.078 H 
BRANCH  28  31
ATOM     31  O8  KO1 d          -9.869  -1.911  71.697  0.00  0.00    -0.398 OA
ATOM     32  H5  KO1 d         -10.698  -2.293  71.431  0.00  0.00     0.209 HD
ENDBRANCH  28  31
ENDBRANCH  26  28
BRANCH  26  33
ATOM     33  O7  KO1 d          -7.226  -3.479  72.578  0.00  0.00    -0.391 OA
ATOM     34  H6  KO1 d          -6.294  -3.314  72.669  0.00  0.00     0.210 HD
ENDBRANCH  26  33
ENDBRANCH  15  26
BRANCH  16  35
ATOM     35  O5  KO1 d          -5.145  -1.300  72.418  0.00  0.00    -0.390 OA
ATOM     36  H8  KO1 d          -5.398  -0.555  72.952  0.00  0.00     0.210 HD
ENDBRANCH  16  35
BRANCH  18  37
ATOM     37  O4  KO1 d          -4.427  -0.407  69.859  0.00  0.00    -0.390 OA
ATOM     38  H10 KO1 d          -4.407  -0.629  68.935  0.00  0.00     0.210 HD
ENDBRANCH  18  37
BRANCH  20  39
ATOM     39  O3  KO1 d          -5.181   1.513  71.907  0.00  0.00    -0.387 OA
ATOM     40  H12 KO1 d          -5.157   0.810  72.545  0.00  0.00     0.210 HD
ENDBRANCH  20  39
ENDBRANCH  12  13
ENDBRANCH   3  12
BRANCH   4  41
ATOM     41  O5  KO1 d         -10.137   2.927  69.795  0.00  0.00    -0.390 OA
ATOM     42  H17 KO1 d         -10.286   3.822  69.515  0.00  0.00     0.210 HD
ENDBRANCH   4  41
BRANCH   1  43
ATOM     43  C1  KO1 d          -6.204   4.923  68.399  0.00  0.00     0.239 C 
ATOM     44  O1A KO1 d          -6.885   5.984  68.352  0.00  0.00    -0.644 OA
ATOM     45  O1B KO1 d          -4.997   4.850  68.809  0.00  0.00    -0.644 OA
ENDBRANCH   1  43
BRANCH   1  46
ATOM     46  O2  KO1 d          -6.294   3.076  66.715  0.00  0.00    -0.343 OA
BRANCH  46  47
ATOM     47  C9  KO1 d          -6.332   2.300  65.561  0.00  0.00     0.038 C 
ATOM     48  H24 KO1 d          -5.298   1.956  65.410  0.00  0.00     0.080 H 
ATOM     49  H25 KO1 d          -6.609   2.995  64.755  0.00  0.00     0.080 H 
BRANCH  47  50
ATOM     50  C10 KO1 d          -7.138   1.156  65.357  0.00  0.00    -0.089 C 
ATOM     51  C11 KO1 d          -7.669   0.792  64.109  0.00  0.00    -0.123 C 
ATOM     52  H27 KO1 d          -8.283  -0.103  64.018  0.00  0.00     0.066 H 
ATOM     53  H28 KO1 d          -7.466   1.404  63.231  0.00  0.00     0.066 H 
ATOM     54  H26 KO1 d          -7.359   0.522  66.214  0.00  0.00     0.078 H 
ENDBRANCH  47  50
ENDBRANCH  46  47
ENDBRANCH   1  46
BRANCH   5  55
ATOM     55  C7  KO1 d         -10.749   3.623  66.926  0.00  0.00     0.083 C 
ATOM     56  H19 KO1 d         -11.532   3.218  67.585  0.00  0.00     0.090 H 
BRANCH  55  57
ATOM     57  O7  KO1 d         -11.077   3.244  65.571  0.00  0.00    -0.391 OA
ATOM     58  H20 KO1 d         -11.811   3.764  65.267  0.00  0.00     0.210 HD
ENDBRANCH  55  57
BRANCH  55  59
ATOM     59  C8  KO1 d         -10.792   5.174  67.067  0.00  0.00     0.043 C 
ATOM     60  H21 KO1 d         -11.839   5.505  67.014  0.00  0.00     0.078 H 
ATOM     61  H22 KO1 d         -10.224   5.622  66.238  0.00  0.00     0.078 H 
BRANCH  59  62
ATOM     62  O8  KO1 d         -10.221   5.626  68.322  0.00  0.00    -0.398 OA
ATOM     63  H23 KO1 d          -9.324   5.320  68.389  0.00  0.00     0.209 HD
ENDBRANCH  59  62
ENDBRANCH  55  59
ENDBRANCH   5  55
TORSDOF 19
ENDMDL
MODEL 10
REMARK VINA RESULT:      -3.1      2.027      6.750
REMARK  19 active torsions:
REMARK  status: ('A' for Active; 'I' for Inactive)
REMARK    1  A    between atoms: C2_4  and  C1_2 
REMARK    2  A    between atoms: O2_17  and  C2_4 
REMARK    3  A    between atoms: C6_6  and  C7_7 
REMARK    4  A    between atoms: C7_7  and  C8_8 
REMARK    5  A    between atoms: C7_7  and  O7_10 
REMARK    6  A    between atoms: C8_8  and  O8_9 
REMARK    7  A    between atoms: C5_11  and  O5_12 
REMARK    8  A    between atoms: C4_13  and  O4_14 
REMARK    9  A    between atoms: C3_15  and  O3_16 
REMARK   10  A    between atoms: C4_23  and  O2_17 
REMARK   11  A    between atoms: C2_21  and  C1_18 
REMARK   12  A    between atoms: C2_21  and  O2_32 
REMARK   13  A    between atoms: C5_24  and  O5_25 
REMARK   14  A    between atoms: C6_26  and  C7_28 
REMARK   15  A    between atoms: C7_28  and  O7_29 
REMARK   16  A    between atoms: C7_28  and  C8_30 
REMARK   17  A    between atoms: C8_30  and  O8_31 
REMARK   18  A    between atoms: O2_32  and  C9_33 
REMARK   19  A    between atoms: C9_33  and  C10_34 
ROOT
ATOM      1  C2  KO1 d          -7.997   3.695  68.163  0.00  0.00     0.259 C 
ATOM      2  C3  KO1 d          -8.866   2.873  69.167  0.00  0.00     0.024 C 
ATOM      3  C4  KO1 d          -9.044   1.372  68.828  0.00  0.00     0.075 C 
ATOM      4  C5  KO1 d          -9.447   1.059  67.364  0.00  0.00     0.088 C 
ATOM      5  C6  KO1 d          -8.437   1.794  66.430  0.00  0.00     0.096 C 
ATOM      6  O6  KO1 d          -8.271   3.221  66.812  0.00  0.00    -0.336 OA
ATOM      7  H13 KO1 d          -9.865   3.333  69.203  0.00  0.00     0.045 H 
ATOM      8  H14 KO1 d          -8.395   2.943  70.158  0.00  0.00     0.045 H 
ATOM      9  H15 KO1 d          -8.079   0.885  69.035  0.00  0.00     0.087 H 
ATOM     10  H16 KO1 d          -9.344  -0.023  67.196  0.00  0.00     0.091 H 
ATOM     11  H18 KO1 d          -7.459   1.315  66.591  0.00  0.00     0.091 H 
ENDROOT
BRANCH   3  12
ATOM     12  O2  KO1 d         -10.085   0.719  69.621  0.00  0.00    -0.336 OA
BRANCH  12  13
ATOM     13  C2  KO1 d         -10.088  -0.744  69.770  0.00  0.00     0.286 C 
ATOM     14  O6  KO1 d          -8.630  -1.248  69.564  0.00  0.00    -0.334 OA
ATOM     15  C6  KO1 d          -7.699  -0.480  70.473  0.00  0.00     0.096 C 
ATOM     16  C5  KO1 d          -8.035  -0.819  71.927  0.00  0.00     0.090 C 
ATOM     17  H1  KO1 d          -7.822   0.604  70.334  0.00  0.00     0.091 H 
ATOM     18  C4  KO1 d          -9.492  -0.372  72.219  0.00  0.00     0.093 C 
ATOM     19  H7  KO1 d          -7.341  -0.296  72.602  0.00  0.00     0.091 H 
ATOM     20  C3  KO1 d         -10.549  -0.978  71.246  0.00  0.00     0.127 C 
ATOM     21  H9  KO1 d          -9.537   0.723  72.124  0.00  0.00     0.091 H 
ATOM     22  H11 KO1 d         -11.524  -0.506  71.439  0.00  0.00     0.096 H 
BRANCH  13  23
ATOM     23  C1  KO1 d         -10.994  -1.561  68.820  0.00  0.00     0.241 C 
ATOM     24  OA1 KO1 d         -11.343  -1.070  67.713  0.00  0.00    -0.644 OA
ATOM     25  O1B KO1 d         -11.346  -2.690  69.164  0.00  0.00    -0.644 OA
ENDBRANCH  13  23
BRANCH  15  26
ATOM     26  C7  KO1 d          -6.284  -0.907  69.980  0.00  0.00     0.083 C 
ATOM     27  H2  KO1 d          -5.770  -0.027  69.567  0.00  0.00     0.090 H 
BRANCH  26  28
ATOM     28  C8  KO1 d          -5.385  -1.452  71.110  0.00  0.00     0.043 C 
ATOM     29  H3  KO1 d          -5.980  -1.860  71.941  0.00  0.00     0.078 H 
ATOM     30  H4  KO1 d          -4.701  -0.681  71.492  0.00  0.00     0.078 H 
BRANCH  28  31
ATOM     31  O8  KO1 d          -4.675  -2.492  70.401  0.00  0.00    -0.398 OA
ATOM     32  H5  KO1 d          -5.255  -3.232  70.262  0.00  0.00     0.209 HD
ENDBRANCH  28  31
ENDBRANCH  26  28
BRANCH  26  33
ATOM     33  O7  KO1 d          -6.549  -1.810  68.917  0.00  0.00    -0.391 OA
ATOM     34  H6  KO1 d          -7.447  -1.699  68.625  0.00  0.00     0.210 HD
ENDBRANCH  26  33
ENDBRANCH  15  26
BRANCH  16  35
ATOM     35  O5  KO1 d          -7.927  -2.240  72.125  0.00  0.00    -0.390 OA
ATOM     36  H8  KO1 d          -8.658  -2.541  72.653  0.00  0.00     0.210 HD
ENDBRANCH  16  35
BRANCH  18  37
ATOM     37  O4  KO1 d          -9.813  -0.726  73.544  0.00  0.00    -0.390 OA
ATOM     38  H10 KO1 d         -10.586  -1.278  73.545  0.00  0.00     0.210 HD
ENDBRANCH  18  37
BRANCH  20  39
ATOM     39  O3  KO1 d         -10.665  -2.385  71.313  0.00  0.00    -0.387 OA
ATOM     40  H12 KO1 d         -11.529  -2.645  71.015  0.00  0.00     0.210 HD
ENDBRANCH  20  39
ENDBRANCH  12  13
ENDBRANCH   3  12
BRANCH   4  41
ATOM     41  O5  KO1 d         -10.841   1.408  67.108  0.00  0.00    -0.390 OA
ATOM     42  H17 KO1 d         -10.986   2.319  67.336  0.00  0.00     0.210 HD
ENDBRANCH   4  41
BRANCH   1  43
ATOM     43  C1  KO1 d          -8.456   5.179  68.333  0.00  0.00     0.239 C 
ATOM     44  O1A KO1 d          -9.566   5.460  67.804  0.00  0.00    -0.644 OA
ATOM     45  O1B KO1 d          -7.713   6.011  68.953  0.00  0.00    -0.644 OA
ENDBRANCH   1  43
BRANCH   1  46
ATOM     46  O2  KO1 d          -6.569   3.537  68.329  0.00  0.00    -0.343 OA
BRANCH  46  47
ATOM     47  C9  KO1 d          -5.335   3.071  67.886  0.00  0.00     0.038 C 
ATOM     48  H24 KO1 d          -4.967   3.842  67.193  0.00  0.00     0.080 H 
ATOM     49  H25 KO1 d          -5.558   2.151  67.326  0.00  0.00     0.080 H 
BRANCH  47  50
ATOM     50  C10 KO1 d          -4.228   2.747  68.704  0.00  0.00    -0.089 C 
ATOM     51  C11 KO1 d          -4.298   1.866  69.795  0.00  0.00    -0.123 C 
ATOM     52  H27 KO1 d          -3.408   1.659  70.386  0.00  0.00     0.066 H 
ATOM     53  H28 KO1 d          -5.244   1.389  70.050  0.00  0.00     0.066 H 
ATOM     54  H26 KO1 d          -3.267   3.207  68.476  0.00  0.00     0.078 H 
ENDBRANCH  47  50
ENDBRANCH  46  47
ENDBRANCH   1  46
BRANCH   5  55
ATOM     55  C7  KO1 d          -8.770   1.600  64.925  0.00  0.00     0.083 C 
ATOM     56  H19 KO1 d          -9.125   2.573  64.551  0.00  0.00     0.090 H 
BRANCH  55  57
ATOM     57  O7  KO1 d          -9.841   0.646  64.748  0.00  0.00    -0.391 OA
ATOM     58  H20 KO1 d          -9.808   0.003  65.446  0.00  0.00     0.210 HD
ENDBRANCH  55  57
BRANCH  55  59
ATOM     59  C8  KO1 d          -7.548   1.194  64.049  0.00  0.00     0.043 C 
ATOM     60  H21 KO1 d          -7.731   1.517  63.014  0.00  0.00     0.078 H 
ATOM     61  H22 KO1 d          -7.439   0.099  64.077  0.00  0.00     0.078 H 
BRANCH  59  62
ATOM     62  O8  KO1 d          -6.314   1.797  64.516  0.00  0.00    -0.398 OA
ATOM     63  H23 KO1 d          -5.611   1.160  64.462  0.00  0.00     0.209 HD
ENDBRANCH  59  62
ENDBRANCH  55  59
ENDBRANCH   5  55
TORSDOF 19
ENDMDL
