REMARK  5 active torsions:
REMARK  status: ('A' for Active; 'I' for Inactive)
REMARK    1  A    between atoms: C1_1  and  O4_4 
REMARK    2  A    between atoms: C2_2  and  O5_5 
REMARK    3  A    between atoms: C3_3  and  O7_7 
REMARK    4  A    between atoms: C8_8  and  C9_9 
REMARK    5  A    between atoms: C9_9  and  O11_11 
ROOT
ATOM      1  C1  MNM d          27.942  47.199   0.266  0.00  0.00     0.110 C 
ATOM      2  C2  MNM d          27.340  45.888  -0.266  0.00  0.00     0.217 C 
ATOM      3  C3  MNM d          27.621  48.383  -0.671  0.00  0.00     0.071 C 
ATOM      4  N6  MNM d          27.445  45.779  -1.716  0.00  0.00    -0.046 N 
ATOM      5  C8  MNM d          26.503  48.075  -1.706  0.00  0.00     0.017 C 
ATOM      6  C10 MNM d          26.973  46.888  -2.559  0.00  0.00     0.092 C 
ATOM      7  H1  MNM d          27.502  47.405   1.253  0.00  0.00     0.093 H 
ATOM      8  H2  MNM d          26.279  45.873   0.023  0.00  0.00     0.133 H 
ATOM      9  H3  MNM d          28.535  48.594  -1.246  0.00  0.00     0.087 H 
ATOM     10  H6  MNM d          26.923  44.961  -1.988  0.00  0.00     0.280 HD
ATOM     11  H7  MNM d          28.420  45.642  -1.930  0.00  0.00     0.280 HD
ATOM     12  H9  MNM d          25.602  47.769  -1.154  0.00  0.00     0.049 H 
ATOM     13  H12 MNM d          26.134  46.536  -3.177  0.00  0.00     0.076 H 
ATOM     14  H13 MNM d          27.795  47.218  -3.211  0.00  0.00     0.076 H 
ENDROOT
BRANCH   5  15
ATOM     15  C9  MNM d          26.115  49.300  -2.575  0.00  0.00     0.024 C 
ATOM     16  H10 MNM d          25.826  50.133  -1.917  0.00  0.00     0.074 H 
ATOM     17  H11 MNM d          25.266  49.031  -3.220  0.00  0.00     0.074 H 
BRANCH  15  18
ATOM     18  O11 MNM d          27.212  49.705  -3.389  0.00  0.00    -0.400 OA
ATOM     19  H14 MNM d          26.956  50.455  -3.913  0.00  0.00     0.209 HD
ENDBRANCH  15  18
ENDBRANCH   5  15
BRANCH   3  20
ATOM     20  O7  MNM d          27.318  49.558   0.099  0.00  0.00    -0.392 OA
ATOM     21  H8  MNM d          27.122  50.279  -0.488  0.00  0.00     0.210 HD
ENDBRANCH   3  20
BRANCH   1  22
ATOM     22  O4  MNM d          29.365  47.081   0.415  0.00  0.00    -0.389 OA
ATOM     23  H4  MNM d          29.562  46.352   0.992  0.00  0.00     0.210 HD
ENDBRANCH   1  22
BRANCH   2  24
ATOM     24  O5  MNM d          27.969  44.713   0.231  0.00  0.00    -0.368 OA
ATOM     25  H5  MNM d          28.874  44.694  -0.057  0.00  0.00     0.212 HD
ENDBRANCH   2  24
TORSDOF 5
