MODEL 1
REMARK VINA RESULT:      -7.3      0.000      0.000
REMARK  5 active torsions:
REMARK  status: ('A' for Active; 'I' for Inactive)
REMARK    1  A    between atoms: C1_1  and  O4_4 
REMARK    2  A    between atoms: C2_2  and  O5_5 
REMARK    3  A    between atoms: C3_3  and  O7_7 
REMARK    4  A    between atoms: C8_8  and  C9_9 
REMARK    5  A    between atoms: C9_9  and  O11_11 
ROOT
ATOM      1  C1  MNM d          27.788  47.338   0.062  0.00  0.00     0.110 C 
ATOM      2  C2  MNM d          27.528  45.929  -0.496  0.00  0.00     0.217 C 
ATOM      3  C3  MNM d          27.327  48.426  -0.931  0.00  0.00     0.071 C 
ATOM      4  N6  MNM d          27.801  45.840  -1.926  0.00  0.00    -0.046 N 
ATOM      5  C8  MNM d          26.409  47.890  -2.064  0.00  0.00     0.017 C 
ATOM      6  C10 MNM d          27.199  46.824  -2.838  0.00  0.00     0.092 C 
ATOM      7  H1  MNM d          27.216  47.450   0.995  0.00  0.00     0.093 H 
ATOM      8  H2  MNM d          26.469  45.694  -0.314  0.00  0.00     0.133 H 
ATOM      9  H3  MNM d          28.231  48.821  -1.417  0.00  0.00     0.087 H 
ATOM     10  H6  MNM d          27.490  44.931  -2.229  0.00  0.00     0.280 HD
ATOM     11  H7  MNM d          28.800  45.908  -2.038  0.00  0.00     0.280 HD
ATOM     12  H9  MNM d          25.539  47.404  -1.598  0.00  0.00     0.049 H 
ATOM     13  H12 MNM d          26.518  46.304  -3.528  0.00  0.00     0.076 H 
ATOM     14  H13 MNM d          27.997  47.316  -3.412  0.00  0.00     0.076 H 
ENDROOT
BRANCH   5  15
ATOM     15  C9  MNM d          25.867  49.005  -2.997  0.00  0.00     0.024 C 
ATOM     16  H10 MNM d          25.027  49.514  -2.501  0.00  0.00     0.074 H 
ATOM     17  H11 MNM d          25.517  48.552  -3.936  0.00  0.00     0.074 H 
BRANCH  15  18
ATOM     18  O11 MNM d          26.887  49.956  -3.286  0.00  0.00    -0.400 OA
ATOM     19  H14 MNM d          27.690  49.500  -3.509  0.00  0.00     0.209 HD
ENDBRANCH  15  18
ENDBRANCH   5  15
BRANCH   3  20
ATOM     20  O7  MNM d          26.710  49.515  -0.223  0.00  0.00    -0.392 OA
ATOM     21  H8  MNM d          26.963  49.480   0.692  0.00  0.00     0.210 HD
ENDBRANCH   3  20
BRANCH   1  22
ATOM     22  O4  MNM d          29.182  47.519   0.354  0.00  0.00    -0.389 OA
ATOM     23  H4  MNM d          29.701  47.193  -0.372  0.00  0.00     0.210 HD
ENDBRANCH   1  22
BRANCH   2  24
ATOM     24  O5  MNM d          28.332  44.912   0.089  0.00  0.00    -0.368 OA
ATOM     25  H5  MNM d          28.896  44.534  -0.576  0.00  0.00     0.212 HD
ENDBRANCH   2  24
TORSDOF 5
ENDMDL
MODEL 2
REMARK VINA RESULT:      -5.9      1.759      2.555
REMARK  5 active torsions:
REMARK  status: ('A' for Active; 'I' for Inactive)
REMARK    1  A    between atoms: C1_1  and  O4_4 
REMARK    2  A    between atoms: C2_2  and  O5_5 
REMARK    3  A    between atoms: C3_3  and  O7_7 
REMARK    4  A    between atoms: C8_8  and  C9_9 
REMARK    5  A    between atoms: C9_9  and  O11_11 
ROOT
ATOM      1  C1  MNM d          28.531  46.094  -1.203  0.00  0.00     0.110 C 
ATOM      2  C2  MNM d          28.949  47.211  -0.233  0.00  0.00     0.217 C 
ATOM      3  C3  MNM d          27.439  46.581  -2.179  0.00  0.00     0.071 C 
ATOM      4  N6  MNM d          27.815  48.012   0.211  0.00  0.00    -0.046 N 
ATOM      5  C8  MNM d          27.269  48.126  -2.207  0.00  0.00     0.017 C 
ATOM      6  C10 MNM d          26.896  48.579  -0.788  0.00  0.00     0.092 C 
ATOM      7  H1  MNM d          29.415  45.797  -1.787  0.00  0.00     0.093 H 
ATOM      8  H2  MNM d          29.664  47.857  -0.764  0.00  0.00     0.133 H 
ATOM      9  H3  MNM d          26.484  46.164  -1.825  0.00  0.00     0.087 H 
ATOM     10  H6  MNM d          28.189  48.786   0.738  0.00  0.00     0.280 HD
ATOM     11  H7  MNM d          27.263  47.428   0.819  0.00  0.00     0.280 HD
ATOM     12  H9  MNM d          28.241  48.571  -2.468  0.00  0.00     0.049 H 
ATOM     13  H12 MNM d          26.945  49.676  -0.738  0.00  0.00     0.076 H 
ATOM     14  H13 MNM d          25.872  48.246  -0.563  0.00  0.00     0.076 H 
ENDROOT
BRANCH   5  15
ATOM     15  C9  MNM d          26.243  48.613  -3.263  0.00  0.00     0.024 C 
ATOM     16  H10 MNM d          25.828  47.742  -3.793  0.00  0.00     0.074 H 
ATOM     17  H11 MNM d          26.750  49.272  -3.983  0.00  0.00     0.074 H 
BRANCH  15  18
ATOM     18  O11 MNM d          25.182  49.329  -2.638  0.00  0.00    -0.400 OA
ATOM     19  H14 MNM d          25.251  49.237  -1.695  0.00  0.00     0.209 HD
ENDBRANCH  15  18
ENDBRANCH   5  15
BRANCH   3  20
ATOM     20  O7  MNM d          27.676  46.052  -3.494  0.00  0.00    -0.392 OA
ATOM     21  H8  MNM d          26.893  46.155  -4.023  0.00  0.00     0.210 HD
ENDBRANCH   3  20
BRANCH   1  22
ATOM     22  O4  MNM d          28.052  44.949  -0.483  0.00  0.00    -0.389 OA
ATOM     23  H4  MNM d          28.789  44.406  -0.228  0.00  0.00     0.210 HD
ENDBRANCH   1  22
BRANCH   2  24
ATOM     24  O5  MNM d          29.554  46.746   0.968  0.00  0.00    -0.368 OA
ATOM     25  H5  MNM d          29.319  45.835   1.106  0.00  0.00     0.212 HD
ENDBRANCH   2  24
TORSDOF 5
ENDMDL
MODEL 3
REMARK VINA RESULT:      -5.7      1.779      4.250
REMARK  5 active torsions:
REMARK  status: ('A' for Active; 'I' for Inactive)
REMARK    1  A    between atoms: C1_1  and  O4_4 
REMARK    2  A    between atoms: C2_2  and  O5_5 
REMARK    3  A    between atoms: C3_3  and  O7_7 
REMARK    4  A    between atoms: C8_8  and  C9_9 
REMARK    5  A    between atoms: C9_9  and  O11_11 
ROOT
ATOM      1  C1  MNM d          27.456  47.951  -3.255  0.00  0.00     0.110 C 
ATOM      2  C2  MNM d          26.490  48.980  -2.645  0.00  0.00     0.217 C 
ATOM      3  C3  MNM d          27.962  46.957  -2.187  0.00  0.00     0.071 C 
ATOM      4  N6  MNM d          26.910  49.415  -1.319  0.00  0.00    -0.046 N 
ATOM      5  C8  MNM d          27.141  46.986  -0.868  0.00  0.00     0.017 C 
ATOM      6  C10 MNM d          27.229  48.408  -0.296  0.00  0.00     0.092 C 
ATOM      7  H1  MNM d          26.916  47.387  -4.029  0.00  0.00     0.093 H 
ATOM      8  H2  MNM d          25.502  48.501  -2.574  0.00  0.00     0.133 H 
ATOM      9  H3  MNM d          28.988  47.260  -1.928  0.00  0.00     0.087 H 
ATOM     10  H6  MNM d          26.166  49.985  -0.947  0.00  0.00     0.280 HD
ATOM     11  H7  MNM d          27.735  49.979  -1.443  0.00  0.00     0.280 HD
ATOM     12  H9  MNM d          26.089  46.777  -1.117  0.00  0.00     0.049 H 
ATOM     13  H12 MNM d          26.516  48.504   0.536  0.00  0.00     0.076 H 
ATOM     14  H13 MNM d          28.249  48.583   0.074  0.00  0.00     0.076 H 
ENDROOT
BRANCH   5  15
ATOM     15  C9  MNM d          27.590  45.915   0.160  0.00  0.00     0.024 C 
ATOM     16  H10 MNM d          27.318  44.917  -0.216  0.00  0.00     0.074 H 
ATOM     17  H11 MNM d          27.082  46.097   1.117  0.00  0.00     0.074 H 
BRANCH  15  18
ATOM     18  O11 MNM d          29.000  45.971   0.359  0.00  0.00    -0.400 OA
ATOM     19  H14 MNM d          29.373  46.634  -0.212  0.00  0.00     0.209 HD
ENDBRANCH  15  18
ENDBRANCH   5  15
BRANCH   3  20
ATOM     20  O7  MNM d          28.033  45.631  -2.737  0.00  0.00    -0.392 OA
ATOM     21  H8  MNM d          28.712  45.140  -2.289  0.00  0.00     0.210 HD
ENDBRANCH   3  20
BRANCH   1  22
ATOM     22  O4  MNM d          28.578  48.607  -3.866  0.00  0.00    -0.389 OA
ATOM     23  H4  MNM d          28.878  48.093  -4.606  0.00  0.00     0.210 HD
ENDBRANCH   1  22
BRANCH   2  24
ATOM     24  O5  MNM d          26.366  50.181  -3.397  0.00  0.00    -0.368 OA
ATOM     25  H5  MNM d          26.431  50.927  -2.813  0.00  0.00     0.212 HD
ENDBRANCH   2  24
TORSDOF 5
ENDMDL
MODEL 4
REMARK VINA RESULT:      -4.3      1.358      3.805
REMARK  5 active torsions:
REMARK  status: ('A' for Active; 'I' for Inactive)
REMARK    1  A    between atoms: C1_1  and  O4_4 
REMARK    2  A    between atoms: C2_2  and  O5_5 
REMARK    3  A    between atoms: C3_3  and  O7_7 
REMARK    4  A    between atoms: C8_8  and  C9_9 
REMARK    5  A    between atoms: C9_9  and  O11_11 
ROOT
ATOM      1  C1  MNM d          26.672  49.271  -1.458  0.00  0.00     0.110 C 
ATOM      2  C2  MNM d          27.035  48.820  -2.882  0.00  0.00     0.217 C 
ATOM      3  C3  MNM d          27.184  48.266  -0.405  0.00  0.00     0.071 C 
ATOM      4  N6  MNM d          26.902  47.379  -3.057  0.00  0.00    -0.046 N 
ATOM      5  C8  MNM d          28.224  47.254  -0.961  0.00  0.00     0.017 C 
ATOM      6  C10 MNM d          27.551  46.472  -2.098  0.00  0.00     0.092 C 
ATOM      7  H1  MNM d          27.148  50.245  -1.273  0.00  0.00     0.093 H 
ATOM      8  H2  MNM d          28.080  49.112  -3.062  0.00  0.00     0.133 H 
ATOM      9  H3  MNM d          26.315  47.677  -0.074  0.00  0.00     0.087 H 
ATOM     10  H6  MNM d          27.274  47.157  -3.968  0.00  0.00     0.280 HD
ATOM     11  H7  MNM d          25.916  47.171  -3.037  0.00  0.00     0.280 HD
ATOM     12  H9  MNM d          29.064  47.826  -1.384  0.00  0.00     0.049 H 
ATOM     13  H12 MNM d          28.312  45.878  -2.625  0.00  0.00     0.076 H 
ATOM     14  H13 MNM d          26.793  45.800  -1.671  0.00  0.00     0.076 H 
ENDROOT
BRANCH   5  15
ATOM     15  C9  MNM d          28.810  46.315   0.126  0.00  0.00     0.024 C 
ATOM     16  H10 MNM d          28.777  46.824   1.100  0.00  0.00     0.074 H 
ATOM     17  H11 MNM d          29.853  46.076  -0.127  0.00  0.00     0.074 H 
BRANCH  15  18
ATOM     18  O11 MNM d          28.059  45.107   0.202  0.00  0.00    -0.400 OA
ATOM     19  H14 MNM d          28.594  44.382  -0.099  0.00  0.00     0.209 HD
ENDBRANCH  15  18
ENDBRANCH   5  15
BRANCH   3  20
ATOM     20  O7  MNM d          27.690  48.965   0.744  0.00  0.00    -0.392 OA
ATOM     21  H8  MNM d          27.749  49.893   0.549  0.00  0.00     0.210 HD
ENDBRANCH   3  20
BRANCH   1  22
ATOM     22  O4  MNM d          25.251  49.423  -1.321  0.00  0.00    -0.389 OA
ATOM     23  H4  MNM d          24.814  48.679  -1.719  0.00  0.00     0.210 HD
ENDBRANCH   1  22
BRANCH   2  24
ATOM     24  O5  MNM d          26.218  49.384  -3.900  0.00  0.00    -0.368 OA
ATOM     25  H5  MNM d          25.985  50.274  -3.661  0.00  0.00     0.212 HD
ENDBRANCH   2  24
TORSDOF 5
ENDMDL
