MODEL 1
REMARK VINA RESULT:      -8.0      0.000      0.000
REMARK  5 active torsions:
REMARK  status: ('A' for Active; 'I' for Inactive)
REMARK    1  A    between atoms: S1_2  and  N1_4 
REMARK    2  A    between atoms: S1_2  and  C13_10 
REMARK    3  A    between atoms: N1_4  and  C12_5 
REMARK    4  A    between atoms: C12_5  and  C14_6 
REMARK       I    between atoms: C14_6  and  N2_8 
REMARK    5  A    between atoms: C2_15  and  C1_16 
ROOT
ATOM      1  C13 HS4 d           1.705  -6.701   4.990  0.00  0.00     0.079 A 
ATOM      2  C10 HS4 d           2.944  -7.274   4.684  0.00  0.00    -0.059 A 
ATOM      3  C5  HS4 d           3.962  -7.350   5.630  0.00  0.00    -0.071 A 
ATOM      4  C11 HS4 d           1.510  -6.178   6.272  0.00  0.00    -0.059 A 
ATOM      5  C8  HS4 d           2.533  -6.253   7.222  0.00  0.00    -0.071 A 
ATOM      6  C2  HS4 d           3.772  -6.819   6.904  0.00  0.00    -0.026 A 
ATOM      7  H4  HS4 d           3.116  -7.666   3.688  0.00  0.00     0.085 H 
ATOM      8  H5  HS4 d           4.904  -7.824   5.376  0.00  0.00     0.084 H 
ATOM      9  H6  HS4 d           0.565  -5.714   6.530  0.00  0.00     0.085 H 
ATOM     10  H7  HS4 d           2.363  -5.867   8.221  0.00  0.00     0.084 H 
ENDROOT
BRANCH   1  11
ATOM     11  S1  HS4 d           0.654  -6.722   3.784  0.00  0.00     0.259 S 
ATOM     12  O4  HS4 d          -0.390  -6.006   4.481  0.00  0.00    -0.201 OA
ATOM     13  O3  HS4 d           0.366  -7.994   3.285  0.00  0.00    -0.201 OA
BRANCH  11  14
ATOM     14  N1  HS4 d           0.857  -5.725   2.550  0.00  0.00    -0.306 N 
ATOM     15  H1  HS4 d           0.213  -5.817   1.790  0.00  0.00     0.172 HD
BRANCH  14  16
ATOM     16  C12 HS4 d           1.867  -4.713   2.418  0.00  0.00     0.080 C 
ATOM     17  H2  HS4 d           1.877  -4.350   1.380  0.00  0.00     0.079 H 
ATOM     18  H3  HS4 d           2.846  -5.148   2.664  0.00  0.00     0.079 H 
BRANCH  16  19
ATOM     19  C14 HS4 d           1.596  -3.556   3.340  0.00  0.00     0.287 C 
ATOM     20  O1  HS4 d           0.689  -2.747   3.163  0.00  0.00    -0.267 OA
ATOM     21  N2  HS4 d           2.402  -3.488   4.375  0.00  0.00    -0.057 NA
ATOM     22  O2  HS4 d           2.201  -2.487   5.294  0.00  0.00    -0.058 OA
ENDBRANCH  16  19
ENDBRANCH  14  16
ENDBRANCH  11  14
ENDBRANCH   1  11
BRANCH   6  23
ATOM     23  C1  HS4 d           4.850  -6.959   7.922  0.00  0.00    -0.026 A 
ATOM     24  C4  HS4 d           6.206  -6.983   7.613  0.00  0.00    -0.072 A 
ATOM     25  C7  HS4 d           7.155  -7.161   8.622  0.00  0.00    -0.082 A 
ATOM     26  H8  HS4 d           6.527  -6.863   6.584  0.00  0.00     0.084 H 
ATOM     27  C9  HS4 d           6.754  -7.348   9.938  0.00  0.00    -0.083 A 
ATOM     28  H9  HS4 d           8.211  -7.155   8.376  0.00  0.00     0.083 H 
ATOM     29  C6  HS4 d           5.400  -7.356  10.248  0.00  0.00    -0.082 A 
ATOM     30  H10 HS4 d           7.493  -7.486  10.719  0.00  0.00     0.083 H 
ATOM     31  C3  HS4 d           4.457  -7.178   9.246  0.00  0.00    -0.072 A 
ATOM     32  H11 HS4 d           5.080  -7.502  11.273  0.00  0.00     0.083 H 
ATOM     33  H12 HS4 d           3.402  -7.208   9.492  0.00  0.00     0.084 H 
ENDBRANCH   6  23
TORSDOF 5
ENDMDL
MODEL 2
REMARK VINA RESULT:      -7.9      1.471      2.991
REMARK  5 active torsions:
REMARK  status: ('A' for Active; 'I' for Inactive)
REMARK    1  A    between atoms: S1_2  and  N1_4 
REMARK    2  A    between atoms: S1_2  and  C13_10 
REMARK    3  A    between atoms: N1_4  and  C12_5 
REMARK    4  A    between atoms: C12_5  and  C14_6 
REMARK       I    between atoms: C14_6  and  N2_8 
REMARK    5  A    between atoms: C2_15  and  C1_16 
ROOT
ATOM      1  C13 HS4 d           2.420  -5.496   5.862  0.00  0.00     0.079 A 
ATOM      2  C10 HS4 d           2.246  -5.676   7.238  0.00  0.00    -0.059 A 
ATOM      3  C5  HS4 d           3.262  -6.195   8.036  0.00  0.00    -0.071 A 
ATOM      4  C11 HS4 d           3.637  -5.874   5.287  0.00  0.00    -0.059 A 
ATOM      5  C8  HS4 d           4.657  -6.397   6.088  0.00  0.00    -0.071 A 
ATOM      6  C2  HS4 d           4.471  -6.582   7.462  0.00  0.00    -0.026 A 
ATOM      7  H4  HS4 d           1.300  -5.406   7.693  0.00  0.00     0.085 H 
ATOM      8  H5  HS4 d           3.112  -6.298   9.104  0.00  0.00     0.084 H 
ATOM      9  H6  HS4 d           3.791  -5.760   4.220  0.00  0.00     0.085 H 
ATOM     10  H7  HS4 d           5.606  -6.663   5.637  0.00  0.00     0.084 H 
ENDROOT
BRANCH   1  11
ATOM     11  S1  HS4 d           1.151  -4.868   5.114  0.00  0.00     0.259 S 
ATOM     12  O4  HS4 d           1.531  -3.487   5.308  0.00  0.00    -0.201 OA
ATOM     13  O3  HS4 d          -0.084  -5.292   5.608  0.00  0.00    -0.201 OA
BRANCH  11  14
ATOM     14  N1  HS4 d           1.095  -4.888   3.516  0.00  0.00    -0.306 N 
ATOM     15  H1  HS4 d           1.590  -4.160   3.042  0.00  0.00     0.172 HD
BRANCH  14  16
ATOM     16  C12 HS4 d           0.407  -5.840   2.690  0.00  0.00     0.080 C 
ATOM     17  H2  HS4 d           0.518  -5.548   1.636  0.00  0.00     0.079 H 
ATOM     18  H3  HS4 d          -0.660  -5.845   2.959  0.00  0.00     0.079 H 
BRANCH  16  19
ATOM     19  C14 HS4 d           0.967  -7.223   2.879  0.00  0.00     0.287 C 
ATOM     20  O1  HS4 d           0.650  -7.961   3.809  0.00  0.00    -0.267 OA
ATOM     21  N2  HS4 d           1.817  -7.595   1.949  0.00  0.00    -0.057 NA
ATOM     22  O2  HS4 d           2.347  -8.861   2.018  0.00  0.00    -0.058 OA
ENDBRANCH  16  19
ENDBRANCH  14  16
ENDBRANCH  11  14
ENDBRANCH   1  11
BRANCH   6  23
ATOM     23  C1  HS4 d           5.568  -7.083   8.336  0.00  0.00    -0.026 A 
ATOM     24  C4  HS4 d           6.846  -7.381   7.877  0.00  0.00    -0.072 A 
ATOM     25  C7  HS4 d           7.808  -7.889   8.753  0.00  0.00    -0.082 A 
ATOM     26  H8  HS4 d           7.096  -7.220   6.835  0.00  0.00     0.084 H 
ATOM     27  C9  HS4 d           7.489  -8.130  10.083  0.00  0.00    -0.083 A 
ATOM     28  H9  HS4 d           8.809  -8.097   8.393  0.00  0.00     0.083 H 
ATOM     29  C6  HS4 d           6.205  -7.863  10.539  0.00  0.00    -0.082 A 
ATOM     30  H10 HS4 d           8.238  -8.524  10.761  0.00  0.00     0.083 H 
ATOM     31  C3  HS4 d           5.250  -7.357   9.669  0.00  0.00    -0.072 A 
ATOM     32  H11 HS4 d           5.949  -8.050  11.576  0.00  0.00     0.083 H 
ATOM     33  H12 HS4 d           4.243  -7.173  10.028  0.00  0.00     0.084 H 
ENDBRANCH   6  23
TORSDOF 5
ENDMDL
MODEL 3
REMARK VINA RESULT:      -7.0      1.598      2.892
REMARK  5 active torsions:
REMARK  status: ('A' for Active; 'I' for Inactive)
REMARK    1  A    between atoms: S1_2  and  N1_4 
REMARK    2  A    between atoms: S1_2  and  C13_10 
REMARK    3  A    between atoms: N1_4  and  C12_5 
REMARK    4  A    between atoms: C12_5  and  C14_6 
REMARK       I    between atoms: C14_6  and  N2_8 
REMARK    5  A    between atoms: C2_15  and  C1_16 
ROOT
ATOM      1  C13 HS4 d           2.029  -4.989   4.916  0.00  0.00     0.079 A 
ATOM      2  C10 HS4 d           3.353  -5.297   4.587  0.00  0.00    -0.059 A 
ATOM      3  C5  HS4 d           4.236  -5.809   5.534  0.00  0.00    -0.071 A 
ATOM      4  C11 HS4 d           1.606  -5.184   6.235  0.00  0.00    -0.059 A 
ATOM      5  C8  HS4 d           2.492  -5.696   7.186  0.00  0.00    -0.071 A 
ATOM      6  C2  HS4 d           3.817  -5.993   6.850  0.00  0.00    -0.026 A 
ATOM      7  H4  HS4 d           3.700  -5.133   3.573  0.00  0.00     0.085 H 
ATOM      8  H5  HS4 d           5.249  -6.066   5.246  0.00  0.00     0.084 H 
ATOM      9  H6  HS4 d           0.590  -4.937   6.520  0.00  0.00     0.085 H 
ATOM     10  H7  HS4 d           2.148  -5.867   8.199  0.00  0.00     0.084 H 
ENDROOT
BRANCH   1  11
ATOM     11  S1  HS4 d           1.159  -4.431   3.694  0.00  0.00     0.259 S 
ATOM     12  O4  HS4 d           2.256  -3.782   3.012  0.00  0.00    -0.201 OA
ATOM     13  O3  HS4 d           0.060  -3.657   4.068  0.00  0.00    -0.201 OA
BRANCH  11  14
ATOM     14  N1  HS4 d           0.705  -5.434   2.534  0.00  0.00    -0.306 N 
ATOM     15  H1  HS4 d          -0.251  -5.378   2.244  0.00  0.00     0.172 HD
BRANCH  14  16
ATOM     16  C12 HS4 d           1.524  -6.405   1.865  0.00  0.00     0.080 C 
ATOM     17  H2  HS4 d           2.549  -6.015   1.781  0.00  0.00     0.079 H 
ATOM     18  H3  HS4 d           1.117  -6.587   0.859  0.00  0.00     0.079 H 
BRANCH  16  19
ATOM     19  C14 HS4 d           1.553  -7.703   2.625  0.00  0.00     0.287 C 
ATOM     20  O1  HS4 d           2.255  -8.659   2.305  0.00  0.00    -0.267 OA
ATOM     21  N2  HS4 d           0.775  -7.729   3.683  0.00  0.00    -0.057 NA
ATOM     22  O2  HS4 d           0.770  -8.861   4.461  0.00  0.00    -0.058 OA
ENDBRANCH  16  19
ENDBRANCH  14  16
ENDBRANCH  11  14
ENDBRANCH   1  11
BRANCH   6  23
ATOM     23  C1  HS4 d           4.756  -6.595   7.838  0.00  0.00    -0.026 A 
ATOM     24  C4  HS4 d           6.043  -7.019   7.521  0.00  0.00    -0.072 A 
ATOM     25  C7  HS4 d           6.847  -7.614   8.495  0.00  0.00    -0.082 A 
ATOM     26  H8  HS4 d           6.421  -6.887   6.514  0.00  0.00     0.084 H 
ATOM     27  C9  HS4 d           6.361  -7.817   9.779  0.00  0.00    -0.083 A 
ATOM     28  H9  HS4 d           7.857  -7.920   8.246  0.00  0.00     0.083 H 
ATOM     29  C6  HS4 d           5.066  -7.424  10.092  0.00  0.00    -0.082 A 
ATOM     30  H10 HS4 d           6.988  -8.279  10.534  0.00  0.00     0.083 H 
ATOM     31  C3  HS4 d           4.267  -6.832   9.125  0.00  0.00    -0.072 A 
ATOM     32  H11 HS4 d           4.679  -7.580  11.093  0.00  0.00     0.083 H 
ATOM     33  H12 HS4 d           3.250  -6.549   9.371  0.00  0.00     0.084 H 
ENDBRANCH   6  23
TORSDOF 5
ENDMDL
MODEL 4
REMARK VINA RESULT:      -6.6      1.595      2.223
REMARK  5 active torsions:
REMARK  status: ('A' for Active; 'I' for Inactive)
REMARK    1  A    between atoms: S1_2  and  N1_4 
REMARK    2  A    between atoms: S1_2  and  C13_10 
REMARK    3  A    between atoms: N1_4  and  C12_5 
REMARK    4  A    between atoms: C12_5  and  C14_6 
REMARK       I    between atoms: C14_6  and  N2_8 
REMARK    5  A    between atoms: C2_15  and  C1_16 
ROOT
ATOM      1  C13 HS4 d           2.677  -6.458   4.221  0.00  0.00     0.079 A 
ATOM      2  C10 HS4 d           3.665  -5.552   4.620  0.00  0.00    -0.059 A 
ATOM      3  C5  HS4 d           4.413  -5.755   5.777  0.00  0.00    -0.071 A 
ATOM      4  C11 HS4 d           2.431  -7.574   5.026  0.00  0.00    -0.059 A 
ATOM      5  C8  HS4 d           3.179  -7.778   6.189  0.00  0.00    -0.071 A 
ATOM      6  C2  HS4 d           4.159  -6.862   6.585  0.00  0.00    -0.026 A 
ATOM      7  H4  HS4 d           3.854  -4.672   4.015  0.00  0.00     0.085 H 
ATOM      8  H5  HS4 d           5.192  -5.053   6.048  0.00  0.00     0.084 H 
ATOM      9  H6  HS4 d           1.659  -8.282   4.749  0.00  0.00     0.085 H 
ATOM     10  H7  HS4 d           2.997  -8.659   6.793  0.00  0.00     0.084 H 
ENDROOT
BRANCH   1  11
ATOM     11  S1  HS4 d           1.939  -6.068   2.856  0.00  0.00     0.259 S 
ATOM     12  O4  HS4 d           1.586  -7.420   2.484  0.00  0.00    -0.201 OA
ATOM     13  O3  HS4 d           2.713  -5.318   1.969  0.00  0.00    -0.201 OA
BRANCH  11  14
ATOM     14  N1  HS4 d           0.472  -5.435   2.911  0.00  0.00    -0.306 N 
ATOM     15  H1  HS4 d          -0.248  -5.930   2.423  0.00  0.00     0.172 HD
BRANCH  14  16
ATOM     16  C12 HS4 d           0.078  -4.231   3.587  0.00  0.00     0.080 C 
ATOM     17  H2  HS4 d          -1.020  -4.193   3.643  0.00  0.00     0.079 H 
ATOM     18  H3  HS4 d           0.447  -3.363   3.020  0.00  0.00     0.079 H 
BRANCH  16  19
ATOM     19  C14 HS4 d           0.644  -4.183   4.980  0.00  0.00     0.287 C 
ATOM     20  O1  HS4 d           1.469  -3.350   5.348  0.00  0.00    -0.267 OA
ATOM     21  N2  HS4 d           0.167  -5.100   5.790  0.00  0.00    -0.057 NA
ATOM     22  O2  HS4 d           0.597  -5.105   7.095  0.00  0.00    -0.058 OA
ENDBRANCH  16  19
ENDBRANCH  14  16
ENDBRANCH  11  14
ENDBRANCH   1  11
BRANCH   6  23
ATOM     23  C1  HS4 d           5.005  -7.096   7.789  0.00  0.00    -0.026 A 
ATOM     24  C4  HS4 d           4.502  -7.160   9.084  0.00  0.00    -0.072 A 
ATOM     25  C7  HS4 d           5.367  -7.338  10.166  0.00  0.00    -0.082 A 
ATOM     26  H8  HS4 d           3.436  -7.069   9.254  0.00  0.00     0.084 H 
ATOM     27  C9  HS4 d           6.738  -7.423   9.964  0.00  0.00    -0.083 A 
ATOM     28  H9  HS4 d           4.965  -7.411  11.171  0.00  0.00     0.083 H 
ATOM     29  C6  HS4 d           7.247  -7.329   8.675  0.00  0.00    -0.082 A 
ATOM     30  H10 HS4 d           7.407  -7.562  10.806  0.00  0.00     0.083 H 
ATOM     31  C3  HS4 d           6.388  -7.152   7.600  0.00  0.00    -0.072 A 
ATOM     32  H11 HS4 d           8.316  -7.393   8.509  0.00  0.00     0.083 H 
ATOM     33  H12 HS4 d           6.795  -7.056   6.599  0.00  0.00     0.084 H 
ENDBRANCH   6  23
TORSDOF 5
ENDMDL
