MODEL 1
REMARK VINA RESULT:      -8.7      0.000      0.000
REMARK  6 active torsions:
REMARK  status: ('A' for Active; 'I' for Inactive)
REMARK    1  A    between atoms: N1_2  and  C1_1 
REMARK    2  A    between atoms: C2_3  and  O2_5 
REMARK    3  A    between atoms: C9_17  and  N3_8 
REMARK    4  A    between atoms: C4_9  and  O4_10 
REMARK    5  A    between atoms: C5_11  and  C6_13 
REMARK    6  A    between atoms: C6_13  and  O6_14 
ROOT
ATOM      1  C1  DKZ d          33.170  23.055  28.139  0.00  0.00     0.141 C 
ATOM      2  C2  DKZ d          33.444  23.322  26.646  0.00  0.00     0.110 C 
ATOM      3  C3  DKZ d          32.418  22.550  25.785  0.00  0.00     0.134 C 
ATOM      4  F3  DKZ d          32.788  22.584  24.461  0.00  0.00    -0.244 F 
ATOM      5  C4  DKZ d          32.281  21.073  26.228  0.00  0.00     0.094 C 
ATOM      6  C5  DKZ d          32.212  20.886  27.763  0.00  0.00     0.088 C 
ATOM      7  O5  DKZ d          33.280  21.619  28.414  0.00  0.00    -0.353 OA
ATOM      8  H1  DKZ d          32.157  23.419  28.363  0.00  0.00     0.123 H 
ATOM      9  H2  DKZ d          34.448  22.945  26.405  0.00  0.00     0.094 H 
ATOM     10  H5  DKZ d          31.438  23.040  25.893  0.00  0.00     0.100 H 
ATOM     11  H7  DKZ d          33.155  20.519  25.855  0.00  0.00     0.091 H 
ATOM     12  H9  DKZ d          31.242  21.264  28.117  0.00  0.00     0.090 H 
ENDROOT
BRANCH   1  13
ATOM     13  N1  DKZ d          34.121  23.624  29.122  0.00  0.00    -0.280 N 
ATOM     14  C7  DKZ d          35.517  23.422  29.014  0.00  0.00    -0.009 A 
ATOM     15  C8  DKZ d          36.357  23.967  29.985  0.00  0.00    -0.024 A 
ATOM     16  H13 DKZ d          35.930  22.849  28.185  0.00  0.00     0.112 H 
ATOM     17  C9  DKZ d          35.768  24.679  31.041  0.00  0.00     0.125 A 
ATOM     18  H14 DKZ d          37.437  23.844  29.925  0.00  0.00     0.091 H 
ATOM     19  N2  DKZ d          34.428  24.847  31.127  0.00  0.00    -0.293 N 
ATOM     20  C10 DKZ d          33.592  24.329  30.204  0.00  0.00     0.330 A 
ATOM     21  H3  DKZ d          34.049  25.369  31.892  0.00  0.00     0.172 HD
ATOM     22  O10 DKZ d          32.366  24.487  30.290  0.00  0.00    -0.246 OA
BRANCH  17  23
ATOM     23  N3  DKZ d          36.533  25.200  31.996  0.00  0.00    -0.284 NA
ATOM     24  H6  DKZ d          37.337  24.691  32.331  0.00  0.00     0.188 HD
ENDBRANCH  17  23
ENDBRANCH   1  13
BRANCH   2  25
ATOM     25  O2  DKZ d          33.421  24.743  26.361  0.00  0.00    -0.388 OA
ATOM     26  H4  DKZ d          33.484  25.229  27.175  0.00  0.00     0.210 HD
ENDBRANCH   2  25
BRANCH   6  27
ATOM     27  C6  DKZ d          32.353  19.405  28.167  0.00  0.00     0.043 C 
ATOM     28  H10 DKZ d          31.425  18.867  27.925  0.00  0.00     0.078 H 
ATOM     29  H11 DKZ d          32.546  19.335  29.248  0.00  0.00     0.078 H 
BRANCH  27  30
ATOM     30  O6  DKZ d          33.449  18.824  27.445  0.00  0.00    -0.398 OA
ATOM     31  H12 DKZ d          33.705  19.405  26.738  0.00  0.00     0.209 HD
ENDBRANCH  27  30
ENDBRANCH   6  27
BRANCH   5  32
ATOM     32  O4  DKZ d          31.100  20.536  25.643  0.00  0.00    -0.390 OA
ATOM     33  H8  DKZ d          30.469  20.341  26.326  0.00  0.00     0.210 HD
ENDBRANCH   5  32
TORSDOF 6
ENDMDL
MODEL 2
REMARK VINA RESULT:      -6.2      3.096      5.829
REMARK  6 active torsions:
REMARK  status: ('A' for Active; 'I' for Inactive)
REMARK    1  A    between atoms: N1_2  and  C1_1 
REMARK    2  A    between atoms: C2_3  and  O2_5 
REMARK    3  A    between atoms: C9_17  and  N3_8 
REMARK    4  A    between atoms: C4_9  and  O4_10 
REMARK    5  A    between atoms: C5_11  and  C6_13 
REMARK    6  A    between atoms: C6_13  and  O6_14 
ROOT
ATOM      1  C1  DKZ d          33.672  23.747  28.754  0.00  0.00     0.141 C 
ATOM      2  C2  DKZ d          32.898  24.272  29.979  0.00  0.00     0.110 C 
ATOM      3  C3  DKZ d          33.796  25.240  30.783  0.00  0.00     0.134 C 
ATOM      4  F3  DKZ d          33.215  25.531  31.995  0.00  0.00    -0.244 F 
ATOM      5  C4  DKZ d          35.207  24.653  31.033  0.00  0.00     0.094 C 
ATOM      6  C5  DKZ d          35.826  23.967  29.791  0.00  0.00     0.088 C 
ATOM      7  O5  DKZ d          34.880  23.044  29.195  0.00  0.00    -0.353 OA
ATOM      8  H1  DKZ d          33.930  24.612  28.126  0.00  0.00     0.123 H 
ATOM      9  H2  DKZ d          32.650  23.417  30.625  0.00  0.00     0.094 H 
ATOM     10  H5  DKZ d          33.902  26.171  30.207  0.00  0.00     0.100 H 
ATOM     11  H7  DKZ d          35.132  23.905  31.835  0.00  0.00     0.091 H 
ATOM     12  H9  DKZ d          36.088  24.744  29.058  0.00  0.00     0.090 H 
ENDROOT
BRANCH   1  13
ATOM     13  N1  DKZ d          33.013  22.717  27.918  0.00  0.00    -0.280 N 
ATOM     14  C7  DKZ d          33.207  21.335  28.143  0.00  0.00    -0.009 A 
ATOM     15  C8  DKZ d          32.574  20.416  27.306  0.00  0.00    -0.024 A 
ATOM     16  H13 DKZ d          33.842  20.992  28.959  0.00  0.00     0.112 H 
ATOM     17  C9  DKZ d          31.783  20.915  26.260  0.00  0.00     0.125 A 
ATOM     18  H14 DKZ d          32.689  19.345  27.460  0.00  0.00     0.091 H 
ATOM     19  N2  DKZ d          31.623  22.243  26.059  0.00  0.00    -0.293 N 
ATOM     20  C10 DKZ d          32.226  23.153  26.851  0.00  0.00     0.330 A 
ATOM     21  H3  DKZ d          31.044  22.557  25.305  0.00  0.00     0.172 HD
ATOM     22  O10 DKZ d          32.075  24.368  26.660  0.00  0.00    -0.246 OA
BRANCH  17  23
ATOM     23  N3  DKZ d          31.176  20.072  25.429  0.00  0.00    -0.284 NA
ATOM     24  H6  DKZ d          30.281  20.312  25.032  0.00  0.00     0.188 HD
ENDBRANCH  17  23
ENDBRANCH   1  13
BRANCH   2  25
ATOM     25  O2  DKZ d          31.657  24.902  29.577  0.00  0.00    -0.388 OA
ATOM     26  H4  DKZ d          31.563  24.842  28.634  0.00  0.00     0.210 HD
ENDBRANCH   2  25
BRANCH   6  27
ATOM     27  C6  DKZ d          37.093  23.165  30.151  0.00  0.00     0.043 C 
ATOM     28  H10 DKZ d          37.975  23.656  29.713  0.00  0.00     0.078 H 
ATOM     29  H11 DKZ d          37.007  22.143  29.753  0.00  0.00     0.078 H 
BRANCH  27  30
ATOM     30  O6  DKZ d          37.227  23.116  31.578  0.00  0.00    -0.398 OA
ATOM     31  H12 DKZ d          36.493  23.566  31.981  0.00  0.00     0.209 HD
ENDBRANCH  27  30
ENDBRANCH   6  27
BRANCH   5  32
ATOM     32  O4  DKZ d          36.064  25.708  31.454  0.00  0.00    -0.390 OA
ATOM     33  H8  DKZ d          36.168  26.333  30.746  0.00  0.00     0.210 HD
ENDBRANCH   5  32
TORSDOF 6
ENDMDL
MODEL 3
REMARK VINA RESULT:      -6.0      1.709      3.024
REMARK  6 active torsions:
REMARK  status: ('A' for Active; 'I' for Inactive)
REMARK    1  A    between atoms: N1_2  and  C1_1 
REMARK    2  A    between atoms: C2_3  and  O2_5 
REMARK    3  A    between atoms: C9_17  and  N3_8 
REMARK    4  A    between atoms: C4_9  and  O4_10 
REMARK    5  A    between atoms: C5_11  and  C6_13 
REMARK    6  A    between atoms: C6_13  and  O6_14 
ROOT
ATOM      1  C1  DKZ d          33.824  23.159  27.982  0.00  0.00     0.141 C 
ATOM      2  C2  DKZ d          33.122  21.813  28.245  0.00  0.00     0.110 C 
ATOM      3  C3  DKZ d          32.086  21.541  27.130  0.00  0.00     0.134 C 
ATOM      4  F3  DKZ d          31.290  20.473  27.471  0.00  0.00    -0.244 F 
ATOM      5  C4  DKZ d          31.185  22.771  26.861  0.00  0.00     0.094 C 
ATOM      6  C5  DKZ d          31.958  24.111  26.809  0.00  0.00     0.088 C 
ATOM      7  O5  DKZ d          32.833  24.239  27.958  0.00  0.00    -0.353 OA
ATOM      8  H1  DKZ d          34.341  23.082  27.014  0.00  0.00     0.123 H 
ATOM      9  H2  DKZ d          32.585  21.884  29.202  0.00  0.00     0.094 H 
ATOM     10  H5  DKZ d          32.631  21.298  26.206  0.00  0.00     0.100 H 
ATOM     11  H7  DKZ d          30.441  22.836  27.668  0.00  0.00     0.091 H 
ATOM     12  H9  DKZ d          32.560  24.132  25.889  0.00  0.00     0.090 H 
ENDROOT
BRANCH   1  13
ATOM     13  N1  DKZ d          34.777  23.646  29.006  0.00  0.00    -0.280 N 
ATOM     14  C7  DKZ d          36.176  23.516  28.847  0.00  0.00    -0.009 A 
ATOM     15  C8  DKZ d          37.019  23.977  29.858  0.00  0.00    -0.024 A 
ATOM     16  H13 DKZ d          36.590  23.062  27.947  0.00  0.00     0.112 H 
ATOM     17  C9  DKZ d          36.430  24.535  31.003  0.00  0.00     0.125 A 
ATOM     18  H14 DKZ d          38.101  23.907  29.762  0.00  0.00     0.091 H 
ATOM     19  N2  DKZ d          35.087  24.638  31.135  0.00  0.00    -0.293 N 
ATOM     20  C10 DKZ d          34.249  24.198  30.175  0.00  0.00     0.330 A 
ATOM     21  H3  DKZ d          34.708  25.050  31.964  0.00  0.00     0.172 HD
ATOM     22  O10 DKZ d          33.020  24.294  30.303  0.00  0.00    -0.246 OA
BRANCH  17  23
ATOM     23  N3  DKZ d          37.199  24.972  31.996  0.00  0.00    -0.284 NA
ATOM     24  H6  DKZ d          38.169  25.187  31.826  0.00  0.00     0.188 HD
ENDBRANCH  17  23
ENDBRANCH   1  13
BRANCH   2  25
ATOM     25  O2  DKZ d          34.087  20.738  28.354  0.00  0.00    -0.388 OA
ATOM     26  H4  DKZ d          34.953  21.069  28.149  0.00  0.00     0.210 HD
ENDBRANCH   2  25
BRANCH   6  27
ATOM     27  C6  DKZ d          31.005  25.323  26.816  0.00  0.00     0.043 C 
ATOM     28  H10 DKZ d          29.977  24.982  27.006  0.00  0.00     0.078 H 
ATOM     29  H11 DKZ d          31.048  25.831  25.841  0.00  0.00     0.078 H 
BRANCH  27  30
ATOM     30  O6  DKZ d          31.410  26.232  27.850  0.00  0.00    -0.398 OA
ATOM     31  H12 DKZ d          30.974  26.002  28.662  0.00  0.00     0.209 HD
ENDBRANCH  27  30
ENDBRANCH   6  27
BRANCH   5  32
ATOM     32  O4  DKZ d          30.516  22.574  25.620  0.00  0.00    -0.390 OA
ATOM     33  H8  DKZ d          30.939  23.096  24.947  0.00  0.00     0.210 HD
ENDBRANCH   5  32
TORSDOF 6
ENDMDL
