MODEL 1
REMARK VINA RESULT:      -6.7      0.000      0.000
REMARK  8 active torsions:
REMARK  status: ('A' for Active; 'I' for Inactive)
REMARK    1  A    between atoms: N1_1  and  C4_2 
REMARK    2  A    between atoms: C4_2  and  C6_3 
REMARK    3  A    between atoms: C4_2  and  C34_18 
REMARK    4  A    between atoms: C6_3  and  C9_4 
REMARK    5  A    between atoms: C14_7  and  O19_10 
REMARK    6  A    between atoms: O19_10  and  C20_11 
REMARK    7  A    between atoms: C20_11  and  C23_12 
REMARK       I    between atoms: C34_18  and  N36_20 
REMARK    8  A    between atoms: N36_20  and  C38_21 
ROOT
ATOM      1  C9  MS7 d          -9.055  -2.743 -30.985  0.00  0.00    -0.056 A 
ATOM      2  C10 MS7 d          -8.619  -3.902 -30.318  0.00  0.00    -0.074 A 
ATOM      3  C12 MS7 d          -7.249  -4.191 -30.149  0.00  0.00    -0.050 A 
ATOM      4  C14 MS7 d          -6.287  -3.297 -30.668  0.00  0.00     0.069 A 
ATOM      5  C15 MS7 d          -6.710  -2.143 -31.341  0.00  0.00    -0.050 A 
ATOM      6  C17 MS7 d          -8.087  -1.864 -31.503  0.00  0.00    -0.074 A 
ATOM      7  H7  MS7 d          -9.355  -4.592 -29.924  0.00  0.00     0.084 H 
ATOM      8  H8  MS7 d          -6.939  -5.089 -29.626  0.00  0.00     0.087 H 
ATOM      9  H9  MS7 d          -5.972  -1.457 -31.743  0.00  0.00     0.087 H 
ATOM     10  H10 MS7 d          -8.397  -0.968 -32.028  0.00  0.00     0.084 H 
ENDROOT
BRANCH   1  11
ATOM     11  C6  MS7 d         -10.565  -2.443 -31.151  0.00  0.00    -0.006 C 
ATOM     12  H5  MS7 d         -10.789  -2.326 -32.222  0.00  0.00     0.043 H 
ATOM     13  H6  MS7 d         -11.142  -3.288 -30.747  0.00  0.00     0.043 H 
BRANCH  11  14
ATOM     14  C4  MS7 d         -10.986  -1.137 -30.399  0.00  0.00     0.179 C 
ATOM     15  H4  MS7 d         -10.447  -0.284 -30.839  0.00  0.00     0.099 H 
BRANCH  14  16
ATOM     16  N1  MS7 d         -10.613  -1.256 -28.983  0.00  0.00    -0.066 N 
ATOM     17  H1  MS7 d          -9.973  -2.026 -28.868  0.00  0.00     0.275 HD
ATOM     18  H2  MS7 d         -11.439  -1.420 -28.430  0.00  0.00     0.275 HD
ATOM     19  H3  MS7 d         -10.170  -0.403 -28.679  0.00  0.00     0.275 HD
ENDBRANCH  14  16
BRANCH  14  20
ATOM     20  C34 MS7 d         -12.471  -0.893 -30.541  0.00  0.00     0.248 C 
ATOM     21  O35 MS7 d         -13.053  -0.649 -29.491  0.00  0.00    -0.271 OA
ATOM     22  N36 MS7 d         -13.108  -0.956 -31.766  0.00  0.00    -0.364 N 
ATOM     23  H18 MS7 d         -12.566  -1.162 -32.581  0.00  0.00     0.161 HD
BRANCH  22  24
ATOM     24  C38 MS7 d         -14.559  -0.730 -31.914  0.00  0.00    -0.018 C 
ATOM     25  H19 MS7 d         -14.768   0.350 -31.870  0.00  0.00     0.056 H 
ATOM     26  H20 MS7 d         -15.095  -1.240 -31.100  0.00  0.00     0.056 H 
ATOM     27  H21 MS7 d         -14.895  -1.129 -32.882  0.00  0.00     0.056 H 
ENDBRANCH  22  24
ENDBRANCH  14  20
ENDBRANCH  11  14
ENDBRANCH   1  11
BRANCH   4  28
ATOM     28  O19 MS7 d          -4.911  -3.544 -30.561  0.00  0.00    -0.347 OA
BRANCH  28  29
ATOM     29  C20 MS7 d          -4.312  -4.857 -30.619  0.00  0.00     0.050 C 
ATOM     30  H11 MS7 d          -4.547  -5.340 -31.579  0.00  0.00     0.082 H 
ATOM     31  H12 MS7 d          -4.683  -5.482 -29.792  0.00  0.00     0.082 H 
BRANCH  29  32
ATOM     32  C23 MS7 d          -2.825  -4.649 -30.489  0.00  0.00    -0.034 A 
ATOM     33  C24 MS7 d          -1.934  -5.705 -30.672  0.00  0.00    -0.075 A 
ATOM     34  C26 MS7 d          -0.562  -5.476 -30.568  0.00  0.00    -0.082 A 
ATOM     35  H13 MS7 d          -2.305  -6.699 -30.894  0.00  0.00     0.084 H 
ATOM     36  C28 MS7 d          -0.103  -4.188 -30.198  0.00  0.00    -0.083 A 
ATOM     37  H14 MS7 d           0.145  -6.273 -30.767  0.00  0.00     0.083 H 
ATOM     38  C30 MS7 d          -1.024  -3.172 -29.959  0.00  0.00    -0.082 A 
ATOM     39  H15 MS7 d           0.959  -3.995 -30.102  0.00  0.00     0.083 H 
ATOM     40  C32 MS7 d          -2.383  -3.375 -30.115  0.00  0.00    -0.075 A 
ATOM     41  H16 MS7 d          -0.667  -2.199 -29.643  0.00  0.00     0.083 H 
ATOM     42  H17 MS7 d          -3.088  -2.567 -29.952  0.00  0.00     0.084 H 
ENDBRANCH  29  32
ENDBRANCH  28  29
ENDBRANCH   4  28
TORSDOF 8
ENDMDL
MODEL 2
REMARK VINA RESULT:      -6.6      1.834      2.732
REMARK  8 active torsions:
REMARK  status: ('A' for Active; 'I' for Inactive)
REMARK    1  A    between atoms: N1_1  and  C4_2 
REMARK    2  A    between atoms: C4_2  and  C6_3 
REMARK    3  A    between atoms: C4_2  and  C34_18 
REMARK    4  A    between atoms: C6_3  and  C9_4 
REMARK    5  A    between atoms: C14_7  and  O19_10 
REMARK    6  A    between atoms: O19_10  and  C20_11 
REMARK    7  A    between atoms: C20_11  and  C23_12 
REMARK       I    between atoms: C34_18  and  N36_20 
REMARK    8  A    between atoms: N36_20  and  C38_21 
ROOT
ATOM      1  C9  MS7 d          -9.067  -2.647 -30.388  0.00  0.00    -0.056 A 
ATOM      2  C10 MS7 d          -8.249  -1.833 -31.192  0.00  0.00    -0.074 A 
ATOM      3  C12 MS7 d          -6.890  -2.135 -31.415  0.00  0.00    -0.050 A 
ATOM      4  C14 MS7 d          -6.331  -3.281 -30.809  0.00  0.00     0.069 A 
ATOM      5  C15 MS7 d          -7.134  -4.095 -29.998  0.00  0.00    -0.050 A 
ATOM      6  C17 MS7 d          -8.497  -3.782 -29.785  0.00  0.00    -0.074 A 
ATOM      7  H7  MS7 d          -8.674  -0.950 -31.654  0.00  0.00     0.084 H 
ATOM      8  H8  MS7 d          -6.281  -1.494 -32.043  0.00  0.00     0.087 H 
ATOM      9  H9  MS7 d          -6.706  -4.974 -29.530  0.00  0.00     0.087 H 
ATOM     10  H10 MS7 d          -9.104  -4.421 -29.154  0.00  0.00     0.084 H 
ENDROOT
BRANCH   1  11
ATOM     11  C6  MS7 d         -10.560  -2.299 -30.166  0.00  0.00    -0.006 C 
ATOM     12  H5  MS7 d         -10.963  -2.948 -29.375  0.00  0.00     0.043 H 
ATOM     13  H6  MS7 d         -10.636  -1.247 -29.851  0.00  0.00     0.043 H 
BRANCH  11  14
ATOM     14  C4  MS7 d         -11.405  -2.501 -31.467  0.00  0.00     0.179 C 
ATOM     15  H4  MS7 d         -10.867  -2.051 -32.314  0.00  0.00     0.099 H 
BRANCH  14  16
ATOM     16  N1  MS7 d         -12.699  -1.821 -31.310  0.00  0.00    -0.066 N 
ATOM     17  H1  MS7 d         -12.689  -1.273 -30.464  0.00  0.00     0.275 HD
ATOM     18  H2  MS7 d         -13.435  -2.507 -31.258  0.00  0.00     0.275 HD
ATOM     19  H3  MS7 d         -12.859  -1.216 -32.100  0.00  0.00     0.275 HD
ENDBRANCH  14  16
BRANCH  14  20
ATOM     20  C34 MS7 d         -11.607  -3.972 -31.751  0.00  0.00     0.248 C 
ATOM     21  O35 MS7 d         -11.441  -4.295 -32.920  0.00  0.00    -0.271 OA
ATOM     22  N36 MS7 d         -11.963  -4.865 -30.758  0.00  0.00    -0.364 N 
ATOM     23  H18 MS7 d         -12.082  -4.526 -29.825  0.00  0.00     0.161 HD
BRANCH  22  24
ATOM     24  C38 MS7 d         -12.173  -6.301 -31.026  0.00  0.00    -0.018 C 
ATOM     25  H19 MS7 d         -12.531  -6.433 -32.058  0.00  0.00     0.056 H 
ATOM     26  H20 MS7 d         -12.921  -6.700 -30.325  0.00  0.00     0.056 H 
ATOM     27  H21 MS7 d         -11.223  -6.841 -30.896  0.00  0.00     0.056 H 
ENDBRANCH  22  24
ENDBRANCH  14  20
ENDBRANCH  11  14
ENDBRANCH   1  11
BRANCH   4  28
ATOM     28  O19 MS7 d          -4.979  -3.619 -30.965  0.00  0.00    -0.347 OA
BRANCH  28  29
ATOM     29  C20 MS7 d          -4.390  -4.856 -30.507  0.00  0.00     0.050 C 
ATOM     30  H11 MS7 d          -4.575  -5.658 -31.238  0.00  0.00     0.082 H 
ATOM     31  H12 MS7 d          -4.814  -5.142 -29.533  0.00  0.00     0.082 H 
BRANCH  29  32
ATOM     32  C23 MS7 d          -2.911  -4.598 -30.378  0.00  0.00    -0.034 A 
ATOM     33  C24 MS7 d          -2.428  -3.323 -30.092  0.00  0.00    -0.075 A 
ATOM     34  C26 MS7 d          -1.054  -3.120 -29.956  0.00  0.00    -0.082 A 
ATOM     35  H13 MS7 d          -3.115  -2.493 -29.975  0.00  0.00     0.084 H 
ATOM     36  C28 MS7 d          -0.170  -4.201 -30.191  0.00  0.00    -0.083 A 
ATOM     37  H14 MS7 d          -0.667  -2.147 -29.674  0.00  0.00     0.083 H 
ATOM     38  C30 MS7 d          -0.684  -5.447 -30.540  0.00  0.00    -0.082 A 
ATOM     39  H15 MS7 d           0.901  -4.060 -30.101  0.00  0.00     0.083 H 
ATOM     40  C32 MS7 d          -2.047  -5.672 -30.621  0.00  0.00    -0.075 A 
ATOM     41  H16 MS7 d          -0.001  -6.260 -30.752  0.00  0.00     0.083 H 
ATOM     42  H17 MS7 d          -2.435  -6.654 -30.867  0.00  0.00     0.084 H 
ENDBRANCH  29  32
ENDBRANCH  28  29
ENDBRANCH   4  28
TORSDOF 8
ENDMDL
MODEL 3
REMARK VINA RESULT:      -6.5      1.288      1.809
REMARK  8 active torsions:
REMARK  status: ('A' for Active; 'I' for Inactive)
REMARK    1  A    between atoms: N1_1  and  C4_2 
REMARK    2  A    between atoms: C4_2  and  C6_3 
REMARK    3  A    between atoms: C4_2  and  C34_18 
REMARK    4  A    between atoms: C6_3  and  C9_4 
REMARK    5  A    between atoms: C14_7  and  O19_10 
REMARK    6  A    between atoms: O19_10  and  C20_11 
REMARK    7  A    between atoms: C20_11  and  C23_12 
REMARK       I    between atoms: C34_18  and  N36_20 
REMARK    8  A    between atoms: N36_20  and  C38_21 
ROOT
ATOM      1  C9  MS7 d          -9.053  -2.690 -31.426  0.00  0.00    -0.056 A 
ATOM      2  C10 MS7 d          -8.696  -3.820 -30.668  0.00  0.00    -0.074 A 
ATOM      3  C12 MS7 d          -7.354  -4.102 -30.340  0.00  0.00    -0.050 A 
ATOM      4  C14 MS7 d          -6.338  -3.231 -30.790  0.00  0.00     0.069 A 
ATOM      5  C15 MS7 d          -6.680  -2.106 -31.553  0.00  0.00    -0.050 A 
ATOM      6  C17 MS7 d          -8.031  -1.833 -31.873  0.00  0.00    -0.074 A 
ATOM      7  H7  MS7 d          -9.474  -4.492 -30.326  0.00  0.00     0.084 H 
ATOM      8  H8  MS7 d          -7.106  -4.977 -29.750  0.00  0.00     0.087 H 
ATOM      9  H9  MS7 d          -5.901  -1.438 -31.902  0.00  0.00     0.087 H 
ATOM     10  H10 MS7 d          -8.279  -0.961 -32.466  0.00  0.00     0.084 H 
ENDROOT
BRANCH   1  11
ATOM     11  C6  MS7 d         -10.535  -2.397 -31.766  0.00  0.00    -0.006 C 
ATOM     12  H5  MS7 d         -10.577  -1.771 -32.669  0.00  0.00     0.043 H 
ATOM     13  H6  MS7 d         -11.050  -3.350 -31.958  0.00  0.00     0.043 H 
BRANCH  11  14
ATOM     14  C4  MS7 d         -11.265  -1.652 -30.599  0.00  0.00     0.179 C 
ATOM     15  H4  MS7 d         -11.868  -0.835 -31.020  0.00  0.00     0.099 H 
BRANCH  14  16
ATOM     16  N1  MS7 d         -10.260  -1.082 -29.690  0.00  0.00    -0.066 N 
ATOM     17  H1  MS7 d         -10.575  -0.182 -29.364  0.00  0.00     0.275 HD
ATOM     18  H2  MS7 d          -9.386  -0.975 -30.181  0.00  0.00     0.275 HD
ATOM     19  H3  MS7 d         -10.129  -1.699 -28.904  0.00  0.00     0.275 HD
ENDBRANCH  14  16
BRANCH  14  20
ATOM     20  C34 MS7 d         -12.183  -2.595 -29.854  0.00  0.00     0.248 C 
ATOM     21  O35 MS7 d         -12.816  -2.078 -28.942  0.00  0.00    -0.271 OA
ATOM     22  N36 MS7 d         -12.279  -3.933 -30.184  0.00  0.00    -0.364 N 
ATOM     23  H18 MS7 d         -11.729  -4.284 -30.942  0.00  0.00     0.161 HD
BRANCH  22  24
ATOM     24  C38 MS7 d         -13.164  -4.864 -29.457  0.00  0.00    -0.018 C 
ATOM     25  H19 MS7 d         -12.963  -5.894 -29.785  0.00  0.00     0.056 H 
ATOM     26  H20 MS7 d         -14.214  -4.611 -29.667  0.00  0.00     0.056 H 
ATOM     27  H21 MS7 d         -12.977  -4.780 -28.376  0.00  0.00     0.056 H 
ENDBRANCH  22  24
ENDBRANCH  14  20
ENDBRANCH  11  14
ENDBRANCH   1  11
BRANCH   4  28
ATOM     28  O19 MS7 d          -4.982  -3.472 -30.525  0.00  0.00    -0.347 OA
BRANCH  28  29
ATOM     29  C20 MS7 d          -4.372  -4.781 -30.534  0.00  0.00     0.050 C 
ATOM     30  H11 MS7 d          -4.601  -5.301 -31.476  0.00  0.00     0.082 H 
ATOM     31  H12 MS7 d          -4.739  -5.379 -29.686  0.00  0.00     0.082 H 
BRANCH  29  32
ATOM     32  C23 MS7 d          -2.887  -4.556 -30.410  0.00  0.00    -0.034 A 
ATOM     33  C24 MS7 d          -2.375  -3.293 -30.115  0.00  0.00    -0.075 A 
ATOM     34  C26 MS7 d          -0.997  -3.121 -29.985  0.00  0.00    -0.082 A 
ATOM     35  H13 MS7 d          -3.045  -2.450 -29.988  0.00  0.00     0.084 H 
ATOM     36  C28 MS7 d          -0.137  -4.219 -30.234  0.00  0.00    -0.083 A 
ATOM     37  H14 MS7 d          -0.588  -2.159 -29.697  0.00  0.00     0.083 H 
ATOM     38  C30 MS7 d          -0.679  -5.450 -30.590  0.00  0.00    -0.082 A 
ATOM     39  H15 MS7 d           0.936  -4.100 -30.147  0.00  0.00     0.083 H 
ATOM     40  C32 MS7 d          -2.046  -5.645 -30.667  0.00  0.00    -0.075 A 
ATOM     41  H16 MS7 d          -0.014  -6.276 -30.813  0.00  0.00     0.083 H 
ATOM     42  H17 MS7 d          -2.457  -6.617 -30.919  0.00  0.00     0.084 H 
ENDBRANCH  29  32
ENDBRANCH  28  29
ENDBRANCH   4  28
TORSDOF 8
ENDMDL
MODEL 4
REMARK VINA RESULT:      -6.1      1.676      2.125
REMARK  8 active torsions:
REMARK  status: ('A' for Active; 'I' for Inactive)
REMARK    1  A    between atoms: N1_1  and  C4_2 
REMARK    2  A    between atoms: C4_2  and  C6_3 
REMARK    3  A    between atoms: C4_2  and  C34_18 
REMARK    4  A    between atoms: C6_3  and  C9_4 
REMARK    5  A    between atoms: C14_7  and  O19_10 
REMARK    6  A    between atoms: O19_10  and  C20_11 
REMARK    7  A    between atoms: C20_11  and  C23_12 
REMARK       I    between atoms: C34_18  and  N36_20 
REMARK    8  A    between atoms: N36_20  and  C38_21 
ROOT
ATOM      1  C9  MS7 d          -9.037  -2.676 -30.892  0.00  0.00    -0.056 A 
ATOM      2  C10 MS7 d          -8.030  -1.888 -31.479  0.00  0.00    -0.074 A 
ATOM      3  C12 MS7 d          -6.669  -2.248 -31.411  0.00  0.00    -0.050 A 
ATOM      4  C14 MS7 d          -6.303  -3.430 -30.730  0.00  0.00     0.069 A 
ATOM      5  C15 MS7 d          -7.296  -4.219 -30.133  0.00  0.00    -0.050 A 
ATOM      6  C17 MS7 d          -8.658  -3.846 -30.211  0.00  0.00    -0.074 A 
ATOM      7  H7  MS7 d          -8.308  -0.978 -31.998  0.00  0.00     0.084 H 
ATOM      8  H8  MS7 d          -5.913  -1.626 -31.877  0.00  0.00     0.087 H 
ATOM      9  H9  MS7 d          -7.016  -5.125 -29.607  0.00  0.00     0.087 H 
ATOM     10  H10 MS7 d          -9.414  -4.466 -29.742  0.00  0.00     0.084 H 
ENDROOT
BRANCH   1  11
ATOM     11  C6  MS7 d         -10.526  -2.262 -30.987  0.00  0.00    -0.006 C 
ATOM     12  H5  MS7 d         -10.756  -1.568 -30.165  0.00  0.00     0.043 H 
ATOM     13  H6  MS7 d         -10.694  -1.758 -31.950  0.00  0.00     0.043 H 
BRANCH  11  14
ATOM     14  C4  MS7 d         -11.481  -3.498 -30.889  0.00  0.00     0.179 C 
ATOM     15  H4  MS7 d         -10.916  -4.353 -30.489  0.00  0.00     0.099 H 
BRANCH  14  16
ATOM     16  N1  MS7 d         -11.967  -3.838 -32.235  0.00  0.00    -0.066 N 
ATOM     17  H1  MS7 d         -11.321  -4.475 -32.673  0.00  0.00     0.275 HD
ATOM     18  H2  MS7 d         -12.039  -2.998 -32.787  0.00  0.00     0.275 HD
ATOM     19  H3  MS7 d         -12.873  -4.272 -32.164  0.00  0.00     0.275 HD
ENDBRANCH  14  16
BRANCH  14  20
ATOM     20  C34 MS7 d         -12.639  -3.207 -29.961  0.00  0.00     0.248 C 
ATOM     21  O35 MS7 d         -12.363  -2.490 -29.008  0.00  0.00    -0.271 OA
ATOM     22  N36 MS7 d         -13.899  -3.729 -30.181  0.00  0.00    -0.364 N 
ATOM     23  H18 MS7 d         -14.048  -4.309 -30.982  0.00  0.00     0.161 HD
BRANCH  22  24
ATOM     24  C38 MS7 d         -15.033  -3.461 -29.276  0.00  0.00    -0.018 C 
ATOM     25  H19 MS7 d         -14.681  -2.883 -28.408  0.00  0.00     0.056 H 
ATOM     26  H20 MS7 d         -15.462  -4.414 -28.932  0.00  0.00     0.056 H 
ATOM     27  H21 MS7 d         -15.802  -2.885 -29.812  0.00  0.00     0.056 H 
ENDBRANCH  22  24
ENDBRANCH  14  20
ENDBRANCH  11  14
ENDBRANCH   1  11
BRANCH   4  28
ATOM     28  O19 MS7 d          -4.964  -3.827 -30.599  0.00  0.00    -0.347 OA
BRANCH  28  29
ATOM     29  C20 MS7 d          -3.860  -2.916 -30.405  0.00  0.00     0.050 C 
ATOM     30  H11 MS7 d          -3.937  -2.428 -29.422  0.00  0.00     0.082 H 
ATOM     31  H12 MS7 d          -3.855  -2.150 -31.196  0.00  0.00     0.082 H 
BRANCH  29  32
ATOM     32  C23 MS7 d          -2.607  -3.750 -30.478  0.00  0.00    -0.034 A 
ATOM     33  C24 MS7 d          -2.596  -4.972 -31.149  0.00  0.00    -0.075 A 
ATOM     34  C26 MS7 d          -1.414  -5.710 -31.217  0.00  0.00    -0.082 A 
ATOM     35  H13 MS7 d          -3.501  -5.346 -31.614  0.00  0.00     0.084 H 
ATOM     36  C28 MS7 d          -0.266  -5.240 -30.534  0.00  0.00    -0.083 A 
ATOM     37  H14 MS7 d          -1.375  -6.632 -31.786  0.00  0.00     0.083 H 
ATOM     38  C30 MS7 d          -0.330  -4.048 -29.820  0.00  0.00    -0.082 A 
ATOM     39  H15 MS7 d           0.658  -5.807 -30.568  0.00  0.00     0.083 H 
ATOM     40  C32 MS7 d          -1.480  -3.281 -29.792  0.00  0.00    -0.075 A 
ATOM     41  H16 MS7 d           0.542  -3.713 -29.271  0.00  0.00     0.083 H 
ATOM     42  H17 MS7 d          -1.509  -2.339 -29.254  0.00  0.00     0.084 H 
ENDBRANCH  29  32
ENDBRANCH  28  29
ENDBRANCH   4  28
TORSDOF 8
ENDMDL
MODEL 5
REMARK VINA RESULT:      -5.7      1.909      2.270
REMARK  8 active torsions:
REMARK  status: ('A' for Active; 'I' for Inactive)
REMARK    1  A    between atoms: N1_1  and  C4_2 
REMARK    2  A    between atoms: C4_2  and  C6_3 
REMARK    3  A    between atoms: C4_2  and  C34_18 
REMARK    4  A    between atoms: C6_3  and  C9_4 
REMARK    5  A    between atoms: C14_7  and  O19_10 
REMARK    6  A    between atoms: O19_10  and  C20_11 
REMARK    7  A    between atoms: C20_11  and  C23_12 
REMARK       I    between atoms: C34_18  and  N36_20 
REMARK    8  A    between atoms: N36_20  and  C38_21 
ROOT
ATOM      1  C9  MS7 d          -9.634  -4.709 -30.140  0.00  0.00    -0.056 A 
ATOM      2  C10 MS7 d          -9.049  -5.500 -31.145  0.00  0.00    -0.074 A 
ATOM      3  C12 MS7 d          -7.650  -5.593 -31.298  0.00  0.00    -0.050 A 
ATOM      4  C14 MS7 d          -6.813  -4.866 -30.424  0.00  0.00     0.069 A 
ATOM      5  C15 MS7 d          -7.384  -4.066 -29.425  0.00  0.00    -0.050 A 
ATOM      6  C17 MS7 d          -8.789  -3.984 -29.280  0.00  0.00    -0.074 A 
ATOM      7  H7  MS7 d          -9.690  -6.055 -31.819  0.00  0.00     0.084 H 
ATOM      8  H8  MS7 d          -7.224  -6.214 -32.077  0.00  0.00     0.087 H 
ATOM      9  H9  MS7 d          -6.742  -3.505 -28.755  0.00  0.00     0.087 H 
ATOM     10  H10 MS7 d          -9.215  -3.360 -28.504  0.00  0.00     0.084 H 
ENDROOT
BRANCH   1  11
ATOM     11  C6  MS7 d         -11.173  -4.630 -29.987  0.00  0.00    -0.006 C 
ATOM     12  H5  MS7 d         -11.643  -5.151 -30.834  0.00  0.00     0.043 H 
ATOM     13  H6  MS7 d         -11.463  -5.124 -29.048  0.00  0.00     0.043 H 
BRANCH  11  14
ATOM     14  C4  MS7 d         -11.681  -3.150 -29.959  0.00  0.00     0.179 C 
ATOM     15  H4  MS7 d         -11.217  -2.631 -29.107  0.00  0.00     0.099 H 
BRANCH  14  16
ATOM     16  N1  MS7 d         -13.140  -3.146 -29.781  0.00  0.00    -0.066 N 
ATOM     17  H1  MS7 d         -13.572  -2.683 -30.565  0.00  0.00     0.275 HD
ATOM     18  H2  MS7 d         -13.373  -2.657 -28.931  0.00  0.00     0.275 HD
ATOM     19  H3  MS7 d         -13.474  -4.095 -29.725  0.00  0.00     0.275 HD
ENDBRANCH  14  16
BRANCH  14  20
ATOM     20  C34 MS7 d         -11.296  -2.428 -31.231  0.00  0.00     0.248 C 
ATOM     21  O35 MS7 d         -11.804  -2.879 -32.249  0.00  0.00    -0.271 OA
ATOM     22  N36 MS7 d         -10.428  -1.353 -31.225  0.00  0.00    -0.364 N 
ATOM     23  H18 MS7 d         -10.051  -1.042 -30.353  0.00  0.00     0.161 HD
BRANCH  22  24
ATOM     24  C38 MS7 d         -10.037  -0.648 -32.462  0.00  0.00    -0.018 C 
ATOM     25  H19 MS7 d         -10.551   0.324 -32.508  0.00  0.00     0.056 H 
ATOM     26  H20 MS7 d         -10.322  -1.254 -33.335  0.00  0.00     0.056 H 
ATOM     27  H21 MS7 d          -8.949  -0.488 -32.465  0.00  0.00     0.056 H 
ENDBRANCH  22  24
ENDBRANCH  14  20
ENDBRANCH  11  14
ENDBRANCH   1  11
BRANCH   4  28
ATOM     28  O19 MS7 d          -5.415  -4.890 -30.544  0.00  0.00    -0.347 OA
BRANCH  28  29
ATOM     29  C20 MS7 d          -4.572  -3.719 -30.473  0.00  0.00     0.050 C 
ATOM     30  H11 MS7 d          -4.790  -3.148 -29.558  0.00  0.00     0.082 H 
ATOM     31  H12 MS7 d          -4.735  -3.078 -31.353  0.00  0.00     0.082 H 
BRANCH  29  32
ATOM     32  C23 MS7 d          -3.152  -4.223 -30.450  0.00  0.00    -0.034 A 
ATOM     33  C24 MS7 d          -2.853  -5.543 -30.782  0.00  0.00    -0.075 A 
ATOM     34  C26 MS7 d          -1.526  -5.973 -30.773  0.00  0.00    -0.082 A 
ATOM     35  H13 MS7 d          -3.648  -6.231 -31.047  0.00  0.00     0.084 H 
ATOM     36  C28 MS7 d          -0.513  -5.079 -30.347  0.00  0.00    -0.083 A 
ATOM     37  H14 MS7 d          -1.272  -6.979 -31.087  0.00  0.00     0.083 H 
ATOM     38  C30 MS7 d          -0.855  -3.787 -29.959  0.00  0.00    -0.082 A 
ATOM     39  H15 MS7 d           0.522  -5.399 -30.323  0.00  0.00     0.083 H 
ATOM     40  C32 MS7 d          -2.160  -3.333 -30.019  0.00  0.00    -0.075 A 
ATOM     41  H16 MS7 d          -0.080  -3.120 -29.602  0.00  0.00     0.083 H 
ATOM     42  H17 MS7 d          -2.409  -2.315 -29.740  0.00  0.00     0.084 H 
ENDBRANCH  29  32
ENDBRANCH  28  29
ENDBRANCH   4  28
TORSDOF 8
ENDMDL
MODEL 6
REMARK VINA RESULT:      -5.5      3.495      9.187
REMARK  8 active torsions:
REMARK  status: ('A' for Active; 'I' for Inactive)
REMARK    1  A    between atoms: N1_1  and  C4_2 
REMARK    2  A    between atoms: C4_2  and  C6_3 
REMARK    3  A    between atoms: C4_2  and  C34_18 
REMARK    4  A    between atoms: C6_3  and  C9_4 
REMARK    5  A    between atoms: C14_7  and  O19_10 
REMARK    6  A    between atoms: O19_10  and  C20_11 
REMARK    7  A    between atoms: C20_11  and  C23_12 
REMARK       I    between atoms: C34_18  and  N36_20 
REMARK    8  A    between atoms: N36_20  and  C38_21 
ROOT
ATOM      1  C9  MS7 d          -5.459  -3.674 -30.505  0.00  0.00    -0.056 A 
ATOM      2  C10 MS7 d          -6.605  -4.422 -30.179  0.00  0.00    -0.074 A 
ATOM      3  C12 MS7 d          -7.901  -3.985 -30.520  0.00  0.00    -0.050 A 
ATOM      4  C14 MS7 d          -8.056  -2.757 -31.201  0.00  0.00     0.069 A 
ATOM      5  C15 MS7 d          -6.923  -1.998 -31.523  0.00  0.00    -0.050 A 
ATOM      6  C17 MS7 d          -5.628  -2.450 -31.178  0.00  0.00    -0.074 A 
ATOM      7  H7  MS7 d          -6.488  -5.362 -29.652  0.00  0.00     0.084 H 
ATOM      8  H8  MS7 d          -8.767  -4.583 -30.262  0.00  0.00     0.087 H 
ATOM      9  H9  MS7 d          -7.041  -1.054 -32.043  0.00  0.00     0.087 H 
ATOM     10  H10 MS7 d          -4.762  -1.850 -31.432  0.00  0.00     0.084 H 
ENDROOT
BRANCH   1  11
ATOM     11  C6  MS7 d          -4.046  -4.180 -30.127  0.00  0.00    -0.006 C 
ATOM     12  H5  MS7 d          -3.323  -3.365 -30.280  0.00  0.00     0.043 H 
ATOM     13  H6  MS7 d          -4.046  -4.476 -29.068  0.00  0.00     0.043 H 
BRANCH  11  14
ATOM     14  C4  MS7 d          -3.615  -5.408 -30.997  0.00  0.00     0.179 C 
ATOM     15  H4  MS7 d          -4.184  -5.394 -31.939  0.00  0.00     0.099 H 
BRANCH  14  16
ATOM     16  N1  MS7 d          -3.930  -6.646 -30.269  0.00  0.00    -0.066 N 
ATOM     17  H1  MS7 d          -3.168  -7.298 -30.371  0.00  0.00     0.275 HD
ATOM     18  H2  MS7 d          -4.773  -7.051 -30.645  0.00  0.00     0.275 HD
ATOM     19  H3  MS7 d          -4.065  -6.436 -29.293  0.00  0.00     0.275 HD
ENDBRANCH  14  16
BRANCH  14  20
ATOM     20  C34 MS7 d          -2.140  -5.342 -31.324  0.00  0.00     0.248 C 
ATOM     21  O35 MS7 d          -1.799  -6.015 -32.288  0.00  0.00    -0.271 OA
ATOM     22  N36 MS7 d          -1.260  -4.585 -30.574  0.00  0.00    -0.364 N 
ATOM     23  H18 MS7 d          -1.613  -4.061 -29.799  0.00  0.00     0.161 HD
BRANCH  22  24
ATOM     24  C38 MS7 d           0.183  -4.521 -30.878  0.00  0.00    -0.018 C 
ATOM     25  H19 MS7 d           0.658  -3.757 -30.244  0.00  0.00     0.056 H 
ATOM     26  H20 MS7 d           0.324  -4.258 -31.937  0.00  0.00     0.056 H 
ATOM     27  H21 MS7 d           0.643  -5.500 -30.679  0.00  0.00     0.056 H 
ENDBRANCH  22  24
ENDBRANCH  14  20
ENDBRANCH  11  14
ENDBRANCH   1  11
BRANCH   4  28
ATOM     28  O19 MS7 d          -9.320  -2.251 -31.539  0.00  0.00    -0.347 OA
BRANCH  28  29
ATOM     29  C20 MS7 d          -9.895  -1.054 -30.972  0.00  0.00     0.050 C 
ATOM     30  H11 MS7 d         -10.035  -0.292 -31.753  0.00  0.00     0.082 H 
ATOM     31  H12 MS7 d          -9.242  -0.654 -30.181  0.00  0.00     0.082 H 
BRANCH  29  32
ATOM     32  C23 MS7 d         -11.227  -1.459 -30.393  0.00  0.00    -0.034 A 
ATOM     33  C24 MS7 d         -12.383  -0.735 -30.679  0.00  0.00    -0.075 A 
ATOM     34  C26 MS7 d         -13.605  -1.149 -30.145  0.00  0.00    -0.082 A 
ATOM     35  H13 MS7 d         -12.334   0.144 -31.311  0.00  0.00     0.084 H 
ATOM     36  C28 MS7 d         -13.633  -2.251 -29.258  0.00  0.00    -0.083 A 
ATOM     37  H14 MS7 d         -14.521  -0.632 -30.407  0.00  0.00     0.083 H 
ATOM     38  C30 MS7 d         -12.449  -2.911 -28.943  0.00  0.00    -0.082 A 
ATOM     39  H15 MS7 d         -14.571  -2.580 -28.826  0.00  0.00     0.083 H 
ATOM     40  C32 MS7 d         -11.242  -2.545 -29.510  0.00  0.00    -0.075 A 
ATOM     41  H16 MS7 d         -12.473  -3.732 -28.236  0.00  0.00     0.083 H 
ATOM     42  H17 MS7 d         -10.330  -3.085 -29.277  0.00  0.00     0.084 H 
ENDBRANCH  29  32
ENDBRANCH  28  29
ENDBRANCH   4  28
TORSDOF 8
ENDMDL
MODEL 7
REMARK VINA RESULT:      -4.8      3.766      9.287
REMARK  8 active torsions:
REMARK  status: ('A' for Active; 'I' for Inactive)
REMARK    1  A    between atoms: N1_1  and  C4_2 
REMARK    2  A    between atoms: C4_2  and  C6_3 
REMARK    3  A    between atoms: C4_2  and  C34_18 
REMARK    4  A    between atoms: C6_3  and  C9_4 
REMARK    5  A    between atoms: C14_7  and  O19_10 
REMARK    6  A    between atoms: O19_10  and  C20_11 
REMARK    7  A    between atoms: C20_11  and  C23_12 
REMARK       I    between atoms: C34_18  and  N36_20 
REMARK    8  A    between atoms: N36_20  and  C38_21 
ROOT
ATOM      1  C9  MS7 d          -5.565  -3.577 -30.701  0.00  0.00    -0.056 A 
ATOM      2  C10 MS7 d          -6.190  -2.456 -31.275  0.00  0.00    -0.074 A 
ATOM      3  C12 MS7 d          -7.593  -2.339 -31.342  0.00  0.00    -0.050 A 
ATOM      4  C14 MS7 d          -8.396  -3.380 -30.825  0.00  0.00     0.069 A 
ATOM      5  C15 MS7 d          -7.785  -4.507 -30.258  0.00  0.00    -0.050 A 
ATOM      6  C17 MS7 d          -6.375  -4.610 -30.196  0.00  0.00    -0.074 A 
ATOM      7  H7  MS7 d          -5.576  -1.658 -31.678  0.00  0.00     0.084 H 
ATOM      8  H8  MS7 d          -8.051  -1.462 -31.785  0.00  0.00     0.087 H 
ATOM      9  H9  MS7 d          -8.399  -5.308 -29.863  0.00  0.00     0.087 H 
ATOM     10  H10 MS7 d          -5.918  -5.489 -29.756  0.00  0.00     0.084 H 
ENDROOT
BRANCH   1  11
ATOM     11  C6  MS7 d          -4.021  -3.678 -30.632  0.00  0.00    -0.006 C 
ATOM     12  H5  MS7 d          -3.586  -2.999 -31.381  0.00  0.00     0.043 H 
ATOM     13  H6  MS7 d          -3.689  -3.376 -29.628  0.00  0.00     0.043 H 
BRANCH  11  14
ATOM     14  C4  MS7 d          -3.519  -5.133 -30.916  0.00  0.00     0.179 C 
ATOM     15  H4  MS7 d          -4.070  -5.537 -31.778  0.00  0.00     0.099 H 
BRANCH  14  16
ATOM     16  N1  MS7 d          -3.791  -5.972 -29.741  0.00  0.00    -0.066 N 
ATOM     17  H1  MS7 d          -4.677  -5.710 -29.339  0.00  0.00     0.275 HD
ATOM     18  H2  MS7 d          -3.061  -5.843 -29.059  0.00  0.00     0.275 HD
ATOM     19  H3  MS7 d          -3.823  -6.941 -30.020  0.00  0.00     0.275 HD
ENDBRANCH  14  16
BRANCH  14  20
ATOM     20  C34 MS7 d          -2.043  -5.135 -31.243  0.00  0.00     0.248 C 
ATOM     21  O35 MS7 d          -1.758  -5.644 -32.320  0.00  0.00    -0.271 OA
ATOM     22  N36 MS7 d          -1.103  -4.610 -30.377  0.00  0.00    -0.364 N 
ATOM     23  H18 MS7 d          -1.412  -4.211 -29.514  0.00  0.00     0.161 HD
BRANCH  22  24
ATOM     24  C38 MS7 d           0.341  -4.617 -30.682  0.00  0.00    -0.018 C 
ATOM     25  H19 MS7 d           0.498  -4.305 -31.725  0.00  0.00     0.056 H 
ATOM     26  H20 MS7 d           0.742  -5.632 -30.539  0.00  0.00     0.056 H 
ATOM     27  H21 MS7 d           0.862  -3.919 -30.009  0.00  0.00     0.056 H 
ENDBRANCH  22  24
ENDBRANCH  14  20
ENDBRANCH  11  14
ENDBRANCH   1  11
BRANCH   4  28
ATOM     28  O19 MS7 d          -9.796  -3.340 -30.890  0.00  0.00    -0.347 OA
BRANCH  28  29
ATOM     29  C20 MS7 d         -10.671  -4.210 -30.139  0.00  0.00     0.050 C 
ATOM     30  H11 MS7 d         -11.037  -3.696 -29.238  0.00  0.00     0.082 H 
ATOM     31  H12 MS7 d         -10.137  -5.127 -29.847  0.00  0.00     0.082 H 
BRANCH  29  32
ATOM     32  C23 MS7 d         -11.821  -4.544 -31.054  0.00  0.00    -0.034 A 
ATOM     33  C24 MS7 d         -11.611  -5.232 -32.248  0.00  0.00    -0.075 A 
ATOM     34  C26 MS7 d         -12.699  -5.546 -33.063  0.00  0.00    -0.082 A 
ATOM     35  H13 MS7 d         -10.608  -5.520 -32.542  0.00  0.00     0.084 H 
ATOM     36  C28 MS7 d         -13.989  -5.090 -32.699  0.00  0.00    -0.083 A 
ATOM     37  H14 MS7 d         -12.559  -6.132 -33.964  0.00  0.00     0.083 H 
ATOM     38  C30 MS7 d         -14.153  -4.349 -31.532  0.00  0.00    -0.082 A 
ATOM     39  H15 MS7 d         -14.844  -5.315 -33.326  0.00  0.00     0.083 H 
ATOM     40  C32 MS7 d         -13.090  -4.081 -30.689  0.00  0.00    -0.075 A 
ATOM     41  H16 MS7 d         -15.137  -3.973 -31.278  0.00  0.00     0.083 H 
ATOM     42  H17 MS7 d         -13.236  -3.526 -29.768  0.00  0.00     0.084 H 
ENDBRANCH  29  32
ENDBRANCH  28  29
ENDBRANCH   4  28
TORSDOF 8
ENDMDL
MODEL 8
REMARK VINA RESULT:      -4.3      3.451      9.275
REMARK  8 active torsions:
REMARK  status: ('A' for Active; 'I' for Inactive)
REMARK    1  A    between atoms: N1_1  and  C4_2 
REMARK    2  A    between atoms: C4_2  and  C6_3 
REMARK    3  A    between atoms: C4_2  and  C34_18 
REMARK    4  A    between atoms: C6_3  and  C9_4 
REMARK    5  A    between atoms: C14_7  and  O19_10 
REMARK    6  A    between atoms: O19_10  and  C20_11 
REMARK    7  A    between atoms: C20_11  and  C23_12 
REMARK       I    between atoms: C34_18  and  N36_20 
REMARK    8  A    between atoms: N36_20  and  C38_21 
ROOT
ATOM      1  C9  MS7 d          -5.701  -3.792 -30.894  0.00  0.00    -0.056 A 
ATOM      2  C10 MS7 d          -6.118  -2.570 -31.453  0.00  0.00    -0.074 A 
ATOM      3  C12 MS7 d          -7.393  -2.030 -31.191  0.00  0.00    -0.050 A 
ATOM      4  C14 MS7 d          -8.281  -2.737 -30.350  0.00  0.00     0.069 A 
ATOM      5  C15 MS7 d          -7.881  -3.960 -29.795  0.00  0.00    -0.050 A 
ATOM      6  C17 MS7 d          -6.597  -4.490 -30.064  0.00  0.00    -0.074 A 
ATOM      7  H7  MS7 d          -5.440  -2.029 -32.102  0.00  0.00     0.084 H 
ATOM      8  H8  MS7 d          -7.688  -1.083 -31.629  0.00  0.00     0.087 H 
ATOM      9  H9  MS7 d          -8.562  -4.505 -29.152  0.00  0.00     0.087 H 
ATOM     10  H10 MS7 d          -6.303  -5.438 -29.629  0.00  0.00     0.084 H 
ENDROOT
BRANCH   1  11
ATOM     11  C6  MS7 d          -4.292  -4.361 -31.191  0.00  0.00    -0.006 C 
ATOM     12  H5  MS7 d          -4.358  -5.456 -31.267  0.00  0.00     0.043 H 
ATOM     13  H6  MS7 d          -3.935  -3.948 -32.147  0.00  0.00     0.043 H 
BRANCH  11  14
ATOM     14  C4  MS7 d          -3.267  -3.994 -30.067  0.00  0.00     0.179 C 
ATOM     15  H4  MS7 d          -3.684  -4.292 -29.094  0.00  0.00     0.099 H 
BRANCH  14  16
ATOM     16  N1  MS7 d          -3.054  -2.539 -30.068  0.00  0.00    -0.066 N 
ATOM     17  H1  MS7 d          -3.205  -2.178 -29.139  0.00  0.00     0.275 HD
ATOM     18  H2  MS7 d          -3.700  -2.105 -30.708  0.00  0.00     0.275 HD
ATOM     19  H3  MS7 d          -2.109  -2.338 -30.357  0.00  0.00     0.275 HD
ENDBRANCH  14  16
BRANCH  14  20
ATOM     20  C34 MS7 d          -1.959  -4.724 -30.275  0.00  0.00     0.248 C 
ATOM     21  O35 MS7 d          -2.070  -5.930 -30.457  0.00  0.00    -0.271 OA
ATOM     22  N36 MS7 d          -0.744  -4.068 -30.247  0.00  0.00    -0.364 N 
ATOM     23  H18 MS7 d          -0.732  -3.080 -30.091  0.00  0.00     0.161 HD
BRANCH  22  24
ATOM     24  C38 MS7 d           0.538  -4.773 -30.438  0.00  0.00    -0.018 C 
ATOM     25  H19 MS7 d           0.719  -4.921 -31.513  0.00  0.00     0.056 H 
ATOM     26  H20 MS7 d           0.498  -5.751 -29.935  0.00  0.00     0.056 H 
ATOM     27  H21 MS7 d           1.355  -4.174 -30.008  0.00  0.00     0.056 H 
ENDBRANCH  22  24
ENDBRANCH  14  20
ENDBRANCH  11  14
ENDBRANCH   1  11
BRANCH   4  28
ATOM     28  O19 MS7 d          -9.574  -2.269 -30.076  0.00  0.00    -0.347 OA
BRANCH  28  29
ATOM     29  C20 MS7 d         -10.412  -2.769 -29.011  0.00  0.00     0.050 C 
ATOM     30  H11 MS7 d         -10.585  -1.983 -28.262  0.00  0.00     0.082 H 
ATOM     31  H12 MS7 d          -9.938  -3.638 -28.529  0.00  0.00     0.082 H 
BRANCH  29  32
ATOM     32  C23 MS7 d         -11.715  -3.175 -29.653  0.00  0.00    -0.034 A 
ATOM     33  C24 MS7 d         -12.900  -2.504 -29.357  0.00  0.00    -0.075 A 
ATOM     34  C26 MS7 d         -14.085  -2.890 -29.985  0.00  0.00    -0.082 A 
ATOM     35  H13 MS7 d         -12.901  -1.689 -28.643  0.00  0.00     0.084 H 
ATOM     36  C28 MS7 d         -14.075  -4.008 -30.853  0.00  0.00    -0.083 A 
ATOM     37  H14 MS7 d         -15.003  -2.339 -29.810  0.00  0.00     0.083 H 
ATOM     38  C30 MS7 d         -12.885  -4.695 -31.075  0.00  0.00    -0.082 A 
ATOM     39  H15 MS7 d         -14.988  -4.328 -31.340  0.00  0.00     0.083 H 
ATOM     40  C32 MS7 d         -11.694  -4.287 -30.503  0.00  0.00    -0.075 A 
ATOM     41  H16 MS7 d         -12.892  -5.571 -31.713  0.00  0.00     0.083 H 
ATOM     42  H17 MS7 d         -10.769  -4.815 -30.706  0.00  0.00     0.084 H 
ENDBRANCH  29  32
ENDBRANCH  28  29
ENDBRANCH   4  28
TORSDOF 8
ENDMDL
MODEL 9
REMARK VINA RESULT:      -3.7      3.271      9.281
REMARK  8 active torsions:
REMARK  status: ('A' for Active; 'I' for Inactive)
REMARK    1  A    between atoms: N1_1  and  C4_2 
REMARK    2  A    between atoms: C4_2  and  C6_3 
REMARK    3  A    between atoms: C4_2  and  C34_18 
REMARK    4  A    between atoms: C6_3  and  C9_4 
REMARK    5  A    between atoms: C14_7  and  O19_10 
REMARK    6  A    between atoms: O19_10  and  C20_11 
REMARK    7  A    between atoms: C20_11  and  C23_12 
REMARK       I    between atoms: C34_18  and  N36_20 
REMARK    8  A    between atoms: N36_20  and  C38_21 
ROOT
ATOM      1  C9  MS7 d          -7.662  -4.411 -30.522  0.00  0.00    -0.056 A 
ATOM      2  C10 MS7 d          -8.448  -3.919 -31.580  0.00  0.00    -0.074 A 
ATOM      3  C12 MS7 d          -9.649  -3.217 -31.351  0.00  0.00    -0.050 A 
ATOM      4  C14 MS7 d         -10.081  -3.007 -30.023  0.00  0.00     0.069 A 
ATOM      5  C15 MS7 d          -9.312  -3.500 -28.961  0.00  0.00    -0.050 A 
ATOM      6  C17 MS7 d          -8.107  -4.201 -29.205  0.00  0.00    -0.074 A 
ATOM      7  H7  MS7 d          -8.121  -4.083 -32.600  0.00  0.00     0.084 H 
ATOM      8  H8  MS7 d         -10.234  -2.843 -32.184  0.00  0.00     0.087 H 
ATOM      9  H9  MS7 d          -9.643  -3.343 -27.940  0.00  0.00     0.087 H 
ATOM     10  H10 MS7 d          -7.525  -4.578 -28.372  0.00  0.00     0.084 H 
ENDROOT
BRANCH   1  11
ATOM     11  C6  MS7 d          -6.343  -5.171 -30.800  0.00  0.00    -0.006 C 
ATOM     12  H5  MS7 d          -6.402  -6.167 -30.337  0.00  0.00     0.043 H 
ATOM     13  H6  MS7 d          -6.217  -5.280 -31.888  0.00  0.00     0.043 H 
BRANCH  11  14
ATOM     14  C4  MS7 d          -5.101  -4.415 -30.220  0.00  0.00     0.179 C 
ATOM     15  H4  MS7 d          -5.240  -4.283 -29.137  0.00  0.00     0.099 H 
BRANCH  14  16
ATOM     16  N1  MS7 d          -5.006  -3.092 -30.852  0.00  0.00    -0.066 N 
ATOM     17  H1  MS7 d          -4.919  -2.385 -30.139  0.00  0.00     0.275 HD
ATOM     18  H2  MS7 d          -5.836  -2.920 -31.398  0.00  0.00     0.275 HD
ATOM     19  H3  MS7 d          -4.197  -3.065 -31.453  0.00  0.00     0.275 HD
ENDBRANCH  14  16
BRANCH  14  20
ATOM     20  C34 MS7 d          -3.835  -5.210 -30.450  0.00  0.00     0.248 C 
ATOM     21  O35 MS7 d          -3.994  -6.423 -30.498  0.00  0.00    -0.271 OA
ATOM     22  N36 MS7 d          -2.604  -4.597 -30.582  0.00  0.00    -0.364 N 
ATOM     23  H18 MS7 d          -2.553  -3.600 -30.530  0.00  0.00     0.161 HD
BRANCH  22  24
ATOM     24  C38 MS7 d          -1.361  -5.364 -30.797  0.00  0.00    -0.018 C 
ATOM     25  H19 MS7 d          -0.567  -4.685 -31.143  0.00  0.00     0.056 H 
ATOM     26  H20 MS7 d          -1.535  -6.141 -31.555  0.00  0.00     0.056 H 
ATOM     27  H21 MS7 d          -1.053  -5.836 -29.852  0.00  0.00     0.056 H 
ENDBRANCH  22  24
ENDBRANCH  14  20
ENDBRANCH  11  14
ENDBRANCH   1  11
BRANCH   4  28
ATOM     28  O19 MS7 d         -11.282  -2.345 -29.729  0.00  0.00    -0.347 OA
BRANCH  28  29
ATOM     29  C20 MS7 d         -12.356  -2.916 -28.950  0.00  0.00     0.050 C 
ATOM     30  H11 MS7 d         -12.845  -2.136 -28.347  0.00  0.00     0.082 H 
ATOM     31  H12 MS7 d         -11.969  -3.704 -28.286  0.00  0.00     0.082 H 
BRANCH  29  32
ATOM     32  C23 MS7 d         -13.332  -3.500 -29.940  0.00  0.00    -0.034 A 
ATOM     33  C24 MS7 d         -13.912  -4.749 -29.723  0.00  0.00    -0.075 A 
ATOM     34  C26 MS7 d         -14.828  -5.252 -30.648  0.00  0.00    -0.082 A 
ATOM     35  H13 MS7 d         -13.652  -5.325 -28.843  0.00  0.00     0.084 H 
ATOM     36  C28 MS7 d         -15.091  -4.518 -31.829  0.00  0.00    -0.083 A 
ATOM     37  H14 MS7 d         -15.333  -6.194 -30.463  0.00  0.00     0.083 H 
ATOM     38  C30 MS7 d         -14.444  -3.305 -32.044  0.00  0.00    -0.082 A 
ATOM     39  H15 MS7 d         -15.792  -4.899 -32.563  0.00  0.00     0.083 H 
ATOM     40  C32 MS7 d         -13.578  -2.770 -31.108  0.00  0.00    -0.075 A 
ATOM     41  H16 MS7 d         -14.624  -2.766 -32.966  0.00  0.00     0.083 H 
ATOM     42  H17 MS7 d         -13.101  -1.810 -31.275  0.00  0.00     0.084 H 
ENDBRANCH  29  32
ENDBRANCH  28  29
ENDBRANCH   4  28
TORSDOF 8
ENDMDL
