MODEL 1
REMARK VINA RESULT:      -7.7      0.000      0.000
REMARK  10 active torsions:
REMARK  status: ('A' for Active; 'I' for Inactive)
REMARK    1  A    between atoms: C2_2  and  C6_6 
REMARK    2  A    between atoms: C3_3  and  O20_16 
REMARK    3  A    between atoms: C5_5  and  C9_9 
REMARK    4  A    between atoms: C11_11  and  N29_21 
REMARK    5  A    between atoms: O20_16  and  C21_17 
REMARK    6  A    between atoms: C21_17  and  C22_18 
REMARK    7  A    between atoms: N29_21  and  C30_22 
REMARK    8  A    between atoms: N33_25  and  S46_28 
REMARK    9  A    between atoms: S46_28  and  C49_31 
REMARK   10  A    between atoms: C49_31  and  C50_32 
ROOT
ATOM      1  C30 MOL d          48.981   8.909   1.890  0.00  0.00     0.012 C 
ATOM      2  C31 MOL d          48.038   7.906   2.557  0.00  0.00    -0.031 C 
ATOM      3  C32 MOL d          48.610   7.289   3.812  0.00  0.00     0.007 C 
ATOM      4  N33 MOL d          49.955   6.810   3.486  0.00  0.00    -0.310 N 
ATOM      5  C34 MOL d          50.961   7.704   2.910  0.00  0.00     0.007 C 
ATOM      6  C35 MOL d          50.377   8.330   1.670  0.00  0.00    -0.031 C 
ATOM      7  H8  MOL d          49.070   9.795   2.535  0.00  0.00     0.072 H 
ATOM      8  H9  MOL d          47.821   7.101   1.839  0.00  0.00     0.038 H 
ATOM      9  H10 MOL d          47.104   8.426   2.818  0.00  0.00     0.038 H 
ATOM     10  H11 MOL d          47.980   6.448   4.138  0.00  0.00     0.065 H 
ATOM     11  H12 MOL d          48.662   8.041   4.611  0.00  0.00     0.065 H 
ATOM     12  H13 MOL d          51.863   7.132   2.648  0.00  0.00     0.065 H 
ATOM     13  H14 MOL d          51.222   8.488   3.636  0.00  0.00     0.065 H 
ATOM     14  H15 MOL d          51.043   9.140   1.340  0.00  0.00     0.038 H 
ATOM     15  H16 MOL d          50.317   7.562   0.886  0.00  0.00     0.038 H 
ENDROOT
BRANCH   1  16
ATOM     16  N29 MOL d          48.403   9.291   0.638  0.00  0.00    -0.385 N 
ATOM     17  H7  MOL d          48.955   9.161  -0.222  0.00  0.00     0.160 HD
BRANCH  16  18
ATOM     18  C11 MOL d          47.154   9.819   0.537  0.00  0.00     0.029 A 
ATOM     19  C10 MOL d          47.075  11.193   0.930  0.00  0.00    -0.046 A 
ATOM     20  C9  MOL d          45.786  11.864   0.874  0.00  0.00    -0.015 A 
ATOM     21  H1  MOL d          47.959  11.724   1.263  0.00  0.00     0.088 H 
ATOM     22  C14 MOL d          44.608  11.160   0.382  0.00  0.00    -0.072 A 
ATOM     23  C13 MOL d          44.670   9.779  -0.002  0.00  0.00    -0.080 A 
ATOM     24  H4  MOL d          43.666  11.691   0.304  0.00  0.00     0.084 H 
ATOM     25  C12 MOL d          45.961   9.116   0.072  0.00  0.00    -0.058 A 
ATOM     26  H3  MOL d          43.785   9.249  -0.334  0.00  0.00     0.083 H 
ATOM     27  H2  MOL d          46.040   8.076  -0.225  0.00  0.00     0.086 H 
BRANCH  20  28
ATOM     28  C5  MOL d          45.607  13.257   1.332  0.00  0.00     0.036 A 
ATOM     29  S1  MOL d          44.495  14.361   0.437  0.00  0.00    -0.078 SA
ATOM     30  C2  MOL d          44.793  15.709   1.574  0.00  0.00     0.117 A 
ATOM     31  C3  MOL d          45.645  15.334   2.513  0.00  0.00     0.112 A 
ATOM     32  C4  MOL d          46.071  13.930   2.397  0.00  0.00     0.064 A 
ATOM     33 BR19 MOL d          47.079  13.217   3.790  0.00  0.00    -0.047 Br
BRANCH  30  34
ATOM     34  C6  MOL d          44.231  17.014   1.301  0.00  0.00     0.219 C 
ATOM     35  O7  MOL d          43.519  17.423   2.243  0.00  0.00    -0.643 OA
ATOM     36  O8  MOL d          44.424  17.656   0.245  0.00  0.00    -0.643 OA
ENDBRANCH  30  34
BRANCH  31  37
ATOM     37  O20 MOL d          45.982  16.158   3.494  0.00  0.00    -0.338 OA
BRANCH  37  38
ATOM     38  C21 MOL d          47.190  16.869   3.315  0.00  0.00     0.106 C 
ATOM     39  H5  MOL d          47.083  17.604   2.504  0.00  0.00     0.091 H 
ATOM     40  H6  MOL d          48.010  16.176   3.076  0.00  0.00     0.091 H 
BRANCH  38  41
ATOM     41  C22 MOL d          47.451  17.547   4.585  0.00  0.00     0.198 C 
ATOM     42  O25 MOL d          48.615  17.958   4.747  0.00  0.00    -0.646 OA
ATOM     43  O26 MOL d          46.531  17.682   5.423  0.00  0.00    -0.646 OA
ENDBRANCH  38  41
ENDBRANCH  37  38
ENDBRANCH  31  37
ENDBRANCH  20  28
ENDBRANCH  16  18
ENDBRANCH   1  16
BRANCH   4  44
ATOM     44  S46 MOL d          50.575   5.451   4.315  0.00  0.00     0.232 S 
ATOM     45  O47 MOL d          50.122   5.588   5.681  0.00  0.00    -0.205 OA
ATOM     46  O48 MOL d          51.996   5.419   4.026  0.00  0.00    -0.205 OA
BRANCH  44  47
ATOM     47  C49 MOL d          49.622   4.108   3.571  0.00  0.00     0.070 C 
ATOM     48  H17 MOL d          48.566   4.193   3.871  0.00  0.00     0.066 H 
ATOM     49  H18 MOL d          50.021   3.140   3.907  0.00  0.00     0.066 H 
BRANCH  47  50
ATOM     50  C50 MOL d          49.732   4.209   2.079  0.00  0.00    -0.043 A 
ATOM     51  C53 MOL d          48.487   4.344   1.348  0.00  0.00    -0.076 A 
ATOM     52  C54 MOL d          48.576   4.554  -0.081  0.00  0.00    -0.082 A 
ATOM     53  H19 MOL d          47.529   4.288   1.851  0.00  0.00     0.084 H 
ATOM     54  C55 MOL d          49.885   4.581  -0.730  0.00  0.00    -0.083 A 
ATOM     55  H20 MOL d          47.675   4.692  -0.668  0.00  0.00     0.083 H 
ATOM     56  C56 MOL d          51.122   4.458   0.018  0.00  0.00    -0.082 A 
ATOM     57  H21 MOL d          49.933   4.698  -1.807  0.00  0.00     0.083 H 
ATOM     58  C57 MOL d          51.058   4.258   1.456  0.00  0.00    -0.076 A 
ATOM     59  H22 MOL d          52.079   4.514  -0.487  0.00  0.00     0.083 H 
ATOM     60  H23 MOL d          51.959   4.148   2.048  0.00  0.00     0.084 H 
ENDBRANCH  47  50
ENDBRANCH  44  47
ENDBRANCH   4  44
TORSDOF 10
ENDMDL
MODEL 2
REMARK VINA RESULT:      -7.1      3.091     11.409
REMARK  10 active torsions:
REMARK  status: ('A' for Active; 'I' for Inactive)
REMARK    1  A    between atoms: C2_2  and  C6_6 
REMARK    2  A    between atoms: C3_3  and  O20_16 
REMARK    3  A    between atoms: C5_5  and  C9_9 
REMARK    4  A    between atoms: C11_11  and  N29_21 
REMARK    5  A    between atoms: O20_16  and  C21_17 
REMARK    6  A    between atoms: C21_17  and  C22_18 
REMARK    7  A    between atoms: N29_21  and  C30_22 
REMARK    8  A    between atoms: N33_25  and  S46_28 
REMARK    9  A    between atoms: S46_28  and  C49_31 
REMARK   10  A    between atoms: C49_31  and  C50_32 
ROOT
ATOM      1  C30 MOL d          47.272   8.900   0.518  0.00  0.00     0.012 C 
ATOM      2  C31 MOL d          45.831   9.217   0.114  0.00  0.00    -0.031 C 
ATOM      3  C32 MOL d          45.622  10.662  -0.274  0.00  0.00     0.007 C 
ATOM      4  N33 MOL d          46.203  11.485   0.788  0.00  0.00    -0.310 N 
ATOM      5  C34 MOL d          47.597  11.315   1.205  0.00  0.00     0.007 C 
ATOM      6  C35 MOL d          47.802   9.868   1.572  0.00  0.00    -0.031 C 
ATOM      7  H8  MOL d          47.914   8.970  -0.373  0.00  0.00     0.072 H 
ATOM      8  H9  MOL d          45.172   8.984   0.963  0.00  0.00     0.038 H 
ATOM      9  H10 MOL d          45.561   8.582  -0.743  0.00  0.00     0.038 H 
ATOM     10  H11 MOL d          44.547  10.875  -0.368  0.00  0.00     0.065 H 
ATOM     11  H12 MOL d          46.123  10.872  -1.229  0.00  0.00     0.065 H 
ATOM     12  H13 MOL d          47.806  11.954   2.076  0.00  0.00     0.065 H 
ATOM     13  H14 MOL d          48.269  11.590   0.380  0.00  0.00     0.065 H 
ATOM     14  H15 MOL d          48.880   9.690   1.701  0.00  0.00     0.038 H 
ATOM     15  H16 MOL d          47.282   9.671   2.521  0.00  0.00     0.038 H 
ENDROOT
BRANCH   1  16
ATOM     16  N29 MOL d          47.304   7.560   1.019  0.00  0.00    -0.385 N 
ATOM     17  H7  MOL d          46.587   7.269   1.699  0.00  0.00     0.160 HD
BRANCH  16  18
ATOM     18  C11 MOL d          48.243   6.654   0.633  0.00  0.00     0.029 A 
ATOM     19  C10 MOL d          48.721   5.829   1.700  0.00  0.00    -0.046 A 
ATOM     20  C9  MOL d          49.737   4.829   1.410  0.00  0.00    -0.015 A 
ATOM     21  H1  MOL d          48.335   5.947   2.705  0.00  0.00     0.088 H 
ATOM     22  C14 MOL d          50.221   4.642   0.047  0.00  0.00    -0.072 A 
ATOM     23  C13 MOL d          49.760   5.472  -1.029  0.00  0.00    -0.080 A 
ATOM     24  H4  MOL d          50.944   3.861  -0.157  0.00  0.00     0.084 H 
ATOM     25  C12 MOL d          48.756   6.477  -0.723  0.00  0.00    -0.058 A 
ATOM     26  H3  MOL d          50.148   5.354  -2.034  0.00  0.00     0.083 H 
ATOM     27  H2  MOL d          48.380   7.109  -1.520  0.00  0.00     0.086 H 
BRANCH  20  28
ATOM     28  C5  MOL d          50.335   3.990   2.468  0.00  0.00     0.036 A 
ATOM     29  S1  MOL d          49.418   2.579   3.121  0.00  0.00    -0.078 SA
ATOM     30  C2  MOL d          50.754   2.121   4.219  0.00  0.00     0.117 A 
ATOM     31  C3  MOL d          51.764   2.963   4.084  0.00  0.00     0.112 A 
ATOM     32  C4  MOL d          51.539   3.995   3.060  0.00  0.00     0.064 A 
ATOM     33 BR19 MOL d          52.977   5.091   2.611  0.00  0.00    -0.047 Br
BRANCH  30  34
ATOM     34  C6  MOL d          50.562   1.048   5.171  0.00  0.00     0.219 C 
ATOM     35  O7  MOL d          51.337   0.091   4.959  0.00  0.00    -0.643 OA
ATOM     36  O8  MOL d          49.716   1.068   6.092  0.00  0.00    -0.643 OA
ENDBRANCH  30  34
BRANCH  31  37
ATOM     37  O20 MOL d          52.886   2.795   4.769  0.00  0.00    -0.338 OA
BRANCH  37  38
ATOM     38  C21 MOL d          52.794   3.001   6.163  0.00  0.00     0.106 C 
ATOM     39  H5  MOL d          53.698   2.626   6.666  0.00  0.00     0.091 H 
ATOM     40  H6  MOL d          51.910   2.488   6.568  0.00  0.00     0.091 H 
BRANCH  38  41
ATOM     41  C22 MOL d          52.672   4.448   6.350  0.00  0.00     0.198 C 
ATOM     42  O25 MOL d          51.682   4.824   7.004  0.00  0.00    -0.646 OA
ATOM     43  O26 MOL d          53.533   5.216   5.866  0.00  0.00    -0.646 OA
ENDBRANCH  38  41
ENDBRANCH  37  38
ENDBRANCH  31  37
ENDBRANCH  20  28
ENDBRANCH  16  18
ENDBRANCH   1  16
BRANCH   4  44
ATOM     44  S46 MOL d          45.526  13.020   1.113  0.00  0.00     0.232 S 
ATOM     45  O47 MOL d          44.167  12.766   1.533  0.00  0.00    -0.205 OA
ATOM     46  O48 MOL d          45.777  13.827  -0.067  0.00  0.00    -0.205 OA
BRANCH  44  47
ATOM     47  C49 MOL d          46.453  13.520   2.580  0.00  0.00     0.070 C 
ATOM     48  H17 MOL d          47.521  13.298   2.437  0.00  0.00     0.066 H 
ATOM     49  H18 MOL d          46.080  12.972   3.458  0.00  0.00     0.066 H 
BRANCH  47  50
ATOM     50  C50 MOL d          46.267  14.993   2.789  0.00  0.00    -0.043 A 
ATOM     51  C53 MOL d          47.439  15.738   3.205  0.00  0.00    -0.076 A 
ATOM     52  C54 MOL d          47.311  17.177   3.303  0.00  0.00    -0.082 A 
ATOM     53  H19 MOL d          48.373  15.239   3.434  0.00  0.00     0.084 H 
ATOM     54  C55 MOL d          46.024  17.811   3.028  0.00  0.00    -0.083 A 
ATOM     55  H20 MOL d          48.167  17.781   3.581  0.00  0.00     0.083 H 
ATOM     56  C56 MOL d          44.863  17.051   2.599  0.00  0.00    -0.082 A 
ATOM     57  H21 MOL d          45.933  18.884   3.147  0.00  0.00     0.083 H 
ATOM     58  C57 MOL d          44.972  15.607   2.482  0.00  0.00    -0.076 A 
ATOM     59  H22 MOL d          43.931  17.554   2.370  0.00  0.00     0.083 H 
ATOM     60  H23 MOL d          44.125  15.004   2.177  0.00  0.00     0.084 H 
ENDBRANCH  47  50
ENDBRANCH  44  47
ENDBRANCH   4  44
TORSDOF 10
ENDMDL
MODEL 3
REMARK VINA RESULT:      -6.7      3.256     11.754
REMARK  10 active torsions:
REMARK  status: ('A' for Active; 'I' for Inactive)
REMARK    1  A    between atoms: C2_2  and  C6_6 
REMARK    2  A    between atoms: C3_3  and  O20_16 
REMARK    3  A    between atoms: C5_5  and  C9_9 
REMARK    4  A    between atoms: C11_11  and  N29_21 
REMARK    5  A    between atoms: O20_16  and  C21_17 
REMARK    6  A    between atoms: C21_17  and  C22_18 
REMARK    7  A    between atoms: N29_21  and  C30_22 
REMARK    8  A    between atoms: N33_25  and  S46_28 
REMARK    9  A    between atoms: S46_28  and  C49_31 
REMARK   10  A    between atoms: C49_31  and  C50_32 
ROOT
ATOM      1  C30 MOL d          47.789   8.938  -0.021  0.00  0.00     0.012 C 
ATOM      2  C31 MOL d          46.290   9.046  -0.300  0.00  0.00    -0.031 C 
ATOM      3  C32 MOL d          45.831  10.461  -0.567  0.00  0.00     0.007 C 
ATOM      4  N33 MOL d          46.361  11.300   0.508  0.00  0.00    -0.310 N 
ATOM      5  C34 MOL d          47.794  11.328   0.814  0.00  0.00     0.007 C 
ATOM      6  C35 MOL d          48.247   9.913   1.061  0.00  0.00    -0.031 C 
ATOM      7  H8  MOL d          48.339   9.162  -0.947  0.00  0.00     0.072 H 
ATOM      8  H9  MOL d          45.744   8.661   0.574  0.00  0.00     0.038 H 
ATOM      9  H10 MOL d          46.053   8.430  -1.180  0.00  0.00     0.038 H 
ATOM     10  H11 MOL d          44.732  10.506  -0.572  0.00  0.00     0.065 H 
ATOM     11  H12 MOL d          46.216  10.805  -1.538  0.00  0.00     0.065 H 
ATOM     12  H13 MOL d          47.971  11.938   1.713  0.00  0.00     0.065 H 
ATOM     13  H14 MOL d          48.348  11.755  -0.034  0.00  0.00     0.065 H 
ATOM     14  H15 MOL d          49.346   9.900   1.101  0.00  0.00     0.038 H 
ATOM     15  H16 MOL d          47.841   9.579   2.027  0.00  0.00     0.038 H 
ENDROOT
BRANCH   1  16
ATOM     16  N29 MOL d          48.066   7.592   0.379  0.00  0.00    -0.385 N 
ATOM     17  H7  MOL d          48.136   6.865  -0.348  0.00  0.00     0.160 HD
BRANCH  16  18
ATOM     18  C11 MOL d          48.242   7.234   1.679  0.00  0.00     0.029 A 
ATOM     19  C10 MOL d          49.108   6.109   1.856  0.00  0.00    -0.046 A 
ATOM     20  C9  MOL d          49.363   5.627   3.204  0.00  0.00    -0.015 A 
ATOM     21  H1  MOL d          49.566   5.624   1.001  0.00  0.00     0.088 H 
ATOM     22  C14 MOL d          48.783   6.310   4.355  0.00  0.00    -0.072 A 
ATOM     23  C13 MOL d          47.902   7.431   4.190  0.00  0.00    -0.080 A 
ATOM     24  H4  MOL d          49.022   5.965   5.354  0.00  0.00     0.084 H 
ATOM     25  C12 MOL d          47.644   7.893   2.838  0.00  0.00    -0.058 A 
ATOM     26  H3  MOL d          47.444   7.915   5.046  0.00  0.00     0.083 H 
ATOM     27  H2  MOL d          46.992   8.747   2.685  0.00  0.00     0.086 H 
BRANCH  20  28
ATOM     28  C5  MOL d          50.185   4.428   3.466  0.00  0.00     0.036 A 
ATOM     29  S1  MOL d          49.688   2.833   2.784  0.00  0.00    -0.078 SA
ATOM     30  C2  MOL d          51.121   2.008   3.466  0.00  0.00     0.117 A 
ATOM     31  C3  MOL d          51.870   2.871   4.131  0.00  0.00     0.112 A 
ATOM     32  C4  MOL d          51.358   4.249   4.092  0.00  0.00     0.064 A 
ATOM     33 BR19 MOL d          52.445   5.592   4.788  0.00  0.00    -0.047 Br
BRANCH  30  34
ATOM     34  C6  MOL d          51.241   0.570   3.354  0.00  0.00     0.219 C 
ATOM     35  O7  MOL d          50.169  -0.011   3.626  0.00  0.00    -0.643 OA
ATOM     36  O8  MOL d          52.294  -0.025   3.033  0.00  0.00    -0.643 OA
ENDBRANCH  30  34
BRANCH  31  37
ATOM     37  O20 MOL d          53.012   2.493   4.688  0.00  0.00    -0.338 OA
BRANCH  37  38
ATOM     38  C21 MOL d          53.023   2.446   6.100  0.00  0.00     0.106 C 
ATOM     39  H5  MOL d          52.269   3.134   6.511  0.00  0.00     0.091 H 
ATOM     40  H6  MOL d          54.017   2.722   6.483  0.00  0.00     0.091 H 
BRANCH  38  41
ATOM     41  C22 MOL d          52.704   1.065   6.461  0.00  0.00     0.198 C 
ATOM     42  O25 MOL d          51.538   0.865   6.849  0.00  0.00    -0.646 OA
ATOM     43  O26 MOL d          53.580   0.175   6.368  0.00  0.00    -0.646 OA
ENDBRANCH  38  41
ENDBRANCH  37  38
ENDBRANCH  31  37
ENDBRANCH  20  28
ENDBRANCH  16  18
ENDBRANCH   1  16
BRANCH   4  44
ATOM     44  S46 MOL d          45.485  12.686   0.989  0.00  0.00     0.232 S 
ATOM     45  O47 MOL d          44.255  12.190   1.562  0.00  0.00    -0.205 OA
ATOM     46  O48 MOL d          45.440  13.555  -0.173  0.00  0.00    -0.205 OA
BRANCH  44  47
ATOM     47  C49 MOL d          46.500  13.300   2.352  0.00  0.00     0.070 C 
ATOM     48  H17 MOL d          47.562  13.114   2.136  0.00  0.00     0.066 H 
ATOM     49  H18 MOL d          46.220  12.784   3.282  0.00  0.00     0.066 H 
BRANCH  47  50
ATOM     50  C50 MOL d          46.266  14.773   2.502  0.00  0.00    -0.043 A 
ATOM     51  C53 MOL d          44.959  15.262   2.107  0.00  0.00    -0.076 A 
ATOM     52  C54 MOL d          44.673  16.660   2.347  0.00  0.00    -0.082 A 
ATOM     53  H19 MOL d          44.227  14.607   1.650  0.00  0.00     0.084 H 
ATOM     54  C55 MOL d          45.701  17.521   2.927  0.00  0.00    -0.083 A 
ATOM     55  H20 MOL d          43.700  17.067   2.098  0.00  0.00     0.083 H 
ATOM     56  C56 MOL d          47.000  17.013   3.329  0.00  0.00    -0.082 A 
ATOM     57  H21 MOL d          45.486  18.575   3.062  0.00  0.00     0.083 H 
ATOM     58  C57 MOL d          47.305  15.610   3.109  0.00  0.00    -0.076 A 
ATOM     59  H22 MOL d          47.730  17.670   3.787  0.00  0.00     0.083 H 
ATOM     60  H23 MOL d          48.268  15.196   3.383  0.00  0.00     0.084 H 
ENDBRANCH  47  50
ENDBRANCH  44  47
ENDBRANCH   4  44
TORSDOF 10
ENDMDL
MODEL 4
REMARK VINA RESULT:      -6.4      3.309     11.595
REMARK  10 active torsions:
REMARK  status: ('A' for Active; 'I' for Inactive)
REMARK    1  A    between atoms: C2_2  and  C6_6 
REMARK    2  A    between atoms: C3_3  and  O20_16 
REMARK    3  A    between atoms: C5_5  and  C9_9 
REMARK    4  A    between atoms: C11_11  and  N29_21 
REMARK    5  A    between atoms: O20_16  and  C21_17 
REMARK    6  A    between atoms: C21_17  and  C22_18 
REMARK    7  A    between atoms: N29_21  and  C30_22 
REMARK    8  A    between atoms: N33_25  and  S46_28 
REMARK    9  A    between atoms: S46_28  and  C49_31 
REMARK   10  A    between atoms: C49_31  and  C50_32 
ROOT
ATOM      1  C30 MOL d          46.929   8.567   0.886  0.00  0.00     0.012 C 
ATOM      2  C31 MOL d          47.678   9.588   1.744  0.00  0.00    -0.031 C 
ATOM      3  C32 MOL d          46.790  10.686   2.281  0.00  0.00     0.007 C 
ATOM      4  N33 MOL d          46.023  11.215   1.152  0.00  0.00    -0.310 N 
ATOM      5  C34 MOL d          45.212  10.335   0.306  0.00  0.00     0.007 C 
ATOM      6  C35 MOL d          46.100   9.233  -0.210  0.00  0.00    -0.031 C 
ATOM      7  H8  MOL d          46.252   7.989   1.532  0.00  0.00     0.072 H 
ATOM      8  H9  MOL d          48.469  10.045   1.132  0.00  0.00     0.038 H 
ATOM      9  H10 MOL d          48.134   9.060   2.596  0.00  0.00     0.038 H 
ATOM     10  H11 MOL d          47.404  11.484   2.724  0.00  0.00     0.065 H 
ATOM     11  H12 MOL d          46.109  10.281   3.043  0.00  0.00     0.065 H 
ATOM     12  H13 MOL d          44.800  10.907  -0.539  0.00  0.00     0.065 H 
ATOM     13  H14 MOL d          44.389   9.906   0.895  0.00  0.00     0.065 H 
ATOM     14  H15 MOL d          45.468   8.468  -0.683  0.00  0.00     0.038 H 
ATOM     15  H16 MOL d          46.785   9.657  -0.958  0.00  0.00     0.038 H 
ENDROOT
BRANCH   1  16
ATOM     16  N29 MOL d          47.896   7.686   0.306  0.00  0.00    -0.385 N 
ATOM     17  H7  MOL d          47.749   7.358  -0.659  0.00  0.00     0.160 HD
BRANCH  16  18
ATOM     18  C11 MOL d          49.001   7.264   0.978  0.00  0.00     0.029 A 
ATOM     19  C10 MOL d          48.859   5.966   1.564  0.00  0.00    -0.046 A 
ATOM     20  C9  MOL d          49.973   5.413   2.318  0.00  0.00    -0.015 A 
ATOM     21  H1  MOL d          47.939   5.406   1.449  0.00  0.00     0.088 H 
ATOM     22  C14 MOL d          51.226   6.150   2.431  0.00  0.00    -0.072 A 
ATOM     23  C13 MOL d          51.377   7.458   1.860  0.00  0.00    -0.080 A 
ATOM     24  H4  MOL d          52.061   5.701   2.957  0.00  0.00     0.084 H 
ATOM     25  C12 MOL d          50.252   8.005   1.122  0.00  0.00    -0.058 A 
ATOM     26  H3  MOL d          52.298   8.018   1.976  0.00  0.00     0.083 H 
ATOM     27  H2  MOL d          50.342   8.986   0.669  0.00  0.00     0.086 H 
BRANCH  20  28
ATOM     28  C5  MOL d          49.880   4.114   3.014  0.00  0.00     0.036 A 
ATOM     29  S1  MOL d          48.325   3.197   3.000  0.00  0.00    -0.078 SA
ATOM     30  C2  MOL d          49.025   1.844   3.937  0.00  0.00     0.117 A 
ATOM     31  C3  MOL d          50.294   2.091   4.216  0.00  0.00     0.112 A 
ATOM     32  C4  MOL d          50.786   3.358   3.654  0.00  0.00     0.064 A 
ATOM     33 BR19 MOL d          52.612   3.704   3.774  0.00  0.00    -0.047 Br
BRANCH  30  34
ATOM     34  C6  MOL d          48.171   0.765   4.385  0.00  0.00     0.219 C 
ATOM     35  O7  MOL d          47.867  -0.008   3.452  0.00  0.00    -0.643 OA
ATOM     36  O8  MOL d          47.774   0.626   5.563  0.00  0.00    -0.643 OA
ENDBRANCH  30  34
BRANCH  31  37
ATOM     37  O20 MOL d          51.032   1.205   4.868  0.00  0.00    -0.338 OA
BRANCH  37  38
ATOM     38  C21 MOL d          50.883   1.192   6.273  0.00  0.00     0.106 C 
ATOM     39  H5  MOL d          50.937   0.161   6.653  0.00  0.00     0.091 H 
ATOM     40  H6  MOL d          49.919   1.638   6.559  0.00  0.00     0.091 H 
BRANCH  38  41
ATOM     41  C22 MOL d          51.989   1.988   6.804  0.00  0.00     0.198 C 
ATOM     42  O25 MOL d          51.693   3.137   7.183  0.00  0.00    -0.646 OA
ATOM     43  O26 MOL d          53.142   1.502   6.855  0.00  0.00    -0.646 OA
ENDBRANCH  38  41
ENDBRANCH  37  38
ENDBRANCH  31  37
ENDBRANCH  20  28
ENDBRANCH  16  18
ENDBRANCH   1  16
BRANCH   4  44
ATOM     44  S46 MOL d          45.546  12.855   1.168  0.00  0.00     0.232 S 
ATOM     45  O47 MOL d          44.128  12.846   1.446  0.00  0.00    -0.205 OA
ATOM     46  O48 MOL d          46.033  13.427  -0.074  0.00  0.00    -0.205 OA
BRANCH  44  47
ATOM     47  C49 MOL d          46.377  13.458   2.655  0.00  0.00     0.070 C 
ATOM     48  H17 MOL d          47.436  13.162   2.632  0.00  0.00     0.066 H 
ATOM     49  H18 MOL d          45.896  13.030   3.546  0.00  0.00     0.066 H 
BRANCH  47  50
ATOM     50  C50 MOL d          46.271  14.953   2.693  0.00  0.00    -0.043 A 
ATOM     51  C53 MOL d          45.002  15.520   2.282  0.00  0.00    -0.076 A 
ATOM     52  C54 MOL d          44.839  16.952   2.418  0.00  0.00    -0.082 A 
ATOM     53  H19 MOL d          44.207  14.898   1.889  0.00  0.00     0.084 H 
ATOM     54  C55 MOL d          45.949  17.764   2.913  0.00  0.00    -0.083 A 
ATOM     55  H20 MOL d          43.898  17.420   2.153  0.00  0.00     0.083 H 
ATOM     56  C56 MOL d          47.209  17.178   3.333  0.00  0.00    -0.082 A 
ATOM     57  H21 MOL d          45.826  18.839   2.969  0.00  0.00     0.083 H 
ATOM     58  C57 MOL d          47.390  15.741   3.217  0.00  0.00    -0.076 A 
ATOM     59  H22 MOL d          48.002  17.804   3.727  0.00  0.00     0.083 H 
ATOM     60  H23 MOL d          48.321  15.269   3.508  0.00  0.00     0.084 H 
ENDBRANCH  47  50
ENDBRANCH  44  47
ENDBRANCH   4  44
TORSDOF 10
ENDMDL
MODEL 5
REMARK VINA RESULT:      -6.4      3.414     11.798
REMARK  10 active torsions:
REMARK  status: ('A' for Active; 'I' for Inactive)
REMARK    1  A    between atoms: C2_2  and  C6_6 
REMARK    2  A    between atoms: C3_3  and  O20_16 
REMARK    3  A    between atoms: C5_5  and  C9_9 
REMARK    4  A    between atoms: C11_11  and  N29_21 
REMARK    5  A    between atoms: O20_16  and  C21_17 
REMARK    6  A    between atoms: C21_17  and  C22_18 
REMARK    7  A    between atoms: N29_21  and  C30_22 
REMARK    8  A    between atoms: N33_25  and  S46_28 
REMARK    9  A    between atoms: S46_28  and  C49_31 
REMARK   10  A    between atoms: C49_31  and  C50_32 
ROOT
ATOM      1  C30 MOL d          48.202   8.920  -0.035  0.00  0.00     0.012 C 
ATOM      2  C31 MOL d          46.681   8.776   0.025  0.00  0.00    -0.031 C 
ATOM      3  C32 MOL d          45.944  10.054  -0.304  0.00  0.00     0.007 C 
ATOM      4  N33 MOL d          46.535  11.117   0.510  0.00  0.00    -0.310 N 
ATOM      5  C34 MOL d          47.974  11.390   0.475  0.00  0.00     0.007 C 
ATOM      6  C35 MOL d          48.701  10.107   0.786  0.00  0.00    -0.031 C 
ATOM      7  H8  MOL d          48.504   9.069  -1.082  0.00  0.00     0.072 H 
ATOM      8  H9  MOL d          46.400   8.462   1.041  0.00  0.00     0.038 H 
ATOM      9  H10 MOL d          46.376   8.001  -0.695  0.00  0.00     0.038 H 
ATOM     10  H11 MOL d          44.877   9.945  -0.064  0.00  0.00     0.065 H 
ATOM     11  H12 MOL d          46.058  10.289  -1.372  0.00  0.00     0.065 H 
ATOM     12  H13 MOL d          48.227  12.152   1.227  0.00  0.00     0.065 H 
ATOM     13  H14 MOL d          48.262  11.749  -0.523  0.00  0.00     0.065 H 
ATOM     14  H15 MOL d          49.771  10.253   0.576  0.00  0.00     0.038 H 
ATOM     15  H16 MOL d          48.565   9.877   1.852  0.00  0.00     0.038 H 
ENDROOT
BRANCH   1  16
ATOM     16  N29 MOL d          48.779   7.705   0.455  0.00  0.00    -0.385 N 
ATOM     17  H7  MOL d          49.289   7.100  -0.203  0.00  0.00     0.160 HD
BRANCH  16  18
ATOM     18  C11 MOL d          48.681   7.319   1.755  0.00  0.00     0.029 A 
ATOM     19  C10 MOL d          49.457   6.159   2.073  0.00  0.00    -0.046 A 
ATOM     20  C9  MOL d          49.423   5.644   3.433  0.00  0.00    -0.015 A 
ATOM     21  H1  MOL d          50.060   5.673   1.314  0.00  0.00     0.088 H 
ATOM     22  C14 MOL d          48.649   6.328   4.462  0.00  0.00    -0.072 A 
ATOM     23  C13 MOL d          47.855   7.483   4.154  0.00  0.00    -0.080 A 
ATOM     24  H4  MOL d          48.673   5.957   5.479  0.00  0.00     0.084 H 
ATOM     25  C12 MOL d          47.886   7.979   2.789  0.00  0.00    -0.058 A 
ATOM     26  H3  MOL d          47.252   7.969   4.913  0.00  0.00     0.083 H 
ATOM     27  H2  MOL d          47.306   8.858   2.531  0.00  0.00     0.086 H 
BRANCH  20  28
ATOM     28  C5  MOL d          50.137   4.412   3.822  0.00  0.00     0.036 A 
ATOM     29  S1  MOL d          50.688   4.193   5.527  0.00  0.00    -0.078 SA
ATOM     30  C2  MOL d          51.352   2.567   5.185  0.00  0.00     0.117 A 
ATOM     31  C3  MOL d          51.163   2.256   3.914  0.00  0.00     0.112 A 
ATOM     32  C4  MOL d          50.437   3.286   3.155  0.00  0.00     0.064 A 
ATOM     33 BR19 MOL d          49.902   2.864   1.422  0.00  0.00    -0.047 Br
BRANCH  30  34
ATOM     34  C6  MOL d          52.094   1.866   6.210  0.00  0.00     0.219 C 
ATOM     35  O7  MOL d          51.419   0.955   6.736  0.00  0.00    -0.643 OA
ATOM     36  O8  MOL d          53.268   2.143   6.542  0.00  0.00    -0.643 OA
ENDBRANCH  30  34
BRANCH  31  37
ATOM     37  O20 MOL d          51.536   1.075   3.440  0.00  0.00    -0.338 OA
BRANCH  37  38
ATOM     38  C21 MOL d          52.916   0.921   3.184  0.00  0.00     0.106 C 
ATOM     39  H5  MOL d          53.247  -0.089   3.467  0.00  0.00     0.091 H 
ATOM     40  H6  MOL d          53.495   1.668   3.747  0.00  0.00     0.091 H 
BRANCH  38  41
ATOM     41  C22 MOL d          53.085   1.128   1.745  0.00  0.00     0.198 C 
ATOM     42  O25 MOL d          52.637   0.225   1.015  0.00  0.00    -0.646 OA
ATOM     43  O26 MOL d          53.649   2.163   1.323  0.00  0.00    -0.646 OA
ENDBRANCH  38  41
ENDBRANCH  37  38
ENDBRANCH  31  37
ENDBRANCH  20  28
ENDBRANCH  16  18
ENDBRANCH   1  16
BRANCH   4  44
ATOM     44  S46 MOL d          45.556  12.427   1.001  0.00  0.00     0.232 S 
ATOM     45  O47 MOL d          44.331  11.836   1.491  0.00  0.00    -0.205 OA
ATOM     46  O48 MOL d          45.515  13.342  -0.124  0.00  0.00    -0.205 OA
BRANCH  44  47
ATOM     47  C49 MOL d          46.464  13.038   2.438  0.00  0.00     0.070 C 
ATOM     48  H17 MOL d          47.545  12.907   2.277  0.00  0.00     0.066 H 
ATOM     49  H18 MOL d          46.158  12.479   3.335  0.00  0.00     0.066 H 
BRANCH  47  50
ATOM     50  C50 MOL d          46.155  14.493   2.621  0.00  0.00    -0.043 A 
ATOM     51  C53 MOL d          47.235  15.325   3.115  0.00  0.00    -0.076 A 
ATOM     52  C54 MOL d          46.993  16.750   3.192  0.00  0.00    -0.082 A 
ATOM     53  H19 MOL d          48.184  14.897   3.414  0.00  0.00     0.084 H 
ATOM     54  C55 MOL d          45.685  17.285   2.819  0.00  0.00    -0.083 A 
ATOM     55  H20 MOL d          47.779  17.418   3.525  0.00  0.00     0.083 H 
ATOM     56  C56 MOL d          44.619  16.440   2.315  0.00  0.00    -0.082 A 
ATOM     57  H21 MOL d          45.506  18.349   2.924  0.00  0.00     0.083 H 
ATOM     58  C57 MOL d          44.843  15.008   2.217  0.00  0.00    -0.076 A 
ATOM     59  H22 MOL d          43.670  16.871   2.016  0.00  0.00     0.083 H 
ATOM     60  H23 MOL d          44.067  14.342   1.857  0.00  0.00     0.084 H 
ENDBRANCH  47  50
ENDBRANCH  44  47
ENDBRANCH   4  44
TORSDOF 10
ENDMDL
MODEL 6
REMARK VINA RESULT:      -6.2      2.062      2.736
REMARK  10 active torsions:
REMARK  status: ('A' for Active; 'I' for Inactive)
REMARK    1  A    between atoms: C2_2  and  C6_6 
REMARK    2  A    between atoms: C3_3  and  O20_16 
REMARK    3  A    between atoms: C5_5  and  C9_9 
REMARK    4  A    between atoms: C11_11  and  N29_21 
REMARK    5  A    between atoms: O20_16  and  C21_17 
REMARK    6  A    between atoms: C21_17  and  C22_18 
REMARK    7  A    between atoms: N29_21  and  C30_22 
REMARK    8  A    between atoms: N33_25  and  S46_28 
REMARK    9  A    between atoms: S46_28  and  C49_31 
REMARK   10  A    between atoms: C49_31  and  C50_32 
ROOT
ATOM      1  C30 MOL d          49.325   8.197   3.213  0.00  0.00     0.012 C 
ATOM      2  C31 MOL d          48.093   7.406   3.655  0.00  0.00    -0.031 C 
ATOM      3  C32 MOL d          48.340   5.918   3.755  0.00  0.00     0.007 C 
ATOM      4  N33 MOL d          48.976   5.499   2.505  0.00  0.00    -0.310 N 
ATOM      5  C34 MOL d          50.202   6.140   2.023  0.00  0.00     0.007 C 
ATOM      6  C35 MOL d          49.954   7.624   1.944  0.00  0.00    -0.031 C 
ATOM      7  H8  MOL d          50.075   8.165   4.017  0.00  0.00     0.072 H 
ATOM      8  H9  MOL d          47.288   7.578   2.925  0.00  0.00     0.038 H 
ATOM      9  H10 MOL d          47.777   7.775   4.642  0.00  0.00     0.038 H 
ATOM     10  H11 MOL d          47.387   5.387   3.888  0.00  0.00     0.065 H 
ATOM     11  H12 MOL d          49.003   5.703   4.605  0.00  0.00     0.065 H 
ATOM     12  H13 MOL d          50.459   5.752   1.027  0.00  0.00     0.065 H 
ATOM     13  H14 MOL d          51.028   5.937   2.721  0.00  0.00     0.065 H 
ATOM     14  H15 MOL d          50.914   8.130   1.771  0.00  0.00     0.038 H 
ATOM     15  H16 MOL d          49.278   7.821   1.100  0.00  0.00     0.038 H 
ENDROOT
BRANCH   1  16
ATOM     16  N29 MOL d          48.923   9.553   2.994  0.00  0.00    -0.385 N 
ATOM     17  H7  MOL d          49.438  10.304   3.475  0.00  0.00     0.160 HD
BRANCH  16  18
ATOM     18  C11 MOL d          47.888   9.889   2.178  0.00  0.00     0.029 A 
ATOM     19  C10 MOL d          47.470  11.252   2.308  0.00  0.00    -0.046 A 
ATOM     20  C9  MOL d          46.363  11.724   1.492  0.00  0.00    -0.015 A 
ATOM     21  H1  MOL d          47.969  11.919   3.001  0.00  0.00     0.088 H 
ATOM     22  C14 MOL d          45.725  10.837   0.527  0.00  0.00    -0.072 A 
ATOM     23  C13 MOL d          46.125   9.465   0.397  0.00  0.00    -0.080 A 
ATOM     24  H4  MOL d          44.932  11.220  -0.105  0.00  0.00     0.084 H 
ATOM     25  C12 MOL d          47.222   9.001   1.228  0.00  0.00    -0.058 A 
ATOM     26  H3  MOL d          45.625   8.798  -0.296  0.00  0.00     0.083 H 
ATOM     27  H2  MOL d          47.554   7.972   1.141  0.00  0.00     0.086 H 
BRANCH  20  28
ATOM     28  C5  MOL d          45.825  13.094   1.620  0.00  0.00     0.036 A 
ATOM     29  S1  MOL d          44.697  13.736   0.365  0.00  0.00    -0.078 SA
ATOM     30  C2  MOL d          44.501  15.291   1.228  0.00  0.00     0.117 A 
ATOM     31  C3  MOL d          45.222  15.292   2.336  0.00  0.00     0.112 A 
ATOM     32  C4  MOL d          45.938  14.029   2.575  0.00  0.00     0.064 A 
ATOM     33 BR19 MOL d          46.795  13.822   4.215  0.00  0.00    -0.047 Br
BRANCH  30  34
ATOM     34  C6  MOL d          43.746  16.361   0.612  0.00  0.00     0.219 C 
ATOM     35  O7  MOL d          43.452  17.257   1.432  0.00  0.00    -0.643 OA
ATOM     36  O8  MOL d          43.417  16.385  -0.594  0.00  0.00    -0.643 OA
ENDBRANCH  30  34
BRANCH  31  37
ATOM     37  O20 MOL d          45.199  16.328   3.162  0.00  0.00    -0.338 OA
BRANCH  37  38
ATOM     38  C21 MOL d          46.171  17.326   2.927  0.00  0.00     0.106 C 
ATOM     39  H5  MOL d          45.685  18.281   2.675  0.00  0.00     0.091 H 
ATOM     40  H6  MOL d          46.837  17.026   2.105  0.00  0.00     0.091 H 
BRANCH  38  41
ATOM     41  C22 MOL d          46.928  17.454   4.173  0.00  0.00     0.198 C 
ATOM     42  O25 MOL d          48.143  17.197   4.094  0.00  0.00    -0.646 OA
ATOM     43  O26 MOL d          46.346  17.804   5.225  0.00  0.00    -0.646 OA
ENDBRANCH  38  41
ENDBRANCH  37  38
ENDBRANCH  31  37
ENDBRANCH  20  28
ENDBRANCH  16  18
ENDBRANCH   1  16
BRANCH   4  44
ATOM     44  S46 MOL d          48.707   3.913   1.929  0.00  0.00     0.232 S 
ATOM     45  O47 MOL d          48.201   4.068   0.584  0.00  0.00    -0.205 OA
ATOM     46  O48 MOL d          47.895   3.253   2.934  0.00  0.00    -0.205 OA
BRANCH  44  47
ATOM     47  C49 MOL d          50.397   3.287   1.793  0.00  0.00     0.070 C 
ATOM     48  H17 MOL d          51.105   4.130   1.793  0.00  0.00     0.066 H 
ATOM     49  H18 MOL d          50.506   2.718   0.858  0.00  0.00     0.066 H 
BRANCH  47  50
ATOM     50  C50 MOL d          50.675   2.393   2.963  0.00  0.00    -0.043 A 
ATOM     51  C53 MOL d          50.992   3.051   4.216  0.00  0.00    -0.076 A 
ATOM     52  C54 MOL d          51.154   2.212   5.384  0.00  0.00    -0.082 A 
ATOM     53  H19 MOL d          51.104   4.127   4.275  0.00  0.00     0.084 H 
ATOM     54  C55 MOL d          51.037   0.761   5.256  0.00  0.00    -0.083 A 
ATOM     55  H20 MOL d          51.361   2.658   6.350  0.00  0.00     0.083 H 
ATOM     56  C56 MOL d          50.706   0.119   3.997  0.00  0.00    -0.082 A 
ATOM     57  H21 MOL d          51.203   0.143   6.132  0.00  0.00     0.083 H 
ATOM     58  C57 MOL d          50.527   0.943   2.814  0.00  0.00    -0.076 A 
ATOM     59  H22 MOL d          50.594  -0.958   3.941  0.00  0.00     0.083 H 
ATOM     60  H23 MOL d          50.292   0.500   1.853  0.00  0.00     0.084 H 
ENDBRANCH  47  50
ENDBRANCH  44  47
ENDBRANCH   4  44
TORSDOF 10
ENDMDL
MODEL 7
REMARK VINA RESULT:      -5.9      3.393     11.592
REMARK  10 active torsions:
REMARK  status: ('A' for Active; 'I' for Inactive)
REMARK    1  A    between atoms: C2_2  and  C6_6 
REMARK    2  A    between atoms: C3_3  and  O20_16 
REMARK    3  A    between atoms: C5_5  and  C9_9 
REMARK    4  A    between atoms: C11_11  and  N29_21 
REMARK    5  A    between atoms: O20_16  and  C21_17 
REMARK    6  A    between atoms: C21_17  and  C22_18 
REMARK    7  A    between atoms: N29_21  and  C30_22 
REMARK    8  A    between atoms: N33_25  and  S46_28 
REMARK    9  A    between atoms: S46_28  and  C49_31 
REMARK   10  A    between atoms: C49_31  and  C50_32 
ROOT
ATOM      1  C30 MOL d          47.443   8.827  -0.292  0.00  0.00     0.012 C 
ATOM      2  C31 MOL d          45.915   8.872  -0.306  0.00  0.00    -0.031 C 
ATOM      3  C32 MOL d          45.358  10.099  -0.990  0.00  0.00     0.007 C 
ATOM      4  N33 MOL d          46.044  11.261  -0.423  0.00  0.00    -0.310 N 
ATOM      5  C34 MOL d          47.506  11.355  -0.421  0.00  0.00     0.007 C 
ATOM      6  C35 MOL d          48.054  10.120   0.245  0.00  0.00    -0.031 C 
ATOM      7  H8  MOL d          47.804   8.673  -1.320  0.00  0.00     0.072 H 
ATOM      8  H9  MOL d          45.556   8.858   0.733  0.00  0.00     0.038 H 
ATOM      9  H10 MOL d          45.545   7.980  -0.834  0.00  0.00     0.038 H 
ATOM     10  H11 MOL d          44.276  10.174  -0.806  0.00  0.00     0.065 H 
ATOM     11  H12 MOL d          45.543  10.044  -2.072  0.00  0.00     0.065 H 
ATOM     12  H13 MOL d          47.822  12.250   0.135  0.00  0.00     0.065 H 
ATOM     13  H14 MOL d          47.876  11.417  -1.455  0.00  0.00     0.065 H 
ATOM     14  H15 MOL d          49.141  10.088   0.082  0.00  0.00     0.038 H 
ATOM     15  H16 MOL d          47.846  10.183   1.323  0.00  0.00     0.038 H 
ENDROOT
BRANCH   1  16
ATOM     16  N29 MOL d          47.843   7.719   0.521  0.00  0.00    -0.385 N 
ATOM     17  H7  MOL d          47.207   7.395   1.262  0.00  0.00     0.160 HD
BRANCH  16  18
ATOM     18  C11 MOL d          49.030   7.077   0.353  0.00  0.00     0.029 A 
ATOM     19  C10 MOL d          49.353   6.173   1.414  0.00  0.00    -0.046 A 
ATOM     20  C9  MOL d          50.605   5.436   1.350  0.00  0.00    -0.015 A 
ATOM     21  H1  MOL d          48.677   6.040   2.251  0.00  0.00     0.088 H 
ATOM     22  C14 MOL d          51.490   5.583   0.201  0.00  0.00    -0.072 A 
ATOM     23  C13 MOL d          51.186   6.496  -0.863  0.00  0.00    -0.080 A 
ATOM     24  H4  MOL d          52.396   4.990   0.148  0.00  0.00     0.084 H 
ATOM     25  C12 MOL d          49.939   7.237  -0.780  0.00  0.00    -0.058 A 
ATOM     26  H3  MOL d          51.863   6.629  -1.700  0.00  0.00     0.083 H 
ATOM     27  H2  MOL d          49.677   7.924  -1.577  0.00  0.00     0.086 H 
BRANCH  20  28
ATOM     28  C5  MOL d          51.044   4.541   2.440  0.00  0.00     0.036 A 
ATOM     29  S1  MOL d          52.228   5.133   3.666  0.00  0.00    -0.078 SA
ATOM     30  C2  MOL d          52.181   3.590   4.570  0.00  0.00     0.117 A 
ATOM     31  C3  MOL d          51.355   2.742   3.982  0.00  0.00     0.112 A 
ATOM     32  C4  MOL d          50.680   3.300   2.799  0.00  0.00     0.064 A 
ATOM     33 BR19 MOL d          49.319   2.291   2.027  0.00  0.00    -0.047 Br
BRANCH  30  34
ATOM     34  C6  MOL d          53.083   3.384   5.683  0.00  0.00     0.219 C 
ATOM     35  O7  MOL d          53.259   4.431   6.342  0.00  0.00    -0.643 OA
ATOM     36  O8  MOL d          53.631   2.292   5.951  0.00  0.00    -0.643 OA
ENDBRANCH  30  34
BRANCH  31  37
ATOM     37  O20 MOL d          51.125   1.544   4.500  0.00  0.00    -0.338 OA
BRANCH  37  38
ATOM     38  C21 MOL d          49.839   1.345   5.050  0.00  0.00     0.106 C 
ATOM     39  H5  MOL d          49.408   0.403   4.682  0.00  0.00     0.091 H 
ATOM     40  H6  MOL d          49.176   2.180   4.781  0.00  0.00     0.091 H 
BRANCH  38  41
ATOM     41  C22 MOL d          50.025   1.289   6.500  0.00  0.00     0.198 C 
ATOM     42  O25 MOL d          49.041   1.631   7.183  0.00  0.00    -0.646 OA
ATOM     43  O26 MOL d          51.120   0.912   6.977  0.00  0.00    -0.646 OA
ENDBRANCH  38  41
ENDBRANCH  37  38
ENDBRANCH  31  37
ENDBRANCH  20  28
ENDBRANCH  16  18
ENDBRANCH   1  16
BRANCH   4  44
ATOM     44  S46 MOL d          45.216  12.753  -0.338  0.00  0.00     0.232 S 
ATOM     45  O47 MOL d          43.983  12.557  -1.066  0.00  0.00    -0.205 OA
ATOM     46  O48 MOL d          46.161  13.762  -0.781  0.00  0.00    -0.205 OA
BRANCH  44  47
ATOM     47  C49 MOL d          44.793  12.833   1.416  0.00  0.00     0.070 C 
ATOM     48  H17 MOL d          45.342  12.052   1.965  0.00  0.00     0.066 H 
ATOM     49  H18 MOL d          43.712  12.678   1.543  0.00  0.00     0.066 H 
BRANCH  47  50
ATOM     50  C50 MOL d          45.176  14.183   1.944  0.00  0.00    -0.043 A 
ATOM     51  C53 MOL d          46.413  14.255   2.695  0.00  0.00    -0.076 A 
ATOM     52  C54 MOL d          46.858  15.566   3.117  0.00  0.00    -0.082 A 
ATOM     53  H19 MOL d          46.981  13.364   2.932  0.00  0.00     0.084 H 
ATOM     54  C55 MOL d          46.043  16.741   2.815  0.00  0.00    -0.083 A 
ATOM     55  H20 MOL d          47.793  15.676   3.655  0.00  0.00     0.083 H 
ATOM     56  C56 MOL d          44.813  16.653   2.050  0.00  0.00    -0.082 A 
ATOM     57  H21 MOL d          46.369  17.710   3.175  0.00  0.00     0.083 H 
ATOM     58  C57 MOL d          44.353  15.348   1.605  0.00  0.00    -0.076 A 
ATOM     59  H22 MOL d          44.247  17.546   1.814  0.00  0.00     0.083 H 
ATOM     60  H23 MOL d          43.433  15.240   1.043  0.00  0.00     0.084 H 
ENDBRANCH  47  50
ENDBRANCH  44  47
ENDBRANCH   4  44
TORSDOF 10
ENDMDL
MODEL 8
REMARK VINA RESULT:      -5.7      2.119      3.123
REMARK  10 active torsions:
REMARK  status: ('A' for Active; 'I' for Inactive)
REMARK    1  A    between atoms: C2_2  and  C6_6 
REMARK    2  A    between atoms: C3_3  and  O20_16 
REMARK    3  A    between atoms: C5_5  and  C9_9 
REMARK    4  A    between atoms: C11_11  and  N29_21 
REMARK    5  A    between atoms: O20_16  and  C21_17 
REMARK    6  A    between atoms: C21_17  and  C22_18 
REMARK    7  A    between atoms: N29_21  and  C30_22 
REMARK    8  A    between atoms: N33_25  and  S46_28 
REMARK    9  A    between atoms: S46_28  and  C49_31 
REMARK   10  A    between atoms: C49_31  and  C50_32 
ROOT
ATOM      1  C30 MOL d          49.159   7.764   3.712  0.00  0.00     0.012 C 
ATOM      2  C31 MOL d          48.737   6.439   3.077  0.00  0.00    -0.031 C 
ATOM      3  C32 MOL d          49.860   5.432   2.988  0.00  0.00     0.007 C 
ATOM      4  N33 MOL d          51.007   6.113   2.384  0.00  0.00    -0.310 N 
ATOM      5  C34 MOL d          51.540   7.353   2.954  0.00  0.00     0.007 C 
ATOM      6  C35 MOL d          50.410   8.345   3.057  0.00  0.00    -0.031 C 
ATOM      7  H8  MOL d          49.371   7.596   4.778  0.00  0.00     0.072 H 
ATOM      8  H9  MOL d          48.367   6.641   2.061  0.00  0.00     0.038 H 
ATOM      9  H10 MOL d          47.926   6.005   3.682  0.00  0.00     0.038 H 
ATOM     10  H11 MOL d          49.555   4.582   2.360  0.00  0.00     0.065 H 
ATOM     11  H12 MOL d          50.123   5.071   3.992  0.00  0.00     0.065 H 
ATOM     12  H13 MOL d          52.329   7.754   2.301  0.00  0.00     0.065 H 
ATOM     13  H14 MOL d          51.956   7.156   3.953  0.00  0.00     0.065 H 
ATOM     14  H15 MOL d          50.752   9.203   3.654  0.00  0.00     0.038 H 
ATOM     15  H16 MOL d          50.149   8.684   2.044  0.00  0.00     0.038 H 
ENDROOT
BRANCH   1  16
ATOM     16  N29 MOL d          48.067   8.680   3.586  0.00  0.00    -0.385 N 
ATOM     17  H7  MOL d          47.486   8.873   4.414  0.00  0.00     0.160 HD
BRANCH  16  18
ATOM     18  C11 MOL d          47.766   9.307   2.417  0.00  0.00     0.029 A 
ATOM     19  C10 MOL d          47.250  10.631   2.588  0.00  0.00    -0.046 A 
ATOM     20  C9  MOL d          46.881  11.396   1.408  0.00  0.00    -0.015 A 
ATOM     21  H1  MOL d          47.136  11.055   3.579  0.00  0.00     0.088 H 
ATOM     22  C14 MOL d          47.080  10.840   0.075  0.00  0.00    -0.072 A 
ATOM     23  C13 MOL d          47.582   9.508  -0.110  0.00  0.00    -0.080 A 
ATOM     24  H4  MOL d          46.843  11.443  -0.793  0.00  0.00     0.084 H 
ATOM     25  C12 MOL d          47.933   8.749   1.077  0.00  0.00    -0.058 A 
ATOM     26  H3  MOL d          47.696   9.084  -1.101  0.00  0.00     0.083 H 
ATOM     27  H2  MOL d          48.328   7.745   0.967  0.00  0.00     0.086 H 
BRANCH  20  28
ATOM     28  C5  MOL d          46.274  12.739   1.503  0.00  0.00     0.036 A 
ATOM     29  S1  MOL d          45.011  13.240   0.316  0.00  0.00    -0.078 SA
ATOM     30  C2  MOL d          44.793  14.832   1.102  0.00  0.00     0.117 A 
ATOM     31  C3  MOL d          45.601  14.941   2.142  0.00  0.00     0.112 A 
ATOM     32  C4  MOL d          46.408  13.737   2.391  0.00  0.00     0.064 A 
ATOM     33 BR19 MOL d          47.408  13.678   3.961  0.00  0.00    -0.047 Br
BRANCH  30  34
ATOM     34  C6  MOL d          43.928  15.819   0.493  0.00  0.00     0.219 C 
ATOM     35  O7  MOL d          43.791  15.628  -0.734  0.00  0.00    -0.643 OA
ATOM     36  O8  MOL d          43.387  16.760   1.116  0.00  0.00    -0.643 OA
ENDBRANCH  30  34
BRANCH  31  37
ATOM     37  O20 MOL d          45.584  16.023   2.907  0.00  0.00    -0.338 OA
BRANCH  37  38
ATOM     38  C21 MOL d          45.428  15.797   4.293  0.00  0.00     0.106 C 
ATOM     39  H5  MOL d          46.156  15.050   4.642  0.00  0.00     0.091 H 
ATOM     40  H6  MOL d          44.409  15.445   4.511  0.00  0.00     0.091 H 
BRANCH  38  41
ATOM     41  C22 MOL d          45.670  17.086   4.942  0.00  0.00     0.198 C 
ATOM     42  O25 MOL d          46.780  17.213   5.491  0.00  0.00    -0.646 OA
ATOM     43  O26 MOL d          44.787  17.973   4.919  0.00  0.00    -0.646 OA
ENDBRANCH  38  41
ENDBRANCH  37  38
ENDBRANCH  31  37
ENDBRANCH  20  28
ENDBRANCH  16  18
ENDBRANCH   1  16
BRANCH   4  44
ATOM     44  S46 MOL d          52.110   5.208   1.445  0.00  0.00     0.232 S 
ATOM     45  O47 MOL d          52.527   6.089   0.379  0.00  0.00    -0.205 OA
ATOM     46  O48 MOL d          51.438   3.961   1.129  0.00  0.00    -0.205 OA
BRANCH  44  47
ATOM     47  C49 MOL d          53.505   5.048   2.581  0.00  0.00     0.070 C 
ATOM     48  H17 MOL d          53.768   6.036   2.986  0.00  0.00     0.066 H 
ATOM     49  H18 MOL d          54.370   4.628   2.048  0.00  0.00     0.066 H 
BRANCH  47  50
ATOM     50  C50 MOL d          53.111   4.133   3.702  0.00  0.00    -0.043 A 
ATOM     51  C53 MOL d          53.132   4.701   5.036  0.00  0.00    -0.076 A 
ATOM     52  C54 MOL d          52.649   3.871   6.118  0.00  0.00    -0.082 A 
ATOM     53  H19 MOL d          53.496   5.705   5.215  0.00  0.00     0.084 H 
ATOM     54  C55 MOL d          52.206   2.505   5.844  0.00  0.00    -0.083 A 
ATOM     55  H20 MOL d          52.616   4.260   7.130  0.00  0.00     0.083 H 
ATOM     56  C56 MOL d          52.178   1.957   4.500  0.00  0.00    -0.082 A 
ATOM     57  H21 MOL d          51.887   1.882   6.671  0.00  0.00     0.083 H 
ATOM     58  C57 MOL d          52.647   2.776   3.396  0.00  0.00    -0.076 A 
ATOM     59  H22 MOL d          51.813   0.952   4.324  0.00  0.00     0.083 H 
ATOM     60  H23 MOL d          52.655   2.398   2.381  0.00  0.00     0.084 H 
ENDBRANCH  47  50
ENDBRANCH  44  47
ENDBRANCH   4  44
TORSDOF 10
ENDMDL
MODEL 9
REMARK VINA RESULT:      -5.5      3.687      5.930
REMARK  10 active torsions:
REMARK  status: ('A' for Active; 'I' for Inactive)
REMARK    1  A    between atoms: C2_2  and  C6_6 
REMARK    2  A    between atoms: C3_3  and  O20_16 
REMARK    3  A    between atoms: C5_5  and  C9_9 
REMARK    4  A    between atoms: C11_11  and  N29_21 
REMARK    5  A    between atoms: O20_16  and  C21_17 
REMARK    6  A    between atoms: C21_17  and  C22_18 
REMARK    7  A    between atoms: N29_21  and  C30_22 
REMARK    8  A    between atoms: N33_25  and  S46_28 
REMARK    9  A    between atoms: S46_28  and  C49_31 
REMARK   10  A    between atoms: C49_31  and  C50_32 
ROOT
ATOM      1  C30 MOL d          52.307   5.945   4.848  0.00  0.00     0.012 C 
ATOM      2  C31 MOL d          50.859   5.500   5.058  0.00  0.00    -0.031 C 
ATOM      3  C32 MOL d          50.701   4.470   6.152  0.00  0.00     0.007 C 
ATOM      4  N33 MOL d          51.682   3.413   5.898  0.00  0.00    -0.310 N 
ATOM      5  C34 MOL d          53.108   3.719   5.751  0.00  0.00     0.007 C 
ATOM      6  C35 MOL d          53.255   4.761   4.673  0.00  0.00    -0.031 C 
ATOM      7  H8  MOL d          52.632   6.523   5.725  0.00  0.00     0.072 H 
ATOM      8  H9  MOL d          50.486   5.071   4.117  0.00  0.00     0.038 H 
ATOM      9  H10 MOL d          50.257   6.383   5.321  0.00  0.00     0.038 H 
ATOM     10  H11 MOL d          49.685   4.051   6.131  0.00  0.00     0.065 H 
ATOM     11  H12 MOL d          50.889   4.930   7.132  0.00  0.00     0.065 H 
ATOM     12  H13 MOL d          53.657   2.809   5.468  0.00  0.00     0.065 H 
ATOM     13  H14 MOL d          53.505   4.107   6.701  0.00  0.00     0.065 H 
ATOM     14  H15 MOL d          54.289   5.134   4.687  0.00  0.00     0.038 H 
ATOM     15  H16 MOL d          53.049   4.289   3.701  0.00  0.00     0.038 H 
ENDROOT
BRANCH   1  16
ATOM     16  N29 MOL d          52.346   6.783   3.688  0.00  0.00    -0.385 N 
ATOM     17  H7  MOL d          52.895   7.654   3.726  0.00  0.00     0.160 HD
BRANCH  16  18
ATOM     18  C11 MOL d          51.689   6.476   2.539  0.00  0.00     0.029 A 
ATOM     19  C10 MOL d          50.715   7.452   2.152  0.00  0.00    -0.046 A 
ATOM     20  C9  MOL d          49.939   7.226   0.943  0.00  0.00    -0.015 A 
ATOM     21  H1  MOL d          50.558   8.342   2.750  0.00  0.00     0.088 H 
ATOM     22  C14 MOL d          50.186   6.050   0.116  0.00  0.00    -0.072 A 
ATOM     23  C13 MOL d          51.149   5.058   0.499  0.00  0.00    -0.080 A 
ATOM     24  H4  MOL d          49.631   5.923  -0.806  0.00  0.00     0.084 H 
ATOM     25  C12 MOL d          51.907   5.288   1.717  0.00  0.00    -0.058 A 
ATOM     26  H3  MOL d          51.305   4.167  -0.099  0.00  0.00     0.083 H 
ATOM     27  H2  MOL d          52.651   4.560   2.023  0.00  0.00     0.086 H 
BRANCH  20  28
ATOM     28  C5  MOL d          48.866   8.147   0.517  0.00  0.00     0.036 A 
ATOM     29  S1  MOL d          47.142   7.733   0.852  0.00  0.00    -0.078 SA
ATOM     30  C2  MOL d          46.554   9.258   0.126  0.00  0.00     0.117 A 
ATOM     31  C3  MOL d          47.573   9.976  -0.313  0.00  0.00     0.112 A 
ATOM     32  C4  MOL d          48.884   9.363  -0.051  0.00  0.00     0.064 A 
ATOM     33 BR19 MOL d          50.400  10.383  -0.407  0.00  0.00    -0.047 Br
BRANCH  30  34
ATOM     34  C6  MOL d          45.132   9.478  -0.026  0.00  0.00     0.219 C 
ATOM     35  O7  MOL d          44.596   8.599  -0.735  0.00  0.00    -0.643 OA
ATOM     36  O8  MOL d          44.510  10.437   0.482  0.00  0.00    -0.643 OA
ENDBRANCH  30  34
BRANCH  31  37
ATOM     37  O20 MOL d          47.381  11.171  -0.853  0.00  0.00    -0.338 OA
BRANCH  37  38
ATOM     38  C21 MOL d          47.941  12.263  -0.153  0.00  0.00     0.106 C 
ATOM     39  H5  MOL d          48.043  13.132  -0.819  0.00  0.00     0.091 H 
ATOM     40  H6  MOL d          48.929  11.992   0.249  0.00  0.00     0.091 H 
BRANCH  38  41
ATOM     41  C22 MOL d          47.013  12.563   0.937  0.00  0.00     0.198 C 
ATOM     42  O25 MOL d          46.001  13.213   0.619  0.00  0.00    -0.646 OA
ATOM     43  O26 MOL d          47.263  12.167   2.099  0.00  0.00    -0.646 OA
ENDBRANCH  38  41
ENDBRANCH  37  38
ENDBRANCH  31  37
ENDBRANCH  20  28
ENDBRANCH  16  18
ENDBRANCH   1  16
BRANCH   4  44
ATOM     44  S46 MOL d          51.325   1.815   6.383  0.00  0.00     0.232 S 
ATOM     45  O47 MOL d          50.022   1.879   7.005  0.00  0.00    -0.205 OA
ATOM     46  O48 MOL d          52.470   1.363   7.151  0.00  0.00    -0.205 OA
BRANCH  44  47
ATOM     47  C49 MOL d          51.114   0.993   4.788  0.00  0.00     0.070 C 
ATOM     48  H17 MOL d          51.075  -0.097   4.935  0.00  0.00     0.066 H 
ATOM     49  H18 MOL d          51.957   1.244   4.128  0.00  0.00     0.066 H 
BRANCH  47  50
ATOM     50  C50 MOL d          49.832   1.464   4.169  0.00  0.00    -0.043 A 
ATOM     51  C53 MOL d          49.941   2.524   3.186  0.00  0.00    -0.076 A 
ATOM     52  C54 MOL d          48.732   2.916   2.495  0.00  0.00    -0.082 A 
ATOM     53  H19 MOL d          50.890   3.004   2.978  0.00  0.00     0.084 H 
ATOM     54  C55 MOL d          47.463   2.275   2.833  0.00  0.00    -0.083 A 
ATOM     55  H20 MOL d          48.767   3.683   1.729  0.00  0.00     0.083 H 
ATOM     56  C56 MOL d          47.373   1.205   3.810  0.00  0.00    -0.082 A 
ATOM     57  H21 MOL d          46.559   2.609   2.337  0.00  0.00     0.083 H 
ATOM     58  C57 MOL d          48.577   0.786   4.508  0.00  0.00    -0.076 A 
ATOM     59  H22 MOL d          46.422   0.726   4.015  0.00  0.00     0.083 H 
ATOM     60  H23 MOL d          48.548   0.001   5.253  0.00  0.00     0.084 H 
ENDBRANCH  47  50
ENDBRANCH  44  47
ENDBRANCH   4  44
TORSDOF 10
ENDMDL
MODEL 10
REMARK VINA RESULT:      -5.1      3.375      5.392
REMARK  10 active torsions:
REMARK  status: ('A' for Active; 'I' for Inactive)
REMARK    1  A    between atoms: C2_2  and  C6_6 
REMARK    2  A    between atoms: C3_3  and  O20_16 
REMARK    3  A    between atoms: C5_5  and  C9_9 
REMARK    4  A    between atoms: C11_11  and  N29_21 
REMARK    5  A    between atoms: O20_16  and  C21_17 
REMARK    6  A    between atoms: C21_17  and  C22_18 
REMARK    7  A    between atoms: N29_21  and  C30_22 
REMARK    8  A    between atoms: N33_25  and  S46_28 
REMARK    9  A    between atoms: S46_28  and  C49_31 
REMARK   10  A    between atoms: C49_31  and  C50_32 
ROOT
ATOM      1  C30 MOL d          52.437   5.360   4.204  0.00  0.00     0.012 C 
ATOM      2  C31 MOL d          50.992   5.231   4.688  0.00  0.00    -0.031 C 
ATOM      3  C32 MOL d          50.791   4.113   5.684  0.00  0.00     0.007 C 
ATOM      4  N33 MOL d          51.403   2.910   5.116  0.00  0.00    -0.310 N 
ATOM      5  C34 MOL d          52.803   2.901   4.685  0.00  0.00     0.007 C 
ATOM      6  C35 MOL d          52.999   4.030   3.707  0.00  0.00    -0.031 C 
ATOM      7  H8  MOL d          53.061   5.712   5.038  0.00  0.00     0.072 H 
ATOM      8  H9  MOL d          50.348   5.043   3.817  0.00  0.00     0.038 H 
ATOM      9  H10 MOL d          50.698   6.179   5.163  0.00  0.00     0.038 H 
ATOM     10  H11 MOL d          49.717   3.946   5.851  0.00  0.00     0.065 H 
ATOM     11  H12 MOL d          51.275   4.367   6.638  0.00  0.00     0.065 H 
ATOM     12  H13 MOL d          53.037   1.942   4.199  0.00  0.00     0.065 H 
ATOM     13  H14 MOL d          53.461   3.042   5.554  0.00  0.00     0.065 H 
ATOM     14  H15 MOL d          54.077   4.152   3.526  0.00  0.00     0.038 H 
ATOM     15  H16 MOL d          52.496   3.768   2.765  0.00  0.00     0.038 H 
ENDROOT
BRANCH   1  16
ATOM     16  N29 MOL d          52.464   6.330   3.152  0.00  0.00    -0.385 N 
ATOM     17  H7  MOL d          53.176   7.073   3.183  0.00  0.00     0.160 HD
BRANCH  16  18
ATOM     18  C11 MOL d          51.587   6.311   2.113  0.00  0.00     0.029 A 
ATOM     19  C10 MOL d          50.687   7.424   2.096  0.00  0.00    -0.046 A 
ATOM     20  C9  MOL d          49.694   7.505   1.036  0.00  0.00    -0.015 A 
ATOM     21  H1  MOL d          50.744   8.191   2.859  0.00  0.00     0.088 H 
ATOM     22  C14 MOL d          49.651   6.495  -0.015  0.00  0.00    -0.072 A 
ATOM     23  C13 MOL d          50.538   5.367  -0.002  0.00  0.00    -0.080 A 
ATOM     24  H4  MOL d          48.935   6.598  -0.822  0.00  0.00     0.084 H 
ATOM     25  C12 MOL d          51.515   5.289   1.070  0.00  0.00    -0.058 A 
ATOM     26  H3  MOL d          50.480   4.599  -0.765  0.00  0.00     0.083 H 
ATOM     27  H2  MOL d          52.207   4.455   1.097  0.00  0.00     0.086 H 
BRANCH  20  28
ATOM     28  C5  MOL d          48.684   8.582   0.990  0.00  0.00     0.036 A 
ATOM     29  S1  MOL d          47.941   9.049  -0.586  0.00  0.00    -0.078 SA
ATOM     30  C2  MOL d          46.887  10.271   0.185  0.00  0.00     0.117 A 
ATOM     31  C3  MOL d          47.100  10.299   1.490  0.00  0.00     0.112 A 
ATOM     32  C4  MOL d          48.088   9.310   1.947  0.00  0.00     0.064 A 
ATOM     33 BR19 MOL d          48.300   9.089   3.784  0.00  0.00    -0.047 Br
BRANCH  30  34
ATOM     34  C6  MOL d          46.072  11.138  -0.639  0.00  0.00     0.219 C 
ATOM     35  O7  MOL d          46.660  12.205  -0.919  0.00  0.00    -0.643 OA
ATOM     36  O8  MOL d          44.913  10.860  -1.020  0.00  0.00    -0.643 OA
ENDBRANCH  30  34
BRANCH  31  37
ATOM     37  O20 MOL d          46.398  11.101   2.277  0.00  0.00    -0.338 OA
BRANCH  37  38
ATOM     38  C21 MOL d          47.101  12.197   2.826  0.00  0.00     0.106 C 
ATOM     39  H5  MOL d          48.109  12.260   2.391  0.00  0.00     0.091 H 
ATOM     40  H6  MOL d          47.179  12.091   3.918  0.00  0.00     0.091 H 
BRANCH  38  41
ATOM     41  C22 MOL d          46.323  13.388   2.485  0.00  0.00     0.198 C 
ATOM     42  O25 MOL d          45.239  13.177   1.908  0.00  0.00    -0.646 OA
ATOM     43  O26 MOL d          46.759  14.525   2.775  0.00  0.00    -0.646 OA
ENDBRANCH  38  41
ENDBRANCH  37  38
ENDBRANCH  31  37
ENDBRANCH  20  28
ENDBRANCH  16  18
ENDBRANCH   1  16
BRANCH   4  44
ATOM     44  S46 MOL d          50.750   1.382   5.511  0.00  0.00     0.232 S 
ATOM     45  O47 MOL d          51.206   1.099   6.852  0.00  0.00    -0.205 OA
ATOM     46  O48 MOL d          51.118   0.495   4.422  0.00  0.00    -0.205 OA
BRANCH  44  47
ATOM     47  C49 MOL d          48.986   1.759   5.615  0.00  0.00     0.070 C 
ATOM     48  H17 MOL d          48.849   2.798   5.950  0.00  0.00     0.066 H 
ATOM     49  H18 MOL d          48.504   1.076   6.331  0.00  0.00     0.066 H 
BRANCH  47  50
ATOM     50  C50 MOL d          48.374   1.581   4.259  0.00  0.00    -0.043 A 
ATOM     51  C53 MOL d          47.761   0.295   3.991  0.00  0.00    -0.076 A 
ATOM     52  C54 MOL d          47.067   0.139   2.731  0.00  0.00    -0.082 A 
ATOM     53  H19 MOL d          47.821  -0.518   4.706  0.00  0.00     0.084 H 
ATOM     54  C55 MOL d          47.043   1.244   1.774  0.00  0.00    -0.083 A 
ATOM     55  H20 MOL d          46.566  -0.793   2.497  0.00  0.00     0.083 H 
ATOM     56  C56 MOL d          47.651   2.530   2.063  0.00  0.00    -0.082 A 
ATOM     57  H21 MOL d          46.556   1.098   0.818  0.00  0.00     0.083 H 
ATOM     58  C57 MOL d          48.343   2.713   3.328  0.00  0.00    -0.076 A 
ATOM     59  H22 MOL d          47.589   3.341   1.347  0.00  0.00     0.083 H 
ATOM     60  H23 MOL d          48.820   3.654   3.574  0.00  0.00     0.084 H 
ENDBRANCH  47  50
ENDBRANCH  44  47
ENDBRANCH   4  44
TORSDOF 10
ENDMDL
