MODEL 1
REMARK VINA RESULT:      -8.4      0.000      0.000
REMARK  3 active torsions:
REMARK  status: ('A' for Active; 'I' for Inactive)
REMARK    1  A    between atoms: C13_2  and  C15_3 
REMARK       I    between atoms: C13_2  and  N12_12 
REMARK    2  A    between atoms: N12_12  and  C8_13 
REMARK    3  A    between atoms: C6_18  and  C2_19 
ROOT
ATOM      1  O14 MOL d          -8.840  55.243  13.381  0.00  0.00    -0.267 OA
ATOM      2  C13 MOL d          -8.893  55.397  12.150  0.00  0.00     0.256 C 
ATOM      3  N12 MOL d          -8.212  54.596  11.320  0.00  0.00    -0.323 N 
ATOM      4  H6  MOL d          -8.297  54.763  10.337  0.00  0.00     0.169 HD
ENDROOT
BRANCH   3   5
ATOM      5  C8  MOL d          -7.389  53.541  11.733  0.00  0.00     0.035 A 
ATOM      6  C7  MOL d          -6.037  53.813  11.915  0.00  0.00    -0.043 A 
ATOM      7  C6  MOL d          -5.196  52.787  12.354  0.00  0.00     0.014 A 
ATOM      8  H7  MOL d          -5.644  54.804  11.721  0.00  0.00     0.088 H 
ATOM      9  C11 MOL d          -5.654  51.508  12.618  0.00  0.00    -0.069 A 
ATOM     10  C10 MOL d          -7.007  51.258  12.399  0.00  0.00    -0.080 A 
ATOM     11  H10 MOL d          -4.988  50.734  12.981  0.00  0.00     0.085 H 
ATOM     12  C9  MOL d          -7.879  52.238  11.931  0.00  0.00    -0.057 A 
ATOM     13  H9  MOL d          -7.395  50.266  12.600  0.00  0.00     0.083 H 
ATOM     14  H8  MOL d          -8.917  52.002  11.724  0.00  0.00     0.086 H 
BRANCH   7  15
ATOM     15  C2  MOL d          -3.772  53.075  12.569  0.00  0.00     0.168 A 
ATOM     16  N3  MOL d          -2.811  52.973  11.635  0.00  0.00    -0.268 N 
ATOM     17  N4  MOL d          -1.622  53.271  12.267  0.00  0.00    -0.005 NA
ATOM     18  H11 MOL d          -2.937  52.721  10.644  0.00  0.00     0.185 HD
ATOM     19  N5  MOL d          -1.887  53.544  13.569  0.00  0.00     0.018 NA
ATOM     20  N1  MOL d          -3.222  53.440  13.741  0.00  0.00    -0.142 NA
ENDBRANCH   7  15
ENDBRANCH   3   5
BRANCH   2  21
ATOM     21  C15 MOL d          -9.698  56.522  11.573  0.00  0.00     0.033 A 
ATOM     22  C20 MOL d         -10.848  56.918  12.267  0.00  0.00    -0.054 A 
ATOM     23  C19 MOL d         -11.570  58.003  11.801  0.00  0.00     0.012 A 
ATOM     24  H1  MOL d         -11.168  56.383  13.154  0.00  0.00     0.086 H 
ATOM     25  C23 MOL d         -12.779  58.602  12.302  0.00  0.00     0.008 A 
ATOM     26  C18 MOL d         -11.160  58.675  10.659  0.00  0.00     0.088 A 
ATOM     27  N22 MOL d         -13.046  59.621  11.457  0.00  0.00    -0.288 N 
ATOM     28  H2  MOL d         -13.355  58.298  13.175  0.00  0.00     0.115 H 
ATOM     29  N21 MOL d         -12.069  59.667  10.460  0.00  0.00    -0.175 NA
ATOM     30  H3  MOL d         -13.846  60.265  11.536  0.00  0.00     0.188 HD
ATOM     31  C17 MOL d         -10.021  58.299   9.957  0.00  0.00    -0.052 A 
ATOM     32  C16 MOL d          -9.270  57.229  10.426  0.00  0.00    -0.065 A 
ATOM     33  H4  MOL d          -9.724  58.829   9.059  0.00  0.00     0.087 H 
ATOM     34  H5  MOL d          -8.360  56.938   9.916  0.00  0.00     0.085 H 
ENDBRANCH   2  21
TORSDOF 3
ENDMDL
MODEL 2
REMARK VINA RESULT:      -7.7      1.271      1.580
REMARK  3 active torsions:
REMARK  status: ('A' for Active; 'I' for Inactive)
REMARK    1  A    between atoms: C13_2  and  C15_3 
REMARK       I    between atoms: C13_2  and  N12_12 
REMARK    2  A    between atoms: N12_12  and  C8_13 
REMARK    3  A    between atoms: C6_18  and  C2_19 
ROOT
ATOM      1  O14 MOL d          -9.060  55.639  13.827  0.00  0.00    -0.267 OA
ATOM      2  C13 MOL d          -9.067  55.372  12.615  0.00  0.00     0.256 C 
ATOM      3  N12 MOL d          -8.204  54.490  12.093  0.00  0.00    -0.323 N 
ATOM      4  H6  MOL d          -8.258  54.310  11.111  0.00  0.00     0.169 HD
ENDROOT
BRANCH   3   5
ATOM      5  C8  MOL d          -7.230  53.803  12.829  0.00  0.00     0.035 A 
ATOM      6  C7  MOL d          -5.940  53.764  12.308  0.00  0.00    -0.043 A 
ATOM      7  C6  MOL d          -4.941  53.109  13.033  0.00  0.00     0.014 A 
ATOM      8  H7  MOL d          -5.715  54.233  11.358  0.00  0.00     0.088 H 
ATOM      9  C11 MOL d          -5.181  52.499  14.252  0.00  0.00    -0.069 A 
ATOM     10  C10 MOL d          -6.488  52.531  14.734  0.00  0.00    -0.080 A 
ATOM     11  H10 MOL d          -4.385  52.018  14.809  0.00  0.00     0.085 H 
ATOM     12  C9  MOL d          -7.526  53.141  14.033  0.00  0.00    -0.057 A 
ATOM     13  H9  MOL d          -6.706  52.063  15.687  0.00  0.00     0.083 H 
ATOM     14  H8  MOL d          -8.542  53.108  14.409  0.00  0.00     0.086 H 
BRANCH   7  15
ATOM     15  C2  MOL d          -3.573  53.084  12.500  0.00  0.00     0.168 A 
ATOM     16  N3  MOL d          -2.467  53.419  13.185  0.00  0.00    -0.268 N 
ATOM     17  N4  MOL d          -1.414  53.314  12.300  0.00  0.00    -0.005 NA
ATOM     18  H11 MOL d          -2.415  53.699  14.175  0.00  0.00     0.185 HD
ATOM     19  N5  MOL d          -1.905  52.923  11.098  0.00  0.00     0.018 NA
ATOM     20  N1  MOL d          -3.238  52.763  11.237  0.00  0.00    -0.142 NA
ENDBRANCH   7  15
ENDBRANCH   3   5
BRANCH   2  21
ATOM     21  C15 MOL d         -10.026  56.074  11.701  0.00  0.00     0.033 A 
ATOM     22  C20 MOL d         -10.407  57.378  12.041  0.00  0.00    -0.054 A 
ATOM     23  C19 MOL d         -11.231  58.081  11.178  0.00  0.00     0.012 A 
ATOM     24  H1  MOL d         -10.062  57.830  12.964  0.00  0.00     0.086 H 
ATOM     25  C23 MOL d         -11.779  59.406  11.288  0.00  0.00     0.008 A 
ATOM     26  C18 MOL d         -11.674  57.492  10.004  0.00  0.00     0.088 A 
ATOM     27  N22 MOL d         -12.519  59.576  10.172  0.00  0.00    -0.288 N 
ATOM     28  H2  MOL d         -11.630  60.119  12.098  0.00  0.00     0.115 H 
ATOM     29  N21 MOL d         -12.460  58.418   9.393  0.00  0.00    -0.175 NA
ATOM     30  H3  MOL d         -13.047  60.428   9.932  0.00  0.00     0.188 HD
ATOM     31  C17 MOL d         -11.307  56.199   9.648  0.00  0.00    -0.052 A 
ATOM     32  C16 MOL d         -10.459  55.490  10.489  0.00  0.00    -0.065 A 
ATOM     33  H4  MOL d         -11.675  55.752   8.731  0.00  0.00     0.087 H 
ATOM     34  H5  MOL d         -10.131  54.494  10.217  0.00  0.00     0.085 H 
ENDBRANCH   2  21
TORSDOF 3
ENDMDL
MODEL 3
REMARK VINA RESULT:      -7.1      1.611      8.309
REMARK  3 active torsions:
REMARK  status: ('A' for Active; 'I' for Inactive)
REMARK    1  A    between atoms: C13_2  and  C15_3 
REMARK       I    between atoms: C13_2  and  N12_12 
REMARK    2  A    between atoms: N12_12  and  C8_13 
REMARK    3  A    between atoms: C6_18  and  C2_19 
ROOT
ATOM      1  O14 MOL d          -8.811  53.607  13.379  0.00  0.00    -0.267 OA
ATOM      2  C13 MOL d          -8.030  53.570  12.415  0.00  0.00     0.256 C 
ATOM      3  N12 MOL d          -8.410  53.976  11.197  0.00  0.00    -0.323 N 
ATOM      4  H6  MOL d          -7.737  53.929  10.458  0.00  0.00     0.169 HD
ENDROOT
BRANCH   3   5
ATOM      5  C8  MOL d          -9.686  54.463  10.886  0.00  0.00     0.035 A 
ATOM      6  C7  MOL d          -9.919  55.822  11.070  0.00  0.00    -0.043 A 
ATOM      7  C6  MOL d         -11.174  56.342  10.742  0.00  0.00     0.014 A 
ATOM      8  H7  MOL d          -9.140  56.466  11.461  0.00  0.00     0.088 H 
ATOM      9  C11 MOL d         -12.197  55.558  10.237  0.00  0.00    -0.069 A 
ATOM     10  C10 MOL d         -11.944  54.196  10.089  0.00  0.00    -0.080 A 
ATOM     11  H10 MOL d         -13.155  55.987   9.966  0.00  0.00     0.085 H 
ATOM     12  C9  MOL d         -10.720  53.625  10.433  0.00  0.00    -0.057 A 
ATOM     13  H9  MOL d         -12.726  53.559   9.694  0.00  0.00     0.083 H 
ATOM     14  H8  MOL d         -10.569  52.554  10.354  0.00  0.00     0.086 H 
BRANCH   7  15
ATOM     15  C2  MOL d         -11.418  57.779  10.914  0.00  0.00     0.168 A 
ATOM     16  N3  MOL d         -11.055  58.504  11.986  0.00  0.00    -0.268 N 
ATOM     17  N4  MOL d         -11.526  59.782  11.768  0.00  0.00    -0.005 NA
ATOM     18  H11 MOL d         -10.529  58.172  12.807  0.00  0.00     0.185 HD
ATOM     19  N5  MOL d         -12.167  59.803  10.574  0.00  0.00     0.018 NA
ATOM     20  N1  MOL d         -12.077  58.565  10.043  0.00  0.00    -0.142 NA
ENDBRANCH   7  15
ENDBRANCH   3   5
BRANCH   2  21
ATOM     21  C15 MOL d          -6.646  53.023  12.596  0.00  0.00     0.033 A 
ATOM     22  C20 MOL d          -5.597  53.943  12.719  0.00  0.00    -0.054 A 
ATOM     23  C19 MOL d          -4.319  53.471  12.964  0.00  0.00     0.012 A 
ATOM     24  H1  MOL d          -5.784  55.006  12.624  0.00  0.00     0.086 H 
ATOM     25  C23 MOL d          -3.077  54.182  13.114  0.00  0.00     0.008 A 
ATOM     26  C18 MOL d          -4.088  52.108  13.074  0.00  0.00     0.088 A 
ATOM     27  N22 MOL d          -2.146  53.227  13.325  0.00  0.00    -0.288 N 
ATOM     28  H2  MOL d          -2.922  55.259  13.067  0.00  0.00     0.115 H 
ATOM     29  N21 MOL d          -2.754  51.970  13.299  0.00  0.00    -0.175 NA
ATOM     30  H3  MOL d          -1.142  53.399  13.480  0.00  0.00     0.188 HD
ATOM     31  C17 MOL d          -5.115  51.179  12.956  0.00  0.00    -0.052 A 
ATOM     32  C16 MOL d          -6.408  51.636  12.738  0.00  0.00    -0.065 A 
ATOM     33  H4  MOL d          -4.911  50.116  13.032  0.00  0.00     0.087 H 
ATOM     34  H5  MOL d          -7.231  50.934  12.676  0.00  0.00     0.085 H 
ENDBRANCH   2  21
TORSDOF 3
ENDMDL
MODEL 4
REMARK VINA RESULT:      -6.0      1.859      8.475
REMARK  3 active torsions:
REMARK  status: ('A' for Active; 'I' for Inactive)
REMARK    1  A    between atoms: C13_2  and  C15_3 
REMARK       I    between atoms: C13_2  and  N12_12 
REMARK    2  A    between atoms: N12_12  and  C8_13 
REMARK    3  A    between atoms: C6_18  and  C2_19 
ROOT
ATOM      1  O14 MOL d          -6.699  53.879   9.856  0.00  0.00    -0.267 OA
ATOM      2  C13 MOL d          -6.664  53.851  11.096  0.00  0.00     0.256 C 
ATOM      3  N12 MOL d          -7.761  54.087  11.828  0.00  0.00    -0.323 N 
ATOM      4  H6  MOL d          -7.674  54.045  12.824  0.00  0.00     0.169 HD
ENDROOT
BRANCH   3   5
ATOM      5  C8  MOL d          -9.020  54.388  11.295  0.00  0.00     0.035 A 
ATOM      6  C7  MOL d          -9.447  55.710  11.362  0.00  0.00    -0.043 A 
ATOM      7  C6  MOL d         -10.687  56.047  10.813  0.00  0.00     0.014 A 
ATOM      8  H7  MOL d          -8.828  56.467  11.830  0.00  0.00     0.088 H 
ATOM      9  C11 MOL d         -11.510  55.117  10.202  0.00  0.00    -0.069 A 
ATOM     10  C10 MOL d         -11.069  53.795  10.176  0.00  0.00    -0.080 A 
ATOM     11  H10 MOL d         -12.458  55.404   9.762  0.00  0.00     0.085 H 
ATOM     12  C9  MOL d          -9.856  53.404  10.738  0.00  0.00    -0.057 A 
ATOM     13  H9  MOL d         -11.691  53.046   9.702  0.00  0.00     0.083 H 
ATOM     14  H8  MOL d          -9.561  52.361  10.746  0.00  0.00     0.086 H 
BRANCH   7  15
ATOM     15  C2  MOL d         -11.133  57.445  10.861  0.00  0.00     0.168 A 
ATOM     16  N3  MOL d         -10.813  58.393   9.963  0.00  0.00    -0.268 N 
ATOM     17  N4  MOL d         -11.383  59.564  10.414  0.00  0.00    -0.005 NA
ATOM     18  H11 MOL d         -10.252  58.268   9.108  0.00  0.00     0.185 HD
ATOM     19  N5  MOL d         -12.032  59.304  11.576  0.00  0.00     0.018 NA
ATOM     20  N1  MOL d         -11.890  57.986  11.833  0.00  0.00    -0.142 NA
ENDBRANCH   7  15
ENDBRANCH   3   5
BRANCH   2  21
ATOM     21  C15 MOL d          -5.366  53.590  11.800  0.00  0.00     0.033 A 
ATOM     22  C20 MOL d          -4.626  52.470  11.400  0.00  0.00    -0.054 A 
ATOM     23  C19 MOL d          -3.388  52.246  11.977  0.00  0.00     0.012 A 
ATOM     24  H1  MOL d          -5.016  51.792  10.650  0.00  0.00     0.086 H 
ATOM     25  C23 MOL d          -2.443  51.182  11.767  0.00  0.00     0.008 A 
ATOM     26  C18 MOL d          -2.902  53.114  12.943  0.00  0.00     0.088 A 
ATOM     27  N22 MOL d          -1.414  51.453  12.599  0.00  0.00    -0.288 N 
ATOM     28  H2  MOL d          -2.537  50.339  11.084  0.00  0.00     0.115 H 
ATOM     29  N21 MOL d          -1.689  52.621  13.314  0.00  0.00    -0.175 NA
ATOM     30  H3  MOL d          -0.559  50.886  12.692  0.00  0.00     0.188 HD
ATOM     31  C17 MOL d          -3.620  54.231  13.354  0.00  0.00    -0.052 A 
ATOM     32  C16 MOL d          -4.851  54.486  12.765  0.00  0.00    -0.065 A 
ATOM     33  H4  MOL d          -3.227  54.890  14.119  0.00  0.00     0.087 H 
ATOM     34  H5  MOL d          -5.415  55.369  13.043  0.00  0.00     0.085 H 
ENDBRANCH   2  21
TORSDOF 3
ENDMDL
MODEL 5
REMARK VINA RESULT:      -5.6      1.776      2.076
REMARK  3 active torsions:
REMARK  status: ('A' for Active; 'I' for Inactive)
REMARK    1  A    between atoms: C13_2  and  C15_3 
REMARK       I    between atoms: C13_2  and  N12_12 
REMARK    2  A    between atoms: N12_12  and  C8_13 
REMARK    3  A    between atoms: C6_18  and  C2_19 
ROOT
ATOM      1  O14 MOL d          -9.794  54.898  11.988  0.00  0.00    -0.267 OA
ATOM      2  C13 MOL d          -9.969  55.287  10.822  0.00  0.00     0.256 C 
ATOM      3  N12 MOL d          -9.175  54.872   9.825  0.00  0.00    -0.323 N 
ATOM      4  H6  MOL d          -9.366  55.214   8.905  0.00  0.00     0.169 HD
ENDROOT
BRANCH   3   5
ATOM      5  C8  MOL d          -8.097  53.993   9.983  0.00  0.00     0.035 A 
ATOM      6  C7  MOL d          -7.282  54.169  11.096  0.00  0.00    -0.043 A 
ATOM      7  C6  MOL d          -6.214  53.289  11.296  0.00  0.00     0.014 A 
ATOM      8  H7  MOL d          -7.472  54.973  11.797  0.00  0.00     0.088 H 
ATOM      9  C11 MOL d          -5.935  52.246  10.431  0.00  0.00    -0.069 A 
ATOM     10  C10 MOL d          -6.752  52.112   9.309  0.00  0.00    -0.080 A 
ATOM     11  H10 MOL d          -5.116  51.561  10.618  0.00  0.00     0.085 H 
ATOM     12  C9  MOL d          -7.808  52.983   9.049  0.00  0.00    -0.057 A 
ATOM     13  H9  MOL d          -6.558  51.302   8.615  0.00  0.00     0.083 H 
ATOM     14  H8  MOL d          -8.395  52.884   8.144  0.00  0.00     0.086 H 
BRANCH   7  15
ATOM     15  C2  MOL d          -5.364  53.457  12.481  0.00  0.00     0.168 A 
ATOM     16  N3  MOL d          -4.025  53.578  12.464  0.00  0.00    -0.268 N 
ATOM     17  N4  MOL d          -3.625  53.651  13.782  0.00  0.00    -0.005 NA
ATOM     18  H11 MOL d          -3.419  53.610  11.632  0.00  0.00     0.185 HD
ATOM     19  N5  MOL d          -4.727  53.569  14.568  0.00  0.00     0.018 NA
ATOM     20  N1  MOL d          -5.799  53.470  13.754  0.00  0.00    -0.142 NA
ENDBRANCH   7  15
ENDBRANCH   3   5
BRANCH   2  21
ATOM     21  C15 MOL d         -11.058  56.271  10.519  0.00  0.00     0.033 A 
ATOM     22  C20 MOL d         -11.429  57.160  11.536  0.00  0.00    -0.054 A 
ATOM     23  C19 MOL d         -12.378  58.130  11.263  0.00  0.00     0.012 A 
ATOM     24  H1  MOL d         -10.981  57.088  12.520  0.00  0.00     0.086 H 
ATOM     25  C23 MOL d         -12.946  59.142  12.114  0.00  0.00     0.008 A 
ATOM     26  C18 MOL d         -12.953  58.208  10.004  0.00  0.00     0.088 A 
ATOM     27  N22 MOL d         -13.829  59.803  11.336  0.00  0.00    -0.288 N 
ATOM     28  H2  MOL d         -12.713  59.333  13.160  0.00  0.00     0.115 H 
ATOM     29  N21 MOL d         -13.838  59.239  10.058  0.00  0.00    -0.175 NA
ATOM     30  H3  MOL d         -14.407  60.600  11.638  0.00  0.00     0.188 HD
ATOM     31  C17 MOL d         -12.598  57.336   8.980  0.00  0.00    -0.052 A 
ATOM     32  C16 MOL d         -11.628  56.375   9.229  0.00  0.00    -0.065 A 
ATOM     33  H4  MOL d         -13.069  57.406   8.006  0.00  0.00     0.087 H 
ATOM     34  H5  MOL d         -11.309  55.706   8.438  0.00  0.00     0.085 H 
ENDBRANCH   2  21
TORSDOF 3
ENDMDL
MODEL 6
REMARK VINA RESULT:      -5.5      3.144      3.724
REMARK  3 active torsions:
REMARK  status: ('A' for Active; 'I' for Inactive)
REMARK    1  A    between atoms: C13_2  and  C15_3 
REMARK       I    between atoms: C13_2  and  N12_12 
REMARK    2  A    between atoms: N12_12  and  C8_13 
REMARK    3  A    between atoms: C6_18  and  C2_19 
ROOT
ATOM      1  O14 MOL d          -8.588  51.201  10.905  0.00  0.00    -0.267 OA
ATOM      2  C13 MOL d          -9.137  52.291  11.131  0.00  0.00     0.256 C 
ATOM      3  N12 MOL d          -8.593  53.182  11.970  0.00  0.00    -0.323 N 
ATOM      4  H6  MOL d          -9.076  54.047  12.110  0.00  0.00     0.169 HD
ENDROOT
BRANCH   3   5
ATOM      5  C8  MOL d          -7.393  52.987  12.666  0.00  0.00     0.035 A 
ATOM      6  C7  MOL d          -6.215  52.982  11.927  0.00  0.00    -0.043 A 
ATOM      7  C6  MOL d          -4.999  52.818  12.597  0.00  0.00     0.014 A 
ATOM      8  H7  MOL d          -6.239  53.105  10.851  0.00  0.00     0.088 H 
ATOM      9  C11 MOL d          -4.920  52.661  13.970  0.00  0.00    -0.069 A 
ATOM     10  C10 MOL d          -6.119  52.641  14.680  0.00  0.00    -0.080 A 
ATOM     11  H10 MOL d          -3.964  52.558  14.472  0.00  0.00     0.085 H 
ATOM     12  C9  MOL d          -7.357  52.768  14.054  0.00  0.00    -0.057 A 
ATOM     13  H9  MOL d          -6.087  52.522  15.757  0.00  0.00     0.083 H 
ATOM     14  H8  MOL d          -8.275  52.700  14.627  0.00  0.00     0.086 H 
BRANCH   7  15
ATOM     15  C2  MOL d          -3.751  52.834  11.825  0.00  0.00     0.168 A 
ATOM     16  N3  MOL d          -3.384  51.906  10.925  0.00  0.00    -0.268 N 
ATOM     17  N4  MOL d          -2.128  52.267  10.484  0.00  0.00    -0.005 NA
ATOM     18  H11 MOL d          -3.932  51.087  10.624  0.00  0.00     0.185 HD
ATOM     19  N5  MOL d          -1.759  53.402  11.128  0.00  0.00     0.018 NA
ATOM     20  N1  MOL d          -2.778  53.756  11.940  0.00  0.00    -0.142 NA
ENDBRANCH   7  15
ENDBRANCH   3   5
BRANCH   2  21
ATOM     21  C15 MOL d         -10.454  52.611  10.490  0.00  0.00     0.033 A 
ATOM     22  C20 MOL d         -10.791  53.962  10.342  0.00  0.00    -0.054 A 
ATOM     23  C19 MOL d         -11.966  54.290   9.686  0.00  0.00     0.012 A 
ATOM     24  H1  MOL d         -10.143  54.737  10.734  0.00  0.00     0.086 H 
ATOM     25  C23 MOL d         -12.552  55.575   9.415  0.00  0.00     0.008 A 
ATOM     26  C18 MOL d         -12.793  53.291   9.197  0.00  0.00     0.088 A 
ATOM     27  N22 MOL d         -13.701  55.308   8.758  0.00  0.00    -0.288 N 
ATOM     28  H2  MOL d         -12.154  56.553   9.682  0.00  0.00     0.115 H 
ATOM     29  N21 MOL d         -13.851  53.926   8.626  0.00  0.00    -0.175 NA
ATOM     30  H3  MOL d         -14.364  56.015   8.408  0.00  0.00     0.188 HD
ATOM     31  C17 MOL d         -12.476  51.944   9.333  0.00  0.00    -0.052 A 
ATOM     32  C16 MOL d         -11.288  51.598   9.964  0.00  0.00    -0.065 A 
ATOM     33  H4  MOL d         -13.143  51.178   8.954  0.00  0.00     0.087 H 
ATOM     34  H5  MOL d         -11.003  50.557  10.052  0.00  0.00     0.085 H 
ENDBRANCH   2  21
TORSDOF 3
ENDMDL
