REMARK  2 active torsions:
REMARK  status: ('A' for Active; 'I' for Inactive)
REMARK    1  A    between atoms: C3_3  and  O3_20 
REMARK    2  A    between atoms: C5_5  and  O4_21 
ROOT
ATOM      1  C1  M1S d          55.213  75.943  -5.716  0.00  0.00     0.296 C 
ATOM      2  C2  M1S d          55.185  76.841  -4.514  0.00  0.00     0.081 A 
ATOM      3  C3  M1S d          54.308  77.940  -4.525  0.00  0.00     0.085 A 
ATOM      4  C4  M1S d          54.250  78.839  -3.469  0.00  0.00    -0.016 A 
ATOM      5  C5  M1S d          55.111  78.613  -2.392  0.00  0.00     0.090 A 
ATOM      6  C6  M1S d          55.947  77.531  -2.405  0.00  0.00     0.075 A 
ATOM      7  C7  M1S d          56.039  76.613  -3.439  0.00  0.00    -0.008 A 
ATOM      8  C8  M1S d          57.012  75.429  -3.349  0.00  0.00     0.017 C 
ATOM      9  C9  M1S d          58.368  75.665  -3.947  0.00  0.00     0.131 C 
ATOM     10  C10 M1S d          58.898  77.047  -4.204  0.00  0.00    -0.009 C 
ATOM     11  C11 M1S d          60.308  76.984  -4.803  0.00  0.00    -0.059 C 
ATOM     12  C12 M1S d          60.810  78.362  -5.204  0.00  0.00    -0.064 C 
ATOM     13  C13 M1S d          59.957  79.008  -6.295  0.00  0.00    -0.062 C 
ATOM     14  C14 M1S d          60.057  78.225  -7.603  0.00  0.00    -0.050 C 
ATOM     15  C15 M1S d          58.723  77.590  -7.927  0.00  0.00    -0.106 C 
ATOM     16  C16 M1S d          58.618  76.267  -8.028  0.00  0.00    -0.105 C 
ATOM     17  C17 M1S d          57.291  75.627  -8.367  0.00  0.00    -0.030 C 
ATOM     18  C18 M1S d          56.690  74.767  -7.260  0.00  0.00     0.032 C 
ATOM     19  O2  M1S d          54.250  75.611  -6.373  0.00  0.00    -0.259 OA
ATOM     20 CL1  M1S d          56.942  77.272  -0.964  0.00  0.00    -0.081 Cl
ATOM     21  O5  M1S d          59.037  74.652  -4.167  0.00  0.00    -0.298 OA
ATOM     22  O1  M1S d          56.532  75.597  -6.079  0.00  0.00    -0.317 OA
ATOM     23  H1  M1S d          53.566  79.680  -3.479  0.00  0.00     0.092 H 
ATOM     24  H2  M1S d          56.556  74.574  -3.869  0.00  0.00     0.051 H 
ATOM     25  H3  M1S d          57.148  75.181  -2.286  0.00  0.00     0.051 H 
ATOM     26  H4  M1S d          58.933  77.602  -3.255  0.00  0.00     0.044 H 
ATOM     27  H5  M1S d          58.230  77.565  -4.907  0.00  0.00     0.044 H 
ATOM     28  H6  M1S d          60.289  76.338  -5.694  0.00  0.00     0.033 H 
ATOM     29  H7  M1S d          60.994  76.558  -4.056  0.00  0.00     0.033 H 
ATOM     30  H8  M1S d          61.841  78.266  -5.575  0.00  0.00     0.033 H 
ATOM     31  H9  M1S d          60.798  79.013  -4.317  0.00  0.00     0.033 H 
ATOM     32  H10 M1S d          60.308  80.037  -6.464  0.00  0.00     0.033 H 
ATOM     33  H11 M1S d          58.907  79.028  -5.967  0.00  0.00     0.033 H 
ATOM     34  H12 M1S d          60.819  77.439  -7.500  0.00  0.00     0.038 H 
ATOM     35  H13 M1S d          60.343  78.909  -8.416  0.00  0.00     0.038 H 
ATOM     36  H14 M1S d          57.846  78.217  -8.078  0.00  0.00     0.076 H 
ATOM     37  H15 M1S d          59.494  75.641  -7.865  0.00  0.00     0.076 H 
ATOM     38  H16 M1S d          57.435  74.991  -9.253  0.00  0.00     0.042 H 
ATOM     39  H17 M1S d          56.576  76.429  -8.603  0.00  0.00     0.042 H 
ATOM     40  H18 M1S d          57.361  73.925  -7.037  0.00  0.00     0.075 H 
ATOM     41  H19 M1S d          55.710  74.381  -7.578  0.00  0.00     0.075 H 
ENDROOT
BRANCH   3  42
ATOM     42  O3  M1S d          53.444  78.132  -5.589  0.00  0.00    -0.360 OA
ATOM     43  H20 M1S d          53.586  77.453  -6.238  0.00  0.00     0.217 HD
ENDBRANCH   3  42
BRANCH   5  44
ATOM     44  O4  M1S d          55.135  79.494  -1.339  0.00  0.00    -0.359 OA
ATOM     45  H21 M1S d          54.497  80.182  -1.488  0.00  0.00     0.217 HD
ENDBRANCH   5  44
TORSDOF 2
