MODEL 1
REMARK VINA RESULT:      -9.0      0.000      0.000
REMARK  2 active torsions:
REMARK  status: ('A' for Active; 'I' for Inactive)
REMARK    1  A    between atoms: C3_3  and  O3_20 
REMARK    2  A    between atoms: C5_5  and  O4_21 
ROOT
ATOM      1  C1  M1S d          55.450  75.885  -5.749  0.00  0.00     0.296 C 
ATOM      2  C2  M1S d          55.521  76.651  -4.460  0.00  0.00     0.081 A 
ATOM      3  C3  M1S d          54.630  77.722  -4.273  0.00  0.00     0.085 A 
ATOM      4  C4  M1S d          54.657  78.504  -3.126  0.00  0.00    -0.016 A 
ATOM      5  C5  M1S d          55.620  78.189  -2.164  0.00  0.00     0.090 A 
ATOM      6  C6  M1S d          56.468  77.136  -2.369  0.00  0.00     0.075 A 
ATOM      7  C7  M1S d          56.477  76.334  -3.499  0.00  0.00    -0.008 A 
ATOM      8  C8  M1S d          57.472  75.173  -3.626  0.00  0.00     0.017 C 
ATOM      9  C9  M1S d          58.762  75.505  -4.318  0.00  0.00     0.131 C 
ATOM     10  C10 M1S d          59.243  76.920  -4.474  0.00  0.00    -0.009 C 
ATOM     11  C11 M1S d          60.591  76.957  -5.204  0.00  0.00    -0.059 C 
ATOM     12  C12 M1S d          61.031  78.381  -5.500  0.00  0.00    -0.064 C 
ATOM     13  C13 M1S d          60.068  79.116  -6.432  0.00  0.00    -0.062 C 
ATOM     14  C14 M1S d          60.057  78.477  -7.820  0.00  0.00    -0.050 C 
ATOM     15  C15 M1S d          58.709  77.845  -8.086  0.00  0.00    -0.106 C 
ATOM     16  C16 M1S d          58.616  76.538  -8.317  0.00  0.00    -0.105 C 
ATOM     17  C17 M1S d          57.273  75.903  -8.599  0.00  0.00    -0.030 C 
ATOM     18  C18 M1S d          56.793  74.916  -7.539  0.00  0.00     0.032 C 
ATOM     19  O2  M1S d          54.435  75.599  -6.346  0.00  0.00    -0.259 OA
ATOM     20 CL1  M1S d          57.599  76.754  -1.062  0.00  0.00    -0.081 Cl
ATOM     21  O5  M1S d          59.423  74.539  -4.706  0.00  0.00    -0.298 OA
ATOM     22  O1  M1S d          56.734  75.614  -6.267  0.00  0.00    -0.317 OA
ATOM     23  H1  M1S d          53.962  79.324  -2.983  0.00  0.00     0.092 H 
ATOM     24  H2  M1S d          56.983  74.366  -4.190  0.00  0.00     0.051 H 
ATOM     25  H3  M1S d          57.712  74.819  -2.613  0.00  0.00     0.051 H 
ATOM     26  H4  M1S d          59.359  77.373  -3.478  0.00  0.00     0.044 H 
ATOM     27  H5  M1S d          58.504  77.491  -5.053  0.00  0.00     0.044 H 
ATOM     28  H6  M1S d          60.498  76.407  -6.153  0.00  0.00     0.033 H 
ATOM     29  H7  M1S d          61.351  76.473  -4.573  0.00  0.00     0.033 H 
ATOM     30  H8  M1S d          62.024  78.352  -5.973  0.00  0.00     0.033 H 
ATOM     31  H9  M1S d          61.092  78.935  -4.551  0.00  0.00     0.033 H 
ATOM     32  H10 M1S d          60.385  80.166  -6.522  0.00  0.00     0.033 H 
ATOM     33  H11 M1S d          59.054  79.074  -6.009  0.00  0.00     0.033 H 
ATOM     34  H12 M1S d          60.838  77.705  -7.872  0.00  0.00     0.038 H 
ATOM     35  H13 M1S d          60.254  79.250  -8.578  0.00  0.00     0.038 H 
ATOM     36  H14 M1S d          57.811  78.462  -8.087  0.00  0.00     0.076 H 
ATOM     37  H15 M1S d          59.513  75.921  -8.303  0.00  0.00     0.076 H 
ATOM     38  H16 M1S d          57.343  75.367  -9.557  0.00  0.00     0.042 H 
ATOM     39  H17 M1S d          56.526  76.706  -8.681  0.00  0.00     0.042 H 
ATOM     40  H18 M1S d          57.495  74.073  -7.470  0.00  0.00     0.075 H 
ATOM     41  H19 M1S d          55.794  74.540  -7.805  0.00  0.00     0.075 H 
ENDROOT
BRANCH   3  42
ATOM     42  O3  M1S d          53.666  78.002  -5.226  0.00  0.00    -0.360 OA
ATOM     43  H20 M1S d          53.083  77.258  -5.315  0.00  0.00     0.217 HD
ENDBRANCH   3  42
BRANCH   5  44
ATOM     44  O4  M1S d          55.729  78.955  -1.029  0.00  0.00    -0.359 OA
ATOM     45  H21 M1S d          56.580  79.378  -1.015  0.00  0.00     0.217 HD
ENDBRANCH   5  44
TORSDOF 2
ENDMDL
MODEL 2
REMARK VINA RESULT:      -6.9      2.499      5.254
REMARK  2 active torsions:
REMARK  status: ('A' for Active; 'I' for Inactive)
REMARK    1  A    between atoms: C3_3  and  O3_20 
REMARK    2  A    between atoms: C5_5  and  O4_21 
ROOT
ATOM      1  C1  M1S d          55.510  77.109  -5.515  0.00  0.00     0.296 C 
ATOM      2  C2  M1S d          56.176  76.306  -6.594  0.00  0.00     0.081 A 
ATOM      3  C3  M1S d          55.592  75.083  -6.970  0.00  0.00     0.085 A 
ATOM      4  C4  M1S d          56.167  74.264  -7.932  0.00  0.00    -0.016 A 
ATOM      5  C5  M1S d          57.362  74.701  -8.508  0.00  0.00     0.090 A 
ATOM      6  C6  M1S d          57.903  75.898  -8.129  0.00  0.00     0.075 A 
ATOM      7  C7  M1S d          57.365  76.743  -7.172  0.00  0.00    -0.008 A 
ATOM      8  C8  M1S d          58.053  78.070  -6.824  0.00  0.00     0.017 C 
ATOM      9  C9  M1S d          59.021  78.010  -5.678  0.00  0.00     0.131 C 
ATOM     10  C10 M1S d          59.613  76.715  -5.199  0.00  0.00    -0.009 C 
ATOM     11  C11 M1S d          60.575  76.959  -4.030  0.00  0.00    -0.059 C 
ATOM     12  C12 M1S d          61.078  75.653  -3.435  0.00  0.00    -0.064 C 
ATOM     13  C13 M1S d          59.956  74.804  -2.840  0.00  0.00    -0.062 C 
ATOM     14  C14 M1S d          59.327  75.497  -1.633  0.00  0.00    -0.050 C 
ATOM     15  C15 M1S d          57.900  75.887  -1.948  0.00  0.00    -0.106 C 
ATOM     16  C16 M1S d          57.532  77.166  -1.916  0.00  0.00    -0.105 C 
ATOM     17  C17 M1S d          56.104  77.561  -2.215  0.00  0.00    -0.030 C 
ATOM     18  C18 M1S d          55.918  78.391  -3.481  0.00  0.00     0.032 C 
ATOM     19  O2  M1S d          54.315  77.235  -5.364  0.00  0.00    -0.259 OA
ATOM     20 CL1  M1S d          59.372  76.414  -8.970  0.00  0.00    -0.081 Cl
ATOM     21  O5  M1S d          59.334  79.098  -5.188  0.00  0.00    -0.298 OA
ATOM     22  O1  M1S d          56.448  77.633  -4.600  0.00  0.00    -0.317 OA
ATOM     23  H1  M1S d          55.707  73.327  -8.224  0.00  0.00     0.092 H 
ATOM     24  H2  M1S d          57.273  78.802  -6.571  0.00  0.00     0.051 H 
ATOM     25  H3  M1S d          58.602  78.412  -7.714  0.00  0.00     0.051 H 
ATOM     26  H4  M1S d          60.162  76.242  -6.026  0.00  0.00     0.044 H 
ATOM     27  H5  M1S d          58.804  76.049  -4.867  0.00  0.00     0.044 H 
ATOM     28  H6  M1S d          60.050  77.528  -3.248  0.00  0.00     0.033 H 
ATOM     29  H7  M1S d          61.436  77.541  -4.392  0.00  0.00     0.033 H 
ATOM     30  H8  M1S d          61.803  75.885  -2.641  0.00  0.00     0.033 H 
ATOM     31  H9  M1S d          61.575  75.074  -4.228  0.00  0.00     0.033 H 
ATOM     32  H10 M1S d          60.369  73.834  -2.523  0.00  0.00     0.033 H 
ATOM     33  H11 M1S d          59.183  74.640  -3.605  0.00  0.00     0.033 H 
ATOM     34  H12 M1S d          59.905  76.400  -1.388  0.00  0.00     0.038 H 
ATOM     35  H13 M1S d          59.336  74.811  -0.772  0.00  0.00     0.038 H 
ATOM     36  H14 M1S d          57.171  75.119  -2.203  0.00  0.00     0.076 H 
ATOM     37  H15 M1S d          58.266  77.933  -1.672  0.00  0.00     0.076 H 
ATOM     38  H16 M1S d          55.726  78.147  -1.364  0.00  0.00     0.042 H 
ATOM     39  H17 M1S d          55.511  76.641  -2.320  0.00  0.00     0.042 H 
ATOM     40  H18 M1S d          56.460  79.343  -3.385  0.00  0.00     0.075 H 
ATOM     41  H19 M1S d          54.848  78.593  -3.641  0.00  0.00     0.075 H 
ENDROOT
BRANCH   3  42
ATOM     42  O3  M1S d          54.393  74.681  -6.407  0.00  0.00    -0.360 OA
ATOM     43  H20 M1S d          54.548  73.944  -5.827  0.00  0.00     0.217 HD
ENDBRANCH   3  42
BRANCH   5  44
ATOM     44  O4  M1S d          58.005  73.912  -9.431  0.00  0.00    -0.359 OA
ATOM     45  H21 M1S d          58.072  74.380 -10.255  0.00  0.00     0.217 HD
ENDBRANCH   5  44
TORSDOF 2
ENDMDL
MODEL 3
REMARK VINA RESULT:      -6.9      2.681      6.083
REMARK  2 active torsions:
REMARK  status: ('A' for Active; 'I' for Inactive)
REMARK    1  A    between atoms: C3_3  and  O3_20 
REMARK    2  A    between atoms: C5_5  and  O4_21 
ROOT
ATOM      1  C1  M1S d          60.332  76.922  -3.324  0.00  0.00     0.296 C 
ATOM      2  C2  M1S d          60.444  77.440  -4.729  0.00  0.00     0.081 A 
ATOM      3  C3  M1S d          61.013  78.711  -4.926  0.00  0.00     0.085 A 
ATOM      4  C4  M1S d          61.117  79.277  -6.189  0.00  0.00    -0.016 A 
ATOM      5  C5  M1S d          60.621  78.533  -7.263  0.00  0.00     0.090 A 
ATOM      6  C6  M1S d          60.080  77.297  -7.042  0.00  0.00     0.075 A 
ATOM      7  C7  M1S d          59.954  76.698  -5.799  0.00  0.00    -0.008 A 
ATOM      8  C8  M1S d          59.333  75.300  -5.664  0.00  0.00     0.017 C 
ATOM      9  C9  M1S d          57.856  75.276  -5.402  0.00  0.00     0.131 C 
ATOM     10  C10 M1S d          56.974  76.458  -5.689  0.00  0.00    -0.009 C 
ATOM     11  C11 M1S d          55.515  76.144  -5.340  0.00  0.00    -0.059 C 
ATOM     12  C12 M1S d          54.626  77.368  -5.487  0.00  0.00    -0.064 C 
ATOM     13  C13 M1S d          55.014  78.499  -4.535  0.00  0.00    -0.062 C 
ATOM     14  C14 M1S d          54.782  78.093  -3.081  0.00  0.00    -0.050 C 
ATOM     15  C15 M1S d          56.107  77.987  -2.358  0.00  0.00    -0.106 C 
ATOM     16  C16 M1S d          56.487  76.828  -1.825  0.00  0.00    -0.105 C 
ATOM     17  C17 M1S d          57.802  76.718  -1.088  0.00  0.00    -0.030 C 
ATOM     18  C18 M1S d          58.837  75.813  -1.749  0.00  0.00     0.032 C 
ATOM     19  O2  M1S d          61.156  77.073  -2.448  0.00  0.00    -0.259 OA
ATOM     20 CL1  M1S d          59.554  76.388  -8.467  0.00  0.00    -0.081 Cl
ATOM     21  O5  M1S d          57.406  74.206  -4.983  0.00  0.00    -0.298 OA
ATOM     22  O1  M1S d          59.081  76.312  -3.090  0.00  0.00    -0.317 OA
ATOM     23  H1  M1S d          61.564  80.253  -6.336  0.00  0.00     0.092 H 
ATOM     24  H2  M1S d          59.834  74.785  -4.831  0.00  0.00     0.051 H 
ATOM     25  H3  M1S d          59.521  74.753  -6.599  0.00  0.00     0.051 H 
ATOM     26  H4  M1S d          57.044  76.709  -6.758  0.00  0.00     0.044 H 
ATOM     27  H5  M1S d          57.312  77.315  -5.089  0.00  0.00     0.044 H 
ATOM     28  H6  M1S d          55.465  75.789  -4.299  0.00  0.00     0.033 H 
ATOM     29  H7  M1S d          55.149  75.354  -6.014  0.00  0.00     0.033 H 
ATOM     30  H8  M1S d          53.586  77.075  -5.278  0.00  0.00     0.033 H 
ATOM     31  H9  M1S d          54.703  77.737  -6.521  0.00  0.00     0.033 H 
ATOM     32  H10 M1S d          54.404  79.386  -4.763  0.00  0.00     0.033 H 
ATOM     33  H11 M1S d          56.078  78.739  -4.677  0.00  0.00     0.033 H 
ATOM     34  H12 M1S d          54.271  77.120  -3.051  0.00  0.00     0.038 H 
ATOM     35  H13 M1S d          54.157  78.852  -2.587  0.00  0.00     0.038 H 
ATOM     36  H14 M1S d          56.751  78.860  -2.274  0.00  0.00     0.076 H 
ATOM     37  H15 M1S d          55.846  75.952  -1.920  0.00  0.00     0.076 H 
ATOM     38  H16 M1S d          57.598  76.324  -0.081  0.00  0.00     0.042 H 
ATOM     39  H17 M1S d          58.233  77.727  -1.006  0.00  0.00     0.042 H 
ATOM     40  H18 M1S d          58.454  74.784  -1.798  0.00  0.00     0.075 H 
ATOM     41  H19 M1S d          59.772  75.830  -1.169  0.00  0.00     0.075 H 
ENDROOT
BRANCH   3  42
ATOM     42  O3  M1S d          61.523  79.420  -3.853  0.00  0.00    -0.360 OA
ATOM     43  H20 M1S d          61.634  80.331  -4.100  0.00  0.00     0.217 HD
ENDBRANCH   3  42
BRANCH   5  44
ATOM     44  O4  M1S d          60.651  79.059  -8.531  0.00  0.00    -0.359 OA
ATOM     45  H21 M1S d          59.781  79.020  -8.910  0.00  0.00     0.217 HD
ENDBRANCH   5  44
TORSDOF 2
ENDMDL
