MODEL 1
REMARK VINA RESULT:      -9.2      0.000      0.000
REMARK  7 active torsions:
REMARK  status: ('A' for Active; 'I' for Inactive)
REMARK    1  A    between atoms: O2_1  and  C2_2 
REMARK    2  A    between atoms: C3_3  and  O3_4 
REMARK    3  A    between atoms: C4_5  and  O4_6 
REMARK    4  A    between atoms: C5_7  and  C6_8 
REMARK    5  A    between atoms: C6_8  and  O6_9 
REMARK    6  A    between atoms: N1_12  and  C9_14 
REMARK    7  A    between atoms: C9_14  and  C10_15 
ROOT
ATOM      1  C2  VBZ d          27.624  45.839  -0.734  0.00  0.00     0.090 C 
ATOM      2  C3  VBZ d          27.963  46.993   0.180  0.00  0.00     0.094 C 
ATOM      3  C4  VBZ d          28.004  48.235  -0.719  0.00  0.00     0.116 C 
ATOM      4  C5  VBZ d          26.696  48.240  -1.542  0.00  0.00     0.002 C 
ATOM      5  C7  VBZ d          26.771  47.154  -2.620  0.00  0.00    -0.028 C 
ATOM      6  C8  VBZ d          29.263  48.169  -1.600  0.00  0.00     0.115 C 
ATOM      7  N1  VBZ d          29.214  46.942  -2.431  0.00  0.00    -0.058 N 
ATOM      8  C1  VBZ d          27.910  46.247  -2.203  0.00  0.00     0.132 C 
ATOM      9  H2  VBZ d          26.543  45.650  -0.650  0.00  0.00     0.090 H 
ATOM     10  H3  VBZ d          27.205  47.118   0.966  0.00  0.00     0.091 H 
ATOM     11  H6  VBZ d          25.909  47.924  -0.842  0.00  0.00     0.048 H 
ATOM     12  H10 VBZ d          26.978  47.602  -3.603  0.00  0.00     0.036 H 
ATOM     13  H11 VBZ d          25.827  46.591  -2.664  0.00  0.00     0.036 H 
ATOM     14  H12 VBZ d          30.159  48.144  -0.960  0.00  0.00     0.081 H 
ATOM     15  H13 VBZ d          29.302  49.054  -2.252  0.00  0.00     0.081 H 
ATOM     16  H14 VBZ d          29.964  46.338  -2.135  0.00  0.00     0.281 HD
ATOM     17  H15 VBZ d          27.902  45.339  -2.823  0.00  0.00     0.088 H 
ENDROOT
BRANCH   7  18
ATOM     18  C9  VBZ d          29.369  47.187  -3.912  0.00  0.00     0.108 C 
ATOM     19  H16 VBZ d          28.499  47.768  -4.249  0.00  0.00     0.083 H 
ATOM     20  H17 VBZ d          29.373  46.208  -4.416  0.00  0.00     0.083 H 
BRANCH  18  21
ATOM     21  C10 VBZ d          30.623  47.935  -4.340  0.00  0.00    -0.033 A 
ATOM     22  C11 VBZ d          30.552  49.164  -5.002  0.00  0.00    -0.075 A 
ATOM     23  C12 VBZ d          31.727  49.846  -5.387  0.00  0.00    -0.082 A 
ATOM     24  H18 VBZ d          29.584  49.599  -5.222  0.00  0.00     0.084 H 
ATOM     25  C13 VBZ d          32.988  49.285  -5.133  0.00  0.00    -0.083 A 
ATOM     26  H19 VBZ d          31.655  50.808  -5.881  0.00  0.00     0.083 H 
ATOM     27  C14 VBZ d          33.067  48.043  -4.496  0.00  0.00    -0.082 A 
ATOM     28  H22 VBZ d          33.890  49.808  -5.427  0.00  0.00     0.083 H 
ATOM     29  C15 VBZ d          31.889  47.382  -4.102  0.00  0.00    -0.075 A 
ATOM     30  H21 VBZ d          34.034  47.590  -4.306  0.00  0.00     0.083 H 
ATOM     31  H20 VBZ d          31.963  46.423  -3.602  0.00  0.00     0.084 H 
ENDBRANCH  18  21
ENDBRANCH   7  18
BRANCH   3  32
ATOM     32  O4  VBZ d          28.028  49.408   0.136  0.00  0.00    -0.385 OA
ATOM     33  H5  VBZ d          27.407  49.294   0.846  0.00  0.00     0.210 HD
ENDBRANCH   3  32
BRANCH   1  34
ATOM     34  O2  VBZ d          28.284  44.646  -0.333  0.00  0.00    -0.391 OA
ATOM     35  H1  VBZ d          28.296  44.595   0.616  0.00  0.00     0.210 HD
ENDBRANCH   1  34
BRANCH   2  36
ATOM     36  O3  VBZ d          29.210  46.711   0.757  0.00  0.00    -0.390 OA
ATOM     37  H4  VBZ d          29.159  45.891   1.234  0.00  0.00     0.210 HD
ENDBRANCH   2  36
BRANCH   4  38
ATOM     38  C6  VBZ d          26.215  49.589  -2.084  0.00  0.00     0.023 C 
ATOM     39  H7  VBZ d          25.990  50.266  -1.246  0.00  0.00     0.074 H 
ATOM     40  H8  VBZ d          25.310  49.443  -2.691  0.00  0.00     0.074 H 
BRANCH  38  41
ATOM     41  O6  VBZ d          27.244  50.146  -2.886  0.00  0.00    -0.400 OA
ATOM     42  H9  VBZ d          26.860  50.717  -3.540  0.00  0.00     0.209 HD
ENDBRANCH  38  41
ENDBRANCH   4  38
TORSDOF 7
ENDMDL
MODEL 2
REMARK VINA RESULT:      -7.6      1.402      2.040
REMARK  7 active torsions:
REMARK  status: ('A' for Active; 'I' for Inactive)
REMARK    1  A    between atoms: O2_1  and  C2_2 
REMARK    2  A    between atoms: C3_3  and  O3_4 
REMARK    3  A    between atoms: C4_5  and  O4_6 
REMARK    4  A    between atoms: C5_7  and  C6_8 
REMARK    5  A    between atoms: C6_8  and  O6_9 
REMARK    6  A    between atoms: N1_12  and  C9_14 
REMARK    7  A    between atoms: C9_14  and  C10_15 
ROOT
ATOM      1  C2  VBZ d          27.797  45.867  -1.081  0.00  0.00     0.090 C 
ATOM      2  C3  VBZ d          27.809  46.867   0.051  0.00  0.00     0.094 C 
ATOM      3  C4  VBZ d          27.822  48.248  -0.615  0.00  0.00     0.116 C 
ATOM      4  C5  VBZ d          26.684  48.257  -1.661  0.00  0.00     0.002 C 
ATOM      5  C7  VBZ d          27.094  47.400  -2.863  0.00  0.00    -0.028 C 
ATOM      6  C8  VBZ d          29.207  48.484  -1.240  0.00  0.00     0.115 C 
ATOM      7  N1  VBZ d          29.474  47.431  -2.249  0.00  0.00    -0.058 N 
ATOM      8  C1  VBZ d          28.264  46.565  -2.386  0.00  0.00     0.132 C 
ATOM      9  H2  VBZ d          26.756  45.547  -1.236  0.00  0.00     0.090 H 
ATOM     10  H3  VBZ d          26.919  46.761   0.689  0.00  0.00     0.091 H 
ATOM     11  H6  VBZ d          25.844  47.732  -1.182  0.00  0.00     0.048 H 
ATOM     12  H10 VBZ d          27.396  48.039  -3.705  0.00  0.00     0.036 H 
ATOM     13  H11 VBZ d          26.261  46.751  -3.175  0.00  0.00     0.036 H 
ATOM     14  H12 VBZ d          29.977  48.444  -0.454  0.00  0.00     0.081 H 
ATOM     15  H13 VBZ d          29.229  49.472  -1.724  0.00  0.00     0.081 H 
ATOM     16  H14 VBZ d          30.243  46.872  -1.915  0.00  0.00     0.281 HD
ATOM     17  H15 VBZ d          28.490  45.790  -3.132  0.00  0.00     0.088 H 
ENDROOT
BRANCH   7  18
ATOM     18  C9  VBZ d          29.840  47.957  -3.616  0.00  0.00     0.108 C 
ATOM     19  H16 VBZ d          30.749  48.566  -3.509  0.00  0.00     0.083 H 
ATOM     20  H17 VBZ d          29.012  48.593  -3.963  0.00  0.00     0.083 H 
BRANCH  18  21
ATOM     21  C10 VBZ d          30.104  46.911  -4.689  0.00  0.00    -0.033 A 
ATOM     22  C11 VBZ d          29.096  46.056  -5.142  0.00  0.00    -0.075 A 
ATOM     23  C12 VBZ d          29.360  45.095  -6.142  0.00  0.00    -0.082 A 
ATOM     24  H18 VBZ d          28.100  46.132  -4.722  0.00  0.00     0.084 H 
ATOM     25  C13 VBZ d          30.650  44.966  -6.679  0.00  0.00    -0.083 A 
ATOM     26  H19 VBZ d          28.562  44.454  -6.497  0.00  0.00     0.083 H 
ATOM     27  C14 VBZ d          31.671  45.798  -6.211  0.00  0.00    -0.082 A 
ATOM     28  H22 VBZ d          30.853  44.229  -7.447  0.00  0.00     0.083 H 
ATOM     29  C15 VBZ d          31.391  46.764  -5.227  0.00  0.00    -0.075 A 
ATOM     30  H21 VBZ d          32.676  45.700  -6.606  0.00  0.00     0.083 H 
ATOM     31  H20 VBZ d          32.188  47.408  -4.876  0.00  0.00     0.084 H 
ENDBRANCH  18  21
ENDBRANCH   7  18
BRANCH   3  32
ATOM     32  O4  VBZ d          27.533  49.241   0.403  0.00  0.00    -0.385 OA
ATOM     33  H5  VBZ d          26.594  49.378   0.454  0.00  0.00     0.210 HD
ENDBRANCH   3  32
BRANCH   1  34
ATOM     34  O2  VBZ d          28.544  44.703  -0.757  0.00  0.00    -0.391 OA
ATOM     35  H1  VBZ d          27.976  44.073  -0.329  0.00  0.00     0.210 HD
ENDBRANCH   1  34
BRANCH   2  36
ATOM     36  O3  VBZ d          28.968  46.626   0.802  0.00  0.00    -0.390 OA
ATOM     37  H4  VBZ d          28.857  46.980   1.677  0.00  0.00     0.210 HD
ENDBRANCH   2  36
BRANCH   4  38
ATOM     38  C6  VBZ d          26.113  49.619  -2.063  0.00  0.00     0.023 C 
ATOM     39  H7  VBZ d          25.952  50.234  -1.165  0.00  0.00     0.074 H 
ATOM     40  H8  VBZ d          25.156  49.479  -2.588  0.00  0.00     0.074 H 
BRANCH  38  41
ATOM     41  O6  VBZ d          27.041  50.260  -2.923  0.00  0.00    -0.400 OA
ATOM     42  H9  VBZ d          26.570  50.783  -3.561  0.00  0.00     0.209 HD
ENDBRANCH  38  41
ENDBRANCH   4  38
TORSDOF 7
ENDMDL
MODEL 3
REMARK VINA RESULT:      -6.8      1.439      3.450
REMARK  7 active torsions:
REMARK  status: ('A' for Active; 'I' for Inactive)
REMARK    1  A    between atoms: O2_1  and  C2_2 
REMARK    2  A    between atoms: C3_3  and  O3_4 
REMARK    3  A    between atoms: C4_5  and  O4_6 
REMARK    4  A    between atoms: C5_7  and  C6_8 
REMARK    5  A    between atoms: C6_8  and  O6_9 
REMARK    6  A    between atoms: N1_12  and  C9_14 
REMARK    7  A    between atoms: C9_14  and  C10_15 
ROOT
ATOM      1  C2  VBZ d          27.256  49.329  -1.983  0.00  0.00     0.090 C 
ATOM      2  C3  VBZ d          26.193  48.285  -2.233  0.00  0.00     0.094 C 
ATOM      3  C4  VBZ d          26.845  46.940  -1.895  0.00  0.00     0.116 C 
ATOM      4  C5  VBZ d          27.489  47.088  -0.498  0.00  0.00     0.002 C 
ATOM      5  C7  VBZ d          28.751  47.951  -0.611  0.00  0.00    -0.028 C 
ATOM      6  C8  VBZ d          27.868  46.596  -2.991  0.00  0.00     0.115 C 
ATOM      7  N1  VBZ d          28.899  47.660  -3.048  0.00  0.00    -0.058 N 
ATOM      8  C1  VBZ d          28.648  48.645  -1.953  0.00  0.00     0.132 C 
ATOM      9  H2  VBZ d          27.079  49.757  -0.984  0.00  0.00     0.090 H 
ATOM     10  H3  VBZ d          25.311  48.452  -1.596  0.00  0.00     0.091 H 
ATOM     11  H6  VBZ d          26.770  47.671   0.095  0.00  0.00     0.048 H 
ATOM     12  H10 VBZ d          29.652  47.321  -0.572  0.00  0.00     0.036 H 
ATOM     13  H11 VBZ d          28.784  48.690   0.203  0.00  0.00     0.036 H 
ATOM     14  H12 VBZ d          27.356  46.527  -3.963  0.00  0.00     0.081 H 
ATOM     15  H13 VBZ d          28.345  45.632  -2.758  0.00  0.00     0.081 H 
ATOM     16  H14 VBZ d          28.812  48.127  -3.936  0.00  0.00     0.281 HD
ATOM     17  H15 VBZ d          29.419  49.426  -2.022  0.00  0.00     0.088 H 
ENDROOT
BRANCH   7  18
ATOM     18  C9  VBZ d          30.317  47.159  -2.921  0.00  0.00     0.108 C 
ATOM     19  H16 VBZ d          30.275  46.109  -2.599  0.00  0.00     0.083 H 
ATOM     20  H17 VBZ d          30.818  47.760  -2.146  0.00  0.00     0.083 H 
BRANCH  18  21
ATOM     21  C10 VBZ d          31.167  47.225  -4.182  0.00  0.00    -0.033 A 
ATOM     22  C11 VBZ d          32.373  47.931  -4.216  0.00  0.00    -0.075 A 
ATOM     23  C12 VBZ d          33.150  47.976  -5.393  0.00  0.00    -0.082 A 
ATOM     24  H18 VBZ d          32.716  48.449  -3.327  0.00  0.00     0.084 H 
ATOM     25  C13 VBZ d          32.709  47.333  -6.559  0.00  0.00    -0.083 A 
ATOM     26  H19 VBZ d          34.093  48.511  -5.397  0.00  0.00     0.083 H 
ATOM     27  C14 VBZ d          31.490  46.648  -6.542  0.00  0.00    -0.082 A 
ATOM     28  H22 VBZ d          33.306  47.366  -7.464  0.00  0.00     0.083 H 
ATOM     29  C15 VBZ d          30.734  46.595  -5.357  0.00  0.00    -0.075 A 
ATOM     30  H21 VBZ d          31.129  46.158  -7.440  0.00  0.00     0.083 H 
ATOM     31  H20 VBZ d          29.794  46.056  -5.353  0.00  0.00     0.084 H 
ENDBRANCH  18  21
ENDBRANCH   7  18
BRANCH   3  32
ATOM     32  O4  VBZ d          25.798  45.937  -1.827  0.00  0.00    -0.385 OA
ATOM     33  H5  VBZ d          24.951  46.367  -1.781  0.00  0.00     0.210 HD
ENDBRANCH   3  32
BRANCH   1  34
ATOM     34  O2  VBZ d          27.165  50.400  -2.913  0.00  0.00    -0.391 OA
ATOM     35  H1  VBZ d          27.338  51.221  -2.466  0.00  0.00     0.210 HD
ENDBRANCH   1  34
BRANCH   2  36
ATOM     36  O3  VBZ d          25.832  48.379  -3.585  0.00  0.00    -0.390 OA
ATOM     37  H4  VBZ d          26.191  47.639  -4.060  0.00  0.00     0.210 HD
ENDBRANCH   2  36
BRANCH   4  38
ATOM     38  C6  VBZ d          27.711  45.806   0.310  0.00  0.00     0.023 C 
ATOM     39  H7  VBZ d          26.756  45.469   0.741  0.00  0.00     0.074 H 
ATOM     40  H8  VBZ d          28.431  45.998   1.119  0.00  0.00     0.074 H 
BRANCH  38  41
ATOM     41  O6  VBZ d          28.223  44.808  -0.558  0.00  0.00    -0.400 OA
ATOM     42  H9  VBZ d          28.992  44.413  -0.166  0.00  0.00     0.209 HD
ENDBRANCH  38  41
ENDBRANCH   4  38
TORSDOF 7
ENDMDL
