MODEL 1
REMARK VINA RESULT:      -4.6      0.000      0.000
REMARK  11 active torsions:
REMARK  status: ('A' for Active; 'I' for Inactive)
REMARK    1  A    between atoms: C24_1  and  C23_2 
REMARK       I    between atoms: C23_2  and  N22_4 
REMARK    2  A    between atoms: N22_4  and  C19_5 
REMARK    3  A    between atoms: C16_10  and  O14_11 
REMARK    4  A    between atoms: O14_11  and  C13_12 
REMARK    5  A    between atoms: C13_12  and  C11_13 
REMARK    6  A    between atoms: C11_13  and  O11_14 
REMARK    7  A    between atoms: C11_13  and  C12_15 
REMARK    8  A    between atoms: C11_13  and  C10_16 
REMARK       I    between atoms: C10_16  and  N9_18 
REMARK    9  A    between atoms: N9_18  and  C6_19 
REMARK   10  A    between atoms: C3_23  and  N8_24 
REMARK   11  A    between atoms: C4_27  and  C7_28 
ROOT
ATOM      1  C11 B68 d          29.903  -0.621   3.579  0.00  0.00     0.156 C 
ENDROOT
BRANCH   1   2
ATOM      2  C13 B68 d          29.706   0.802   3.080  0.00  0.00     0.063 C 
ATOM      3  H9  B68 d          29.555   1.472   3.940  0.00  0.00     0.080 H 
ATOM      4  H10 B68 d          30.599   1.119   2.522  0.00  0.00     0.080 H 
BRANCH   2   5
ATOM      5  O14 B68 d          28.559   0.869   2.218  0.00  0.00    -0.348 OA
BRANCH   5   6
ATOM      6  C16 B68 d          27.664   1.808   2.632  0.00  0.00     0.069 A 
ATOM      7  C17 B68 d          26.302   1.638   2.404  0.00  0.00    -0.049 A 
ATOM      8  C18 B68 d          25.391   2.579   2.875  0.00  0.00    -0.054 A 
ATOM      9  H6  B68 d          25.950   0.771   1.858  0.00  0.00     0.087 H 
ATOM     10  C19 B68 d          25.830   3.697   3.581  0.00  0.00     0.034 A 
ATOM     11  H5  B68 d          24.332   2.441   2.691  0.00  0.00     0.087 H 
ATOM     12  C20 B68 d          27.193   3.860   3.811  0.00  0.00    -0.054 A 
ATOM     13  C21 B68 d          28.108   2.923   3.339  0.00  0.00    -0.049 A 
ATOM     14  H7  B68 d          27.545   4.725   4.362  0.00  0.00     0.087 H 
ATOM     15  H8  B68 d          29.167   3.061   3.523  0.00  0.00     0.087 H 
BRANCH  10  16
ATOM     16  N22 B68 d          24.991   4.630   4.032  0.00  0.00    -0.328 N 
ATOM     17  C23 B68 d          25.032   5.918   3.694  0.00  0.00     0.218 C 
ATOM     18  O23 B68 d          25.828   6.407   2.893  0.00  0.00    -0.274 OA
ATOM     19  H4  B68 d          24.278   4.342   4.670  0.00  0.00     0.169 HD
BRANCH  17  20
ATOM     20  C24 B68 d          23.964   6.787   4.360  0.00  0.00    -0.003 C 
ATOM     21  H1  B68 d          24.332   7.821   4.444  0.00  0.00     0.040 H 
ATOM     22  H2  B68 d          23.744   6.395   5.364  0.00  0.00     0.040 H 
ATOM     23  H3  B68 d          23.047   6.773   3.752  0.00  0.00     0.040 H 
ENDBRANCH  17  20
ENDBRANCH  10  16
ENDBRANCH   5   6
ENDBRANCH   2   5
ENDBRANCH   1   2
BRANCH   1  24
ATOM     24  O11 B68 d          28.638  -1.285   3.632  0.00  0.00    -0.378 OA
ATOM     25  H11 B68 d          28.024  -0.840   3.060  0.00  0.00     0.211 HD
ENDBRANCH   1  24
BRANCH   1  26
ATOM     26  C12 B68 d          30.853  -1.365   2.639  0.00  0.00    -0.037 C 
ATOM     27  H12 B68 d          31.620  -1.886   3.229  0.00  0.00     0.032 H 
ATOM     28  H13 B68 d          31.337  -0.646   1.962  0.00  0.00     0.032 H 
ATOM     29  H14 B68 d          30.284  -2.098   2.048  0.00  0.00     0.032 H 
ENDBRANCH   1  26
BRANCH   1  30
ATOM     30  C10 B68 d          30.495  -0.563   4.988  0.00  0.00     0.258 C 
ATOM     31  O10 B68 d          31.643  -0.951   5.198  0.00  0.00    -0.270 OA
ATOM     32  N9  B68 d          29.685  -0.042   5.907  0.00  0.00    -0.325 N 
ATOM     33  H15 B68 d          28.779   0.254   5.604  0.00  0.00     0.169 HD
BRANCH  32  34
ATOM     34  C6  B68 d          29.979   0.116   7.198  0.00  0.00     0.035 A 
ATOM     35  C5  B68 d          29.072   0.624   8.126  0.00  0.00    -0.040 A 
ATOM     36  C4  B68 d          29.366   0.741   9.485  0.00  0.00     0.083 A 
ATOM     37  H16 B68 d          28.095   0.941   7.778  0.00  0.00     0.088 H 
ATOM     38  C3  B68 d          30.628   0.318   9.917  0.00  0.00     0.118 A 
ATOM     39  C2  B68 d          31.547  -0.175   8.993  0.00  0.00    -0.048 A 
ATOM     40  C1  B68 d          31.234  -0.280   7.641  0.00  0.00    -0.055 A 
ATOM     41  H18 B68 d          32.528  -0.483   9.335  0.00  0.00     0.087 H 
ATOM     42  H17 B68 d          31.964  -0.668   6.941  0.00  0.00     0.087 H 
BRANCH  36  43
ATOM     43  C7  B68 d          28.305   1.354  10.419  0.00  0.00     0.419 C 
ATOM     44  F2  B68 d          27.352   0.467  10.689  0.00  0.00    -0.166 F 
ATOM     45  F1  B68 d          28.811   1.781  11.573  0.00  0.00    -0.166 F 
ATOM     46  F3  B68 d          27.706   2.406   9.869  0.00  0.00    -0.166 F 
ENDBRANCH  36  43
BRANCH  38  47
ATOM     47  N8  B68 d          31.026   0.328  11.189  0.00  0.00    -0.115 N 
ATOM     48  O1  B68 d          32.270   0.870  11.609  0.00  0.00    -0.532 OA
ATOM     49  O2  B68 d          30.139  -0.124  12.201  0.00  0.00    -0.532 OA
ENDBRANCH  38  47
ENDBRANCH  32  34
ENDBRANCH   1  30
TORSDOF 11
ENDMDL
MODEL 2
REMARK VINA RESULT:      -4.6      2.028      4.888
REMARK  11 active torsions:
REMARK  status: ('A' for Active; 'I' for Inactive)
REMARK    1  A    between atoms: C24_1  and  C23_2 
REMARK       I    between atoms: C23_2  and  N22_4 
REMARK    2  A    between atoms: N22_4  and  C19_5 
REMARK    3  A    between atoms: C16_10  and  O14_11 
REMARK    4  A    between atoms: O14_11  and  C13_12 
REMARK    5  A    between atoms: C13_12  and  C11_13 
REMARK    6  A    between atoms: C11_13  and  O11_14 
REMARK    7  A    between atoms: C11_13  and  C12_15 
REMARK    8  A    between atoms: C11_13  and  C10_16 
REMARK       I    between atoms: C10_16  and  N9_18 
REMARK    9  A    between atoms: N9_18  and  C6_19 
REMARK   10  A    between atoms: C3_23  and  N8_24 
REMARK   11  A    between atoms: C4_27  and  C7_28 
ROOT
ATOM      1  C11 B68 d          26.522   4.403   3.700  0.00  0.00     0.156 C 
ENDROOT
BRANCH   1   2
ATOM      2  C13 B68 d          25.334   3.477   3.908  0.00  0.00     0.063 C 
ATOM      3  H9  B68 d          25.442   2.956   4.871  0.00  0.00     0.080 H 
ATOM      4  H10 B68 d          24.407   4.069   3.913  0.00  0.00     0.080 H 
BRANCH   2   5
ATOM      5  O14 B68 d          25.272   2.509   2.848  0.00  0.00    -0.348 OA
BRANCH   5   6
ATOM      6  C16 B68 d          26.196   1.522   3.005  0.00  0.00     0.069 A 
ATOM      7  C17 B68 d          26.017   0.529   3.963  0.00  0.00    -0.049 A 
ATOM      8  C18 B68 d          26.942  -0.504   4.082  0.00  0.00    -0.054 A 
ATOM      9  H6  B68 d          25.155   0.560   4.619  0.00  0.00     0.087 H 
ATOM     10  C19 B68 d          28.053  -0.558   3.242  0.00  0.00     0.034 A 
ATOM     11  H5  B68 d          26.797  -1.273   4.832  0.00  0.00     0.087 H 
ATOM     12  C20 B68 d          28.226   0.434   2.283  0.00  0.00    -0.054 A 
ATOM     13  C21 B68 d          27.304   1.471   2.162  0.00  0.00    -0.049 A 
ATOM     14  H7  B68 d          29.085   0.400   1.623  0.00  0.00     0.087 H 
ATOM     15  H8  B68 d          27.449   2.239   1.412  0.00  0.00     0.087 H 
BRANCH  10  16
ATOM     16  N22 B68 d          28.972  -1.520   3.338  0.00  0.00    -0.328 N 
ATOM     17  C23 B68 d          30.282  -1.313   3.455  0.00  0.00     0.218 C 
ATOM     18  O23 B68 d          30.812  -0.205   3.528  0.00  0.00    -0.274 OA
ATOM     19  H4  B68 d          28.653  -2.468   3.319  0.00  0.00     0.169 HD
BRANCH  17  20
ATOM     20  C24 B68 d          31.126  -2.587   3.534  0.00  0.00    -0.003 C 
ATOM     21  H1  B68 d          32.137  -2.336   3.887  0.00  0.00     0.040 H 
ATOM     22  H2  B68 d          31.190  -3.047   2.536  0.00  0.00     0.040 H 
ATOM     23  H3  B68 d          30.658  -3.295   4.234  0.00  0.00     0.040 H 
ENDBRANCH  17  20
ENDBRANCH  10  16
ENDBRANCH   5   6
ENDBRANCH   2   5
ENDBRANCH   1   2
BRANCH   1  24
ATOM     24  O11 B68 d          26.948   4.331   2.337  0.00  0.00    -0.378 OA
ATOM     25  H11 B68 d          26.299   3.859   1.829  0.00  0.00     0.211 HD
ENDBRANCH   1  24
BRANCH   1  26
ATOM     26  C12 B68 d          26.121   5.836   4.055  0.00  0.00    -0.037 C 
ATOM     27  H12 B68 d          25.760   5.870   5.093  0.00  0.00     0.032 H 
ATOM     28  H13 B68 d          25.322   6.171   3.377  0.00  0.00     0.032 H 
ATOM     29  H14 B68 d          26.993   6.497   3.948  0.00  0.00     0.032 H 
ENDBRANCH   1  26
BRANCH   1  30
ATOM     30  C10 B68 d          27.663   3.936   4.605  0.00  0.00     0.258 C 
ATOM     31  O10 B68 d          28.728   4.551   4.632  0.00  0.00    -0.270 OA
ATOM     32  N9  B68 d          27.379   2.866   5.346  0.00  0.00    -0.325 N 
ATOM     33  H15 B68 d          26.468   2.468   5.244  0.00  0.00     0.169 HD
BRANCH  32  34
ATOM     34  C6  B68 d          28.209   2.281   6.210  0.00  0.00     0.035 A 
ATOM     35  C5  B68 d          27.949   2.205   7.577  0.00  0.00    -0.040 A 
ATOM     36  C4  B68 d          28.795   1.548   8.472  0.00  0.00     0.083 A 
ATOM     37  H16 B68 d          27.052   2.676   7.962  0.00  0.00     0.088 H 
ATOM     38  C3  B68 d          29.943   0.937   7.954  0.00  0.00     0.118 A 
ATOM     39  C2  B68 d          30.218   1.024   6.592  0.00  0.00    -0.048 A 
ATOM     40  C1  B68 d          29.364   1.688   5.717  0.00  0.00    -0.055 A 
ATOM     41  H18 B68 d          31.119   0.563   6.203  0.00  0.00     0.087 H 
ATOM     42  H17 B68 d          29.598   1.741   4.660  0.00  0.00     0.087 H 
BRANCH  36  43
ATOM     43  C7  B68 d          28.434   1.558   9.970  0.00  0.00     0.419 C 
ATOM     44  F2  B68 d          27.658   0.521  10.271  0.00  0.00    -0.166 F 
ATOM     45  F1  B68 d          29.501   1.520  10.762  0.00  0.00    -0.166 F 
ATOM     46  F3  B68 d          27.761   2.652  10.312  0.00  0.00    -0.166 F 
ENDBRANCH  36  43
BRANCH  38  47
ATOM     47  N8  B68 d          30.812   0.238   8.684  0.00  0.00    -0.115 N 
ATOM     48  O1  B68 d          32.056   0.763   9.125  0.00  0.00    -0.532 OA
ATOM     49  O2  B68 d          30.455  -1.060   9.138  0.00  0.00    -0.532 OA
ENDBRANCH  38  47
ENDBRANCH  32  34
ENDBRANCH   1  30
TORSDOF 11
ENDMDL
MODEL 3
REMARK VINA RESULT:      -4.4      1.594      2.065
REMARK  11 active torsions:
REMARK  status: ('A' for Active; 'I' for Inactive)
REMARK    1  A    between atoms: C24_1  and  C23_2 
REMARK       I    between atoms: C23_2  and  N22_4 
REMARK    2  A    between atoms: N22_4  and  C19_5 
REMARK    3  A    between atoms: C16_10  and  O14_11 
REMARK    4  A    between atoms: O14_11  and  C13_12 
REMARK    5  A    between atoms: C13_12  and  C11_13 
REMARK    6  A    between atoms: C11_13  and  O11_14 
REMARK    7  A    between atoms: C11_13  and  C12_15 
REMARK    8  A    between atoms: C11_13  and  C10_16 
REMARK       I    between atoms: C10_16  and  N9_18 
REMARK    9  A    between atoms: N9_18  and  C6_19 
REMARK   10  A    between atoms: C3_23  and  N8_24 
REMARK   11  A    between atoms: C4_27  and  C7_28 
ROOT
ATOM      1  C11 B68 d          29.641  -0.355   3.521  0.00  0.00     0.156 C 
ENDROOT
BRANCH   1   2
ATOM      2  C13 B68 d          29.883   1.094   3.127  0.00  0.00     0.063 C 
ATOM      3  H9  B68 d          29.697   1.744   3.996  0.00  0.00     0.080 H 
ATOM      4  H10 B68 d          30.925   1.213   2.797  0.00  0.00     0.080 H 
BRANCH   2   5
ATOM      5  O14 B68 d          29.000   1.468   2.056  0.00  0.00    -0.348 OA
BRANCH   5   6
ATOM      6  C16 B68 d          27.999   2.286   2.483  0.00  0.00     0.069 A 
ATOM      7  C17 B68 d          26.668   1.901   2.354  0.00  0.00    -0.049 A 
ATOM      8  C18 B68 d          25.652   2.721   2.839  0.00  0.00    -0.054 A 
ATOM      9  H6  B68 d          26.421   0.961   1.874  0.00  0.00     0.087 H 
ATOM     10  C19 B68 d          25.957   3.930   3.461  0.00  0.00     0.034 A 
ATOM     11  H5  B68 d          24.618   2.416   2.732  0.00  0.00     0.087 H 
ATOM     12  C20 B68 d          27.289   4.308   3.592  0.00  0.00    -0.054 A 
ATOM     13  C21 B68 d          28.308   3.493   3.106  0.00  0.00    -0.049 A 
ATOM     14  H7  B68 d          27.537   5.246   4.076  0.00  0.00     0.087 H 
ATOM     15  H8  B68 d          29.342   3.798   3.213  0.00  0.00     0.087 H 
BRANCH  10  16
ATOM     16  N22 B68 d          25.012   4.752   3.921  0.00  0.00    -0.328 N 
ATOM     17  C23 B68 d          24.975   6.065   3.705  0.00  0.00     0.218 C 
ATOM     18  O23 B68 d          25.788   6.687   3.022  0.00  0.00    -0.274 OA
ATOM     19  H4  B68 d          24.277   4.352   4.468  0.00  0.00     0.169 HD
BRANCH  17  20
ATOM     20  C24 B68 d          23.792   6.786   4.354  0.00  0.00    -0.003 C 
ATOM     21  H1  B68 d          23.872   7.867   4.166  0.00  0.00     0.040 H 
ATOM     22  H2  B68 d          23.799   6.602   5.439  0.00  0.00     0.040 H 
ATOM     23  H3  B68 d          22.852   6.409   3.925  0.00  0.00     0.040 H 
ENDBRANCH  17  20
ENDBRANCH  10  16
ENDBRANCH   5   6
ENDBRANCH   2   5
ENDBRANCH   1   2
BRANCH   1  24
ATOM     24  O11 B68 d          28.635  -0.916   2.674  0.00  0.00    -0.378 OA
ATOM     25  H11 B68 d          28.267  -1.686   3.089  0.00  0.00     0.211 HD
ENDBRANCH   1  24
BRANCH   1  26
ATOM     26  C12 B68 d          30.945  -1.144   3.389  0.00  0.00    -0.037 C 
ATOM     27  H12 B68 d          30.716  -2.202   3.200  0.00  0.00     0.032 H 
ATOM     28  H13 B68 d          31.524  -1.054   4.321  0.00  0.00     0.032 H 
ATOM     29  H14 B68 d          31.534  -0.741   2.552  0.00  0.00     0.032 H 
ENDBRANCH   1  26
BRANCH   1  30
ATOM     30  C10 B68 d          29.150  -0.387   4.969  0.00  0.00     0.258 C 
ATOM     31  O10 B68 d          28.194  -1.093   5.286  0.00  0.00    -0.270 OA
ATOM     32  N9  B68 d          29.854   0.370   5.809  0.00  0.00    -0.325 N 
ATOM     33  H15 B68 d          30.622   0.884   5.427  0.00  0.00     0.169 HD
BRANCH  32  34
ATOM     34  C6  B68 d          29.620   0.498   7.115  0.00  0.00     0.035 A 
ATOM     35  C5  B68 d          29.626  -0.581   7.997  0.00  0.00    -0.040 A 
ATOM     36  C4  B68 d          29.431  -0.435   9.371  0.00  0.00     0.083 A 
ATOM     37  H16 B68 d          29.788  -1.576   7.598  0.00  0.00     0.088 H 
ATOM     38  C3  B68 d          29.233   0.858   9.867  0.00  0.00     0.118 A 
ATOM     39  C2  B68 d          29.209   1.940   8.991  0.00  0.00    -0.048 A 
ATOM     40  C1  B68 d          29.401   1.772   7.623  0.00  0.00    -0.055 A 
ATOM     41  H18 B68 d          29.037   2.935   9.383  0.00  0.00     0.087 H 
ATOM     42  H17 B68 d          29.380   2.629   6.960  0.00  0.00     0.087 H 
BRANCH  36  43
ATOM     43  C7  B68 d          29.416  -1.700  10.251  0.00  0.00     0.419 C 
ATOM     44  F2  B68 d          30.599  -2.306  10.219  0.00  0.00    -0.166 F 
ATOM     45  F1  B68 d          29.115  -1.447  11.521  0.00  0.00    -0.166 F 
ATOM     46  F3  B68 d          28.519  -2.587   9.831  0.00  0.00    -0.166 F 
ENDBRANCH  36  43
BRANCH  38  47
ATOM     47  N8  B68 d          29.082   1.148  11.160  0.00  0.00    -0.115 N 
ATOM     48  O1  B68 d          27.845   1.559  11.724  0.00  0.00    -0.532 OA
ATOM     49  O2  B68 d          30.168   0.946  12.052  0.00  0.00    -0.532 OA
ENDBRANCH  38  47
ENDBRANCH  32  34
ENDBRANCH   1  30
TORSDOF 11
ENDMDL
MODEL 4
REMARK VINA RESULT:      -3.0      1.919      2.663
REMARK  11 active torsions:
REMARK  status: ('A' for Active; 'I' for Inactive)
REMARK    1  A    between atoms: C24_1  and  C23_2 
REMARK       I    between atoms: C23_2  and  N22_4 
REMARK    2  A    between atoms: N22_4  and  C19_5 
REMARK    3  A    between atoms: C16_10  and  O14_11 
REMARK    4  A    between atoms: O14_11  and  C13_12 
REMARK    5  A    between atoms: C13_12  and  C11_13 
REMARK    6  A    between atoms: C11_13  and  O11_14 
REMARK    7  A    between atoms: C11_13  and  C12_15 
REMARK    8  A    between atoms: C11_13  and  C10_16 
REMARK       I    between atoms: C10_16  and  N9_18 
REMARK    9  A    between atoms: N9_18  and  C6_19 
REMARK   10  A    between atoms: C3_23  and  N8_24 
REMARK   11  A    between atoms: C4_27  and  C7_28 
ROOT
ATOM      1  C11 B68 d          30.204   1.239   4.656  0.00  0.00     0.156 C 
ENDROOT
BRANCH   1   2
ATOM      2  C13 B68 d          29.414   0.358   3.700  0.00  0.00     0.063 C 
ATOM      3  H9  B68 d          30.053  -0.470   3.357  0.00  0.00     0.080 H 
ATOM      4  H10 B68 d          28.536  -0.049   4.222  0.00  0.00     0.080 H 
BRANCH   2   5
ATOM      5  O14 B68 d          28.980   1.126   2.566  0.00  0.00    -0.348 OA
BRANCH   5   6
ATOM      6  C16 B68 d          28.019   2.030   2.900  0.00  0.00     0.069 A 
ATOM      7  C17 B68 d          28.273   3.396   2.818  0.00  0.00    -0.049 A 
ATOM      8  C18 B68 d          27.269   4.314   3.113  0.00  0.00    -0.054 A 
ATOM      9  H6  B68 d          29.255   3.747   2.523  0.00  0.00     0.087 H 
ATOM     10  C19 B68 d          26.000   3.876   3.490  0.00  0.00     0.034 A 
ATOM     11  H5  B68 d          27.475   5.376   3.049  0.00  0.00     0.087 H 
ATOM     12  C20 B68 d          25.750   2.510   3.568  0.00  0.00    -0.054 A 
ATOM     13  C21 B68 d          26.752   1.589   3.275  0.00  0.00    -0.049 A 
ATOM     14  H7  B68 d          24.766   2.159   3.857  0.00  0.00     0.087 H 
ATOM     15  H8  B68 d          26.547   0.527   3.340  0.00  0.00     0.087 H 
BRANCH  10  16
ATOM     16  N22 B68 d          25.018   4.723   3.800  0.00  0.00    -0.328 N 
ATOM     17  C23 B68 d          25.039   6.033   3.563  0.00  0.00     0.218 C 
ATOM     18  O23 B68 d          25.953   6.628   2.992  0.00  0.00    -0.274 OA
ATOM     19  H4  B68 d          24.205   4.347   4.244  0.00  0.00     0.169 HD
BRANCH  17  20
ATOM     20  C24 B68 d          23.791   6.787   4.027  0.00  0.00    -0.003 C 
ATOM     21  H1  B68 d          23.837   7.828   3.672  0.00  0.00     0.040 H 
ATOM     22  H2  B68 d          23.744   6.778   5.126  0.00  0.00     0.040 H 
ATOM     23  H3  B68 d          22.894   6.300   3.618  0.00  0.00     0.040 H 
ENDBRANCH  17  20
ENDBRANCH  10  16
ENDBRANCH   5   6
ENDBRANCH   2   5
ENDBRANCH   1   2
BRANCH   1  24
ATOM     24  O11 B68 d          31.577   1.260   4.258  0.00  0.00    -0.378 OA
ATOM     25  H11 B68 d          31.945   0.390   4.349  0.00  0.00     0.211 HD
ENDBRANCH   1  24
BRANCH   1  26
ATOM     26  C12 B68 d          29.626   2.656   4.640  0.00  0.00    -0.037 C 
ATOM     27  H12 B68 d          30.431   3.378   4.440  0.00  0.00     0.032 H 
ATOM     28  H13 B68 d          29.170   2.877   5.616  0.00  0.00     0.032 H 
ATOM     29  H14 B68 d          28.862   2.731   3.853  0.00  0.00     0.032 H 
ENDBRANCH   1  26
BRANCH   1  30
ATOM     30  C10 B68 d          30.100   0.644   6.061  0.00  0.00     0.258 C 
ATOM     31  O10 B68 d          30.522  -0.489   6.290  0.00  0.00    -0.270 OA
ATOM     32  N9  B68 d          29.561   1.457   6.968  0.00  0.00    -0.325 N 
ATOM     33  H15 B68 d          29.274   2.363   6.656  0.00  0.00     0.169 HD
BRANCH  32  34
ATOM     34  C6  B68 d          29.372   1.164   8.254  0.00  0.00     0.035 A 
ATOM     35  C5  B68 d          30.405   0.766   9.101  0.00  0.00    -0.040 A 
ATOM     36  C4  B68 d          30.212   0.509  10.459  0.00  0.00     0.083 A 
ATOM     37  H16 B68 d          31.400   0.651   8.688  0.00  0.00     0.088 H 
ATOM     38  C3  B68 d          28.922   0.673  10.977  0.00  0.00     0.118 A 
ATOM     39  C2  B68 d          27.882   1.054  10.134  0.00  0.00    -0.048 A 
ATOM     40  C1  B68 d          28.094   1.301   8.781  0.00  0.00    -0.055 A 
ATOM     41  H18 B68 d          26.883   1.161  10.540  0.00  0.00     0.087 H 
ATOM     42  H17 B68 d          27.269   1.598   8.144  0.00  0.00     0.087 H 
BRANCH  36  43
ATOM     43  C7  B68 d          31.415   0.036  11.297  0.00  0.00     0.419 C 
ATOM     44  F2  B68 d          31.397  -1.287  11.437  0.00  0.00    -0.166 F 
ATOM     45  F1  B68 d          32.586   0.379  10.768  0.00  0.00    -0.166 F 
ATOM     46  F3  B68 d          31.401   0.551  12.523  0.00  0.00    -0.166 F 
ENDBRANCH  36  43
BRANCH  38  47
ATOM     47  N8  B68 d          28.605   0.509  12.261  0.00  0.00    -0.115 N 
ATOM     48  O1  B68 d          27.715   1.369  12.958  0.00  0.00    -0.532 OA
ATOM     49  O2  B68 d          29.086  -0.632  12.958  0.00  0.00    -0.532 OA
ENDBRANCH  38  47
ENDBRANCH  32  34
ENDBRANCH   1  30
TORSDOF 11
ENDMDL
