MODEL 1
REMARK VINA RESULT:      -5.9      0.000      0.000
REMARK  8 active torsions:
REMARK  status: ('A' for Active; 'I' for Inactive)
REMARK    1  A    between atoms: CAF_6  and  OAA_1 
REMARK    2  A    between atoms: CAG_7  and  OAB_2 
REMARK    3  A    between atoms: CAJ_10  and  OAC_3 
REMARK    4  A    between atoms: CAK_11  and  OAD_4 
REMARK    5  A    between atoms: CAL_12  and  OAE_5 
REMARK    6  A    between atoms: CAH_8  and  CAF_6 
REMARK    7  A    between atoms: CAM_13  and  CAG_7 
REMARK    8  A    between atoms: NAN_14  and  CAH_8 
ROOT
ATOM      1  CAI MIG d          45.266  91.373  33.503  0.00  0.00     0.110 C 
ATOM      2  CAJ MIG d          46.404  92.386  33.238  0.00  0.00     0.086 C 
ATOM      3  CAK MIG d          47.230  92.626  34.508  0.00  0.00     0.088 C 
ATOM      4  CAL MIG d          46.287  93.120  35.623  0.00  0.00     0.092 C 
ATOM      5  CAM MIG d          45.126  92.123  35.843  0.00  0.00     0.151 C 
ATOM      6  NAN MIG d          44.418  91.946  34.536  0.00  0.00    -0.058 N 
ATOM      7  H12 MIG d          45.684  90.415  33.846  0.00  0.00     0.080 H 
ATOM      8  H13 MIG d          44.683  91.210  32.584  0.00  0.00     0.080 H 
ATOM      9  H14 MIG d          45.949  93.346  32.957  0.00  0.00     0.089 H 
ATOM     10  H15 MIG d          47.693  91.674  34.810  0.00  0.00     0.091 H 
ATOM     11  H16 MIG d          45.858  94.090  35.333  0.00  0.00     0.090 H 
ATOM     12  H17 MIG d          45.531  91.158  36.184  0.00  0.00     0.092 H 
ATOM     13  H18 MIG d          44.209  92.882  34.224  0.00  0.00     0.280 HD
ENDROOT
BRANCH   6  14
ATOM     14  CAH MIG d          43.105  91.268  34.626  0.00  0.00     0.103 C 
ATOM     15  H10 MIG d          42.648  91.519  35.594  0.00  0.00     0.079 H 
ATOM     16  H11 MIG d          42.465  91.638  33.812  0.00  0.00     0.079 H 
BRANCH  14  17
ATOM     17  CAF MIG d          43.203  89.745  34.513  0.00  0.00     0.039 C 
ATOM     18  H6  MIG d          42.253  89.327  34.148  0.00  0.00     0.076 H 
ATOM     19  H7  MIG d          44.016  89.463  33.828  0.00  0.00     0.076 H 
BRANCH  17  20
ATOM     20  OAA MIG d          43.479  89.273  35.829  0.00  0.00    -0.399 OA
ATOM     21  H1  MIG d          42.991  89.792  36.458  0.00  0.00     0.209 HD
ENDBRANCH  17  20
ENDBRANCH  14  17
ENDBRANCH   6  14
BRANCH   5  22
ATOM     22  CAG MIG d          44.124  92.646  36.878  0.00  0.00     0.046 C 
ATOM     23  H8  MIG d          43.265  91.961  36.938  0.00  0.00     0.077 H 
ATOM     24  H9  MIG d          44.610  92.712  37.862  0.00  0.00     0.077 H 
BRANCH  22  25
ATOM     25  OAB MIG d          43.669  93.964  36.469  0.00  0.00    -0.399 OA
ATOM     26  H2  MIG d          43.480  93.958  35.538  0.00  0.00     0.209 HD
ENDBRANCH  22  25
ENDBRANCH   5  22
BRANCH   2  27
ATOM     27  OAC MIG d          47.186  91.937  32.137  0.00  0.00    -0.391 OA
ATOM     28  H3  MIG d          48.085  92.224  32.250  0.00  0.00     0.210 HD
ENDBRANCH   2  27
BRANCH   4  29
ATOM     29  OAE MIG d          47.076  93.295  36.785  0.00  0.00    -0.391 OA
ATOM     30  H5  MIG d          47.066  92.494  37.296  0.00  0.00     0.210 HD
ENDBRANCH   4  29
BRANCH   3  31
ATOM     31  OAD MIG d          48.273  93.613  34.335  0.00  0.00    -0.390 OA
ATOM     32  H4  MIG d          47.952  94.464  34.611  0.00  0.00     0.210 HD
ENDBRANCH   3  31
TORSDOF 8
ENDMDL
MODEL 2
REMARK VINA RESULT:      -5.3      1.426      3.339
REMARK  8 active torsions:
REMARK  status: ('A' for Active; 'I' for Inactive)
REMARK    1  A    between atoms: CAF_6  and  OAA_1 
REMARK    2  A    between atoms: CAG_7  and  OAB_2 
REMARK    3  A    between atoms: CAJ_10  and  OAC_3 
REMARK    4  A    between atoms: CAK_11  and  OAD_4 
REMARK    5  A    between atoms: CAL_12  and  OAE_5 
REMARK    6  A    between atoms: CAH_8  and  CAF_6 
REMARK    7  A    between atoms: CAM_13  and  CAG_7 
REMARK    8  A    between atoms: NAN_14  and  CAH_8 
ROOT
ATOM      1  CAI MIG d          45.261  92.763  36.244  0.00  0.00     0.110 C 
ATOM      2  CAJ MIG d          46.789  92.726  36.015  0.00  0.00     0.086 C 
ATOM      3  CAK MIG d          47.130  92.984  34.542  0.00  0.00     0.088 C 
ATOM      4  CAL MIG d          46.408  91.930  33.679  0.00  0.00     0.092 C 
ATOM      5  CAM MIG d          44.887  91.942  33.954  0.00  0.00     0.151 C 
ATOM      6  NAN MIG d          44.682  91.714  35.419  0.00  0.00    -0.058 N 
ATOM      7  H12 MIG d          44.857  93.742  35.947  0.00  0.00     0.080 H 
ATOM      8  H13 MIG d          45.032  92.579  37.304  0.00  0.00     0.080 H 
ATOM      9  H14 MIG d          47.149  91.718  36.264  0.00  0.00     0.089 H 
ATOM     10  H15 MIG d          46.775  93.990  34.271  0.00  0.00     0.091 H 
ATOM     11  H16 MIG d          46.795  90.930  33.926  0.00  0.00     0.090 H 
ATOM     12  H17 MIG d          44.470  92.918  33.664  0.00  0.00     0.092 H 
ATOM     13  H18 MIG d          45.213  90.883  35.630  0.00  0.00     0.280 HD
ENDROOT
BRANCH   6  14
ATOM     14  CAH MIG d          43.292  91.393  35.812  0.00  0.00     0.103 C 
ATOM     15  H10 MIG d          42.769  90.979  34.937  0.00  0.00     0.079 H 
ATOM     16  H11 MIG d          43.319  90.641  36.613  0.00  0.00     0.079 H 
BRANCH  14  17
ATOM     17  CAF MIG d          42.510  92.610  36.314  0.00  0.00     0.039 C 
ATOM     18  H6  MIG d          41.706  92.293  36.995  0.00  0.00     0.076 H 
ATOM     19  H7  MIG d          43.182  93.306  36.838  0.00  0.00     0.076 H 
BRANCH  17  20
ATOM     20  OAA MIG d          41.962  93.228  35.154  0.00  0.00    -0.399 OA
ATOM     21  H1  MIG d          41.202  92.737  34.864  0.00  0.00     0.209 HD
ENDBRANCH  17  20
ENDBRANCH  14  17
ENDBRANCH   6  14
BRANCH   5  22
ATOM     22  CAG MIG d          44.166  90.834  33.179  0.00  0.00     0.046 C 
ATOM     23  H8  MIG d          43.354  90.421  33.796  0.00  0.00     0.077 H 
ATOM     24  H9  MIG d          43.747  91.245  32.249  0.00  0.00     0.077 H 
BRANCH  22  25
ATOM     25  OAB MIG d          45.119  89.784  32.861  0.00  0.00    -0.399 OA
ATOM     26  H2  MIG d          45.366  89.848  31.946  0.00  0.00     0.209 HD
ENDBRANCH  22  25
ENDBRANCH   5  22
BRANCH   2  27
ATOM     27  OAC MIG d          47.420  93.643  36.904  0.00  0.00    -0.391 OA
ATOM     28  H3  MIG d          47.294  93.351  37.800  0.00  0.00     0.210 HD
ENDBRANCH   2  27
BRANCH   4  29
ATOM     29  OAE MIG d          46.715  92.220  32.328  0.00  0.00    -0.391 OA
ATOM     30  H5  MIG d          46.140  92.908  32.015  0.00  0.00     0.210 HD
ENDBRANCH   4  29
BRANCH   3  31
ATOM     31  OAD MIG d          48.546  92.901  34.258  0.00  0.00    -0.390 OA
ATOM     32  H4  MIG d          48.922  93.774  34.266  0.00  0.00     0.210 HD
ENDBRANCH   3  31
TORSDOF 8
ENDMDL
MODEL 3
REMARK VINA RESULT:      -4.8      1.650      4.014
REMARK  8 active torsions:
REMARK  status: ('A' for Active; 'I' for Inactive)
REMARK    1  A    between atoms: CAF_6  and  OAA_1 
REMARK    2  A    between atoms: CAG_7  and  OAB_2 
REMARK    3  A    between atoms: CAJ_10  and  OAC_3 
REMARK    4  A    between atoms: CAK_11  and  OAD_4 
REMARK    5  A    between atoms: CAL_12  and  OAE_5 
REMARK    6  A    between atoms: CAH_8  and  CAF_6 
REMARK    7  A    between atoms: CAM_13  and  CAG_7 
REMARK    8  A    between atoms: NAN_14  and  CAH_8 
ROOT
ATOM      1  CAI MIG d          45.700  91.118  33.408  0.00  0.00     0.110 C 
ATOM      2  CAJ MIG d          44.730  89.932  33.609  0.00  0.00     0.086 C 
ATOM      3  CAK MIG d          43.427  90.395  34.273  0.00  0.00     0.088 C 
ATOM      4  CAL MIG d          43.772  91.071  35.615  0.00  0.00     0.092 C 
ATOM      5  CAM MIG d          44.782  92.223  35.406  0.00  0.00     0.151 C 
ATOM      6  NAN MIG d          45.990  91.658  34.726  0.00  0.00    -0.058 N 
ATOM      7  H12 MIG d          45.231  91.889  32.779  0.00  0.00     0.080 H 
ATOM      8  H13 MIG d          46.628  90.771  32.929  0.00  0.00     0.080 H 
ATOM      9  H14 MIG d          45.206  89.211  34.289  0.00  0.00     0.089 H 
ATOM     10  H15 MIG d          42.935  91.121  33.609  0.00  0.00     0.091 H 
ATOM     11  H16 MIG d          44.229  90.330  36.288  0.00  0.00     0.090 H 
ATOM     12  H17 MIG d          44.326  93.001  34.776  0.00  0.00     0.092 H 
ATOM     13  H18 MIG d          46.259  90.866  35.289  0.00  0.00     0.280 HD
ENDROOT
BRANCH   6  14
ATOM     14  CAH MIG d          47.175  92.546  34.722  0.00  0.00     0.103 C 
ATOM     15  H10 MIG d          47.104  93.227  35.583  0.00  0.00     0.079 H 
ATOM     16  H11 MIG d          48.077  91.925  34.819  0.00  0.00     0.079 H 
BRANCH  14  17
ATOM     17  CAF MIG d          47.297  93.384  33.447  0.00  0.00     0.039 C 
ATOM     18  H6  MIG d          48.344  93.676  33.280  0.00  0.00     0.076 H 
ATOM     19  H7  MIG d          46.932  92.815  32.579  0.00  0.00     0.076 H 
BRANCH  17  20
ATOM     20  OAA MIG d          46.488  94.537  33.659  0.00  0.00    -0.399 OA
ATOM     21  H1  MIG d          46.485  95.069  32.872  0.00  0.00     0.209 HD
ENDBRANCH  17  20
ENDBRANCH  14  17
ENDBRANCH   6  14
BRANCH   5  22
ATOM     22  CAG MIG d          45.214  92.841  36.740  0.00  0.00     0.046 C 
ATOM     23  H8  MIG d          45.656  92.064  37.381  0.00  0.00     0.077 H 
ATOM     24  H9  MIG d          45.956  93.632  36.558  0.00  0.00     0.077 H 
BRANCH  22  25
ATOM     25  OAB MIG d          44.048  93.410  37.396  0.00  0.00    -0.399 OA
ATOM     26  H2  MIG d          43.260  93.040  37.016  0.00  0.00     0.209 HD
ENDBRANCH  22  25
ENDBRANCH   5  22
BRANCH   2  27
ATOM     27  OAC MIG d          44.521  89.278  32.361  0.00  0.00    -0.391 OA
ATOM     28  H3  MIG d          45.292  89.383  31.817  0.00  0.00     0.210 HD
ENDBRANCH   2  27
BRANCH   4  29
ATOM     29  OAE MIG d          42.554  91.517  36.179  0.00  0.00    -0.391 OA
ATOM     30  H5  MIG d          42.737  92.066  36.933  0.00  0.00     0.210 HD
ENDBRANCH   4  29
BRANCH   3  31
ATOM     31  OAD MIG d          42.504  89.314  34.542  0.00  0.00    -0.390 OA
ATOM     32  H4  MIG d          42.245  89.340  35.456  0.00  0.00     0.210 HD
ENDBRANCH   3  31
TORSDOF 8
ENDMDL
MODEL 4
REMARK VINA RESULT:      -4.7      1.633      3.716
REMARK  8 active torsions:
REMARK  status: ('A' for Active; 'I' for Inactive)
REMARK    1  A    between atoms: CAF_6  and  OAA_1 
REMARK    2  A    between atoms: CAG_7  and  OAB_2 
REMARK    3  A    between atoms: CAJ_10  and  OAC_3 
REMARK    4  A    between atoms: CAK_11  and  OAD_4 
REMARK    5  A    between atoms: CAL_12  and  OAE_5 
REMARK    6  A    between atoms: CAH_8  and  CAF_6 
REMARK    7  A    between atoms: CAM_13  and  CAG_7 
REMARK    8  A    between atoms: NAN_14  and  CAH_8 
ROOT
ATOM      1  CAI MIG d          43.167  91.210  35.582  0.00  0.00     0.110 C 
ATOM      2  CAJ MIG d          43.395  90.490  34.232  0.00  0.00     0.086 C 
ATOM      3  CAK MIG d          44.892  90.297  33.959  0.00  0.00     0.088 C 
ATOM      4  CAL MIG d          45.578  91.678  33.982  0.00  0.00     0.092 C 
ATOM      5  CAM MIG d          45.301  92.407  35.316  0.00  0.00     0.151 C 
ATOM      6  NAN MIG d          43.817  92.507  35.487  0.00  0.00    -0.058 N 
ATOM      7  H12 MIG d          43.610  90.625  36.402  0.00  0.00     0.080 H 
ATOM      8  H13 MIG d          42.090  91.339  35.765  0.00  0.00     0.080 H 
ATOM      9  H14 MIG d          42.995  91.129  33.432  0.00  0.00     0.089 H 
ATOM     10  H15 MIG d          45.313  89.662  34.752  0.00  0.00     0.091 H 
ATOM     11  H16 MIG d          45.180  92.295  33.162  0.00  0.00     0.090 H 
ATOM     12  H17 MIG d          45.736  91.831  36.146  0.00  0.00     0.092 H 
ATOM     13  H18 MIG d          43.483  92.913  34.626  0.00  0.00     0.280 HD
ENDROOT
BRANCH   6  14
ATOM     14  CAH MIG d          43.373  93.437  36.549  0.00  0.00     0.103 C 
ATOM     15  H10 MIG d          42.863  92.856  37.331  0.00  0.00     0.079 H 
ATOM     16  H11 MIG d          44.259  93.928  36.978  0.00  0.00     0.079 H 
BRANCH  14  17
ATOM     17  CAF MIG d          42.416  94.519  36.044  0.00  0.00     0.039 C 
ATOM     18  H6  MIG d          41.628  94.711  36.788  0.00  0.00     0.076 H 
ATOM     19  H7  MIG d          42.964  95.451  35.840  0.00  0.00     0.076 H 
BRANCH  17  20
ATOM     20  OAA MIG d          41.847  94.007  34.842  0.00  0.00    -0.399 OA
ATOM     21  H1  MIG d          41.324  94.683  34.427  0.00  0.00     0.209 HD
ENDBRANCH  17  20
ENDBRANCH  14  17
ENDBRANCH   6  14
BRANCH   5  22
ATOM     22  CAG MIG d          45.891  93.822  35.317  0.00  0.00     0.046 C 
ATOM     23  H8  MIG d          45.944  94.200  34.285  0.00  0.00     0.077 H 
ATOM     24  H9  MIG d          45.255  94.487  35.919  0.00  0.00     0.077 H 
BRANCH  22  25
ATOM     25  OAB MIG d          47.226  93.776  35.889  0.00  0.00    -0.399 OA
ATOM     26  H2  MIG d          47.865  93.985  35.218  0.00  0.00     0.209 HD
ENDBRANCH  22  25
ENDBRANCH   5  22
BRANCH   2  27
ATOM     27  OAC MIG d          42.661  89.270  34.220  0.00  0.00    -0.391 OA
ATOM     28  H3  MIG d          41.732  89.461  34.176  0.00  0.00     0.210 HD
ENDBRANCH   2  27
BRANCH   4  29
ATOM     29  OAE MIG d          46.959  91.457  33.763  0.00  0.00    -0.391 OA
ATOM     30  H5  MIG d          47.234  90.683  34.240  0.00  0.00     0.210 HD
ENDBRANCH   4  29
BRANCH   3  31
ATOM     31  OAD MIG d          45.167  89.683  32.679  0.00  0.00    -0.390 OA
ATOM     32  H4  MIG d          44.351  89.555  32.208  0.00  0.00     0.210 HD
ENDBRANCH   3  31
TORSDOF 8
ENDMDL
MODEL 5
REMARK VINA RESULT:      -4.6      1.678      2.342
REMARK  8 active torsions:
REMARK  status: ('A' for Active; 'I' for Inactive)
REMARK    1  A    between atoms: CAF_6  and  OAA_1 
REMARK    2  A    between atoms: CAG_7  and  OAB_2 
REMARK    3  A    between atoms: CAJ_10  and  OAC_3 
REMARK    4  A    between atoms: CAK_11  and  OAD_4 
REMARK    5  A    between atoms: CAL_12  and  OAE_5 
REMARK    6  A    between atoms: CAH_8  and  CAF_6 
REMARK    7  A    between atoms: CAM_13  and  CAG_7 
REMARK    8  A    between atoms: NAN_14  and  CAH_8 
ROOT
ATOM      1  CAI MIG d          46.690  91.227  34.673  0.00  0.00     0.110 C 
ATOM      2  CAJ MIG d          46.791  92.768  34.611  0.00  0.00     0.086 C 
ATOM      3  CAK MIG d          46.176  93.410  35.861  0.00  0.00     0.088 C 
ATOM      4  CAL MIG d          44.709  92.948  35.978  0.00  0.00     0.092 C 
ATOM      5  CAM MIG d          44.618  91.405  35.989  0.00  0.00     0.151 C 
ATOM      6  NAN MIG d          45.276  90.896  34.744  0.00  0.00    -0.058 N 
ATOM      7  H12 MIG d          47.211  90.849  35.565  0.00  0.00     0.080 H 
ATOM      8  H13 MIG d          47.137  90.781  33.772  0.00  0.00     0.080 H 
ATOM      9  H14 MIG d          46.211  93.115  33.744  0.00  0.00     0.089 H 
ATOM     10  H15 MIG d          46.741  93.073  36.742  0.00  0.00     0.091 H 
ATOM     11  H16 MIG d          44.140  93.321  35.114  0.00  0.00     0.090 H 
ATOM     12  H17 MIG d          45.138  91.013  36.876  0.00  0.00     0.092 H 
ATOM     13  H18 MIG d          44.842  91.409  33.992  0.00  0.00     0.280 HD
ENDROOT
BRANCH   6  14
ATOM     14  CAH MIG d          45.016  89.471  34.440  0.00  0.00     0.103 C 
ATOM     15  H10 MIG d          45.974  88.983  34.208  0.00  0.00     0.079 H 
ATOM     16  H11 MIG d          44.569  89.000  35.327  0.00  0.00     0.079 H 
BRANCH  14  17
ATOM     17  CAF MIG d          44.069  89.270  33.254  0.00  0.00     0.039 C 
ATOM     18  H6  MIG d          43.600  88.276  33.303  0.00  0.00     0.076 H 
ATOM     19  H7  MIG d          43.288  90.045  33.253  0.00  0.00     0.076 H 
BRANCH  17  20
ATOM     20  OAA MIG d          44.877  89.380  32.086  0.00  0.00    -0.399 OA
ATOM     21  H1  MIG d          44.812  88.578  31.581  0.00  0.00     0.209 HD
ENDBRANCH  17  20
ENDBRANCH  14  17
ENDBRANCH   6  14
BRANCH   5  22
ATOM     22  CAG MIG d          43.162  90.928  36.004  0.00  0.00     0.046 C 
ATOM     23  H8  MIG d          43.107  89.897  35.622  0.00  0.00     0.077 H 
ATOM     24  H9  MIG d          42.774  90.958  37.033  0.00  0.00     0.077 H 
BRANCH  22  25
ATOM     25  OAB MIG d          42.369  91.804  35.159  0.00  0.00    -0.399 OA
ATOM     26  H2  MIG d          42.841  91.977  34.353  0.00  0.00     0.209 HD
ENDBRANCH  22  25
ENDBRANCH   5  22
BRANCH   2  27
ATOM     27  OAC MIG d          48.149  93.142  34.401  0.00  0.00    -0.391 OA
ATOM     28  H3  MIG d          48.320  93.970  34.834  0.00  0.00     0.210 HD
ENDBRANCH   2  27
BRANCH   4  29
ATOM     29  OAE MIG d          44.186  93.528  37.158  0.00  0.00    -0.391 OA
ATOM     30  H5  MIG d          44.839  94.101  37.544  0.00  0.00     0.210 HD
ENDBRANCH   4  29
BRANCH   3  31
ATOM     31  OAD MIG d          46.187  94.856  35.828  0.00  0.00    -0.390 OA
ATOM     32  H4  MIG d          47.029  95.172  36.137  0.00  0.00     0.210 HD
ENDBRANCH   3  31
TORSDOF 8
ENDMDL
MODEL 6
REMARK VINA RESULT:      -4.1      1.528      4.844
REMARK  8 active torsions:
REMARK  status: ('A' for Active; 'I' for Inactive)
REMARK    1  A    between atoms: CAF_6  and  OAA_1 
REMARK    2  A    between atoms: CAG_7  and  OAB_2 
REMARK    3  A    between atoms: CAJ_10  and  OAC_3 
REMARK    4  A    between atoms: CAK_11  and  OAD_4 
REMARK    5  A    between atoms: CAL_12  and  OAE_5 
REMARK    6  A    between atoms: CAH_8  and  CAF_6 
REMARK    7  A    between atoms: CAM_13  and  CAG_7 
REMARK    8  A    between atoms: NAN_14  and  CAH_8 
ROOT
ATOM      1  CAI MIG d          45.628  92.881  35.560  0.00  0.00     0.110 C 
ATOM      2  CAJ MIG d          44.250  92.868  36.261  0.00  0.00     0.086 C 
ATOM      3  CAK MIG d          43.634  91.463  36.234  0.00  0.00     0.088 C 
ATOM      4  CAL MIG d          43.521  91.004  34.766  0.00  0.00     0.092 C 
ATOM      5  CAM MIG d          44.896  91.070  34.062  0.00  0.00     0.151 C 
ATOM      6  NAN MIG d          45.408  92.472  34.182  0.00  0.00    -0.058 N 
ATOM      7  H12 MIG d          46.312  92.178  36.057  0.00  0.00     0.080 H 
ATOM      8  H13 MIG d          46.058  93.893  35.589  0.00  0.00     0.080 H 
ATOM      9  H14 MIG d          43.576  93.533  35.703  0.00  0.00     0.089 H 
ATOM     10  H15 MIG d          44.296  90.779  36.785  0.00  0.00     0.091 H 
ATOM     11  H16 MIG d          42.827  91.669  34.230  0.00  0.00     0.090 H 
ATOM     12  H17 MIG d          45.592  90.373  34.552  0.00  0.00     0.092 H 
ATOM     13  H18 MIG d          44.655  93.053  33.846  0.00  0.00     0.280 HD
ENDROOT
BRANCH   6  14
ATOM     14  CAH MIG d          46.560  92.791  33.310  0.00  0.00     0.103 C 
ATOM     15  H10 MIG d          47.004  91.848  32.959  0.00  0.00     0.079 H 
ATOM     16  H11 MIG d          46.197  93.368  32.447  0.00  0.00     0.079 H 
BRANCH  14  17
ATOM     17  CAF MIG d          47.645  93.606  34.017  0.00  0.00     0.039 C 
ATOM     18  H6  MIG d          48.126  94.298  33.310  0.00  0.00     0.076 H 
ATOM     19  H7  MIG d          47.212  94.177  34.852  0.00  0.00     0.076 H 
BRANCH  17  20
ATOM     20  OAA MIG d          48.591  92.659  34.503  0.00  0.00    -0.399 OA
ATOM     21  H1  MIG d          49.309  93.117  34.924  0.00  0.00     0.209 HD
ENDBRANCH  17  20
ENDBRANCH  14  17
ENDBRANCH   6  14
BRANCH   5  22
ATOM     22  CAG MIG d          44.785  90.713  32.576  0.00  0.00     0.046 C 
ATOM     23  H8  MIG d          43.887  91.187  32.150  0.00  0.00     0.077 H 
ATOM     24  H9  MIG d          45.677  91.072  32.042  0.00  0.00     0.077 H 
BRANCH  22  25
ATOM     25  OAB MIG d          44.685  89.270  32.443  0.00  0.00    -0.399 OA
ATOM     26  H2  MIG d          45.423  88.861  32.879  0.00  0.00     0.209 HD
ENDBRANCH  22  25
ENDBRANCH   5  22
BRANCH   2  27
ATOM     27  OAC MIG d          44.387  93.393  37.577  0.00  0.00    -0.391 OA
ATOM     28  H3  MIG d          43.726  93.010  38.141  0.00  0.00     0.210 HD
ENDBRANCH   2  27
BRANCH   4  29
ATOM     29  OAE MIG d          42.984  89.695  34.782  0.00  0.00    -0.391 OA
ATOM     30  H5  MIG d          42.035  89.743  34.776  0.00  0.00     0.210 HD
ENDBRANCH   4  29
BRANCH   3  31
ATOM     31  OAD MIG d          42.314  91.404  36.823  0.00  0.00    -0.390 OA
ATOM     32  H4  MIG d          42.021  92.284  37.031  0.00  0.00     0.210 HD
ENDBRANCH   3  31
TORSDOF 8
ENDMDL
MODEL 7
REMARK VINA RESULT:      -3.8      1.467      4.792
REMARK  8 active torsions:
REMARK  status: ('A' for Active; 'I' for Inactive)
REMARK    1  A    between atoms: CAF_6  and  OAA_1 
REMARK    2  A    between atoms: CAG_7  and  OAB_2 
REMARK    3  A    between atoms: CAJ_10  and  OAC_3 
REMARK    4  A    between atoms: CAK_11  and  OAD_4 
REMARK    5  A    between atoms: CAL_12  and  OAE_5 
REMARK    6  A    between atoms: CAH_8  and  CAF_6 
REMARK    7  A    between atoms: CAM_13  and  CAG_7 
REMARK    8  A    between atoms: NAN_14  and  CAH_8 
ROOT
ATOM      1  CAI MIG d          44.499  92.469  36.169  0.00  0.00     0.110 C 
ATOM      2  CAJ MIG d          43.302  91.616  35.688  0.00  0.00     0.086 C 
ATOM      3  CAK MIG d          43.774  90.461  34.796  0.00  0.00     0.088 C 
ATOM      4  CAL MIG d          44.559  91.049  33.605  0.00  0.00     0.092 C 
ATOM      5  CAM MIG d          45.722  91.940  34.100  0.00  0.00     0.151 C 
ATOM      6  NAN MIG d          45.145  93.003  34.981  0.00  0.00    -0.058 N 
ATOM      7  H12 MIG d          45.206  91.843  36.734  0.00  0.00     0.080 H 
ATOM      8  H13 MIG d          44.145  93.291  36.809  0.00  0.00     0.080 H 
ATOM      9  H14 MIG d          42.648  92.256  35.078  0.00  0.00     0.089 H 
ATOM     10  H15 MIG d          44.434  89.809  35.387  0.00  0.00     0.091 H 
ATOM     11  H16 MIG d          43.884  91.669  32.996  0.00  0.00     0.090 H 
ATOM     12  H17 MIG d          46.436  91.327  34.669  0.00  0.00     0.092 H 
ATOM     13  H18 MIG d          44.405  93.419  34.436  0.00  0.00     0.280 HD
ENDROOT
BRANCH   6  14
ATOM     14  CAH MIG d          46.065  94.119  35.295  0.00  0.00     0.103 C 
ATOM     15  H10 MIG d          46.121  94.783  34.420  0.00  0.00     0.079 H 
ATOM     16  H11 MIG d          45.659  94.676  36.152  0.00  0.00     0.079 H 
BRANCH  14  17
ATOM     17  CAF MIG d          47.481  93.654  35.645  0.00  0.00     0.039 C 
ATOM     18  H6  MIG d          47.803  92.858  34.957  0.00  0.00     0.076 H 
ATOM     19  H7  MIG d          48.185  94.497  35.587  0.00  0.00     0.076 H 
BRANCH  17  20
ATOM     20  OAA MIG d          47.411  93.158  36.978  0.00  0.00    -0.399 OA
ATOM     21  H1  MIG d          47.527  93.876  37.589  0.00  0.00     0.209 HD
ENDBRANCH  17  20
ENDBRANCH  14  17
ENDBRANCH   6  14
BRANCH   5  22
ATOM     22  CAG MIG d          46.451  92.612  32.931  0.00  0.00     0.046 C 
ATOM     23  H8  MIG d          45.738  93.218  32.352  0.00  0.00     0.077 H 
ATOM     24  H9  MIG d          47.251  93.259  33.319  0.00  0.00     0.077 H 
BRANCH  22  25
ATOM     25  OAB MIG d          47.024  91.585  32.079  0.00  0.00    -0.399 OA
ATOM     26  H2  MIG d          46.329  91.044  31.725  0.00  0.00     0.209 HD
ENDBRANCH  22  25
ENDBRANCH   5  22
BRANCH   2  27
ATOM     27  OAC MIG d          42.551  91.181  36.817  0.00  0.00    -0.391 OA
ATOM     28  H3  MIG d          41.954  91.869  37.084  0.00  0.00     0.210 HD
ENDBRANCH   2  27
BRANCH   4  29
ATOM     29  OAE MIG d          45.008  89.956  32.826  0.00  0.00    -0.391 OA
ATOM     30  H5  MIG d          45.641  89.452  33.325  0.00  0.00     0.210 HD
ENDBRANCH   4  29
BRANCH   3  31
ATOM     31  OAD MIG d          42.689  89.665  34.266  0.00  0.00    -0.390 OA
ATOM     32  H4  MIG d          42.715  89.688  33.316  0.00  0.00     0.210 HD
ENDBRANCH   3  31
TORSDOF 8
ENDMDL
MODEL 8
REMARK VINA RESULT:      -3.3      1.230      4.111
REMARK  8 active torsions:
REMARK  status: ('A' for Active; 'I' for Inactive)
REMARK    1  A    between atoms: CAF_6  and  OAA_1 
REMARK    2  A    between atoms: CAG_7  and  OAB_2 
REMARK    3  A    between atoms: CAJ_10  and  OAC_3 
REMARK    4  A    between atoms: CAK_11  and  OAD_4 
REMARK    5  A    between atoms: CAL_12  and  OAE_5 
REMARK    6  A    between atoms: CAH_8  and  CAF_6 
REMARK    7  A    between atoms: CAM_13  and  CAG_7 
REMARK    8  A    between atoms: NAN_14  and  CAH_8 
ROOT
ATOM      1  CAI MIG d          45.182  90.800  34.358  0.00  0.00     0.110 C 
ATOM      2  CAJ MIG d          44.136  90.393  35.422  0.00  0.00     0.086 C 
ATOM      3  CAK MIG d          43.331  91.612  35.894  0.00  0.00     0.088 C 
ATOM      4  CAL MIG d          44.312  92.666  36.444  0.00  0.00     0.092 C 
ATOM      5  CAM MIG d          45.382  93.026  35.388  0.00  0.00     0.151 C 
ATOM      6  NAN MIG d          46.074  91.761  34.984  0.00  0.00    -0.058 N 
ATOM      7  H12 MIG d          44.681  91.257  33.492  0.00  0.00     0.080 H 
ATOM      8  H13 MIG d          45.749  89.917  34.029  0.00  0.00     0.080 H 
ATOM      9  H14 MIG d          44.673  89.997  36.296  0.00  0.00     0.089 H 
ATOM     10  H15 MIG d          42.788  92.027  35.032  0.00  0.00     0.091 H 
ATOM     11  H16 MIG d          44.824  92.259  37.329  0.00  0.00     0.090 H 
ATOM     12  H17 MIG d          44.895  93.483  34.514  0.00  0.00     0.092 H 
ATOM     13  H18 MIG d          46.364  91.335  35.851  0.00  0.00     0.280 HD
ENDROOT
BRANCH   6  14
ATOM     14  CAH MIG d          47.323  91.953  34.214  0.00  0.00     0.103 C 
ATOM     15  H10 MIG d          48.131  92.208  34.915  0.00  0.00     0.079 H 
ATOM     16  H11 MIG d          47.567  91.011  33.702  0.00  0.00     0.079 H 
BRANCH  14  17
ATOM     17  CAF MIG d          47.221  93.064  33.165  0.00  0.00     0.039 C 
ATOM     18  H6  MIG d          46.412  93.762  33.424  0.00  0.00     0.076 H 
ATOM     19  H7  MIG d          48.172  93.613  33.096  0.00  0.00     0.076 H 
BRANCH  17  20
ATOM     20  OAA MIG d          46.936  92.410  31.932  0.00  0.00    -0.399 OA
ATOM     21  H1  MIG d          47.675  92.512  31.343  0.00  0.00     0.209 HD
ENDBRANCH  17  20
ENDBRANCH  14  17
ENDBRANCH   6  14
BRANCH   5  22
ATOM     22  CAG MIG d          46.425  93.998  35.952  0.00  0.00     0.046 C 
ATOM     23  H8  MIG d          47.065  94.366  35.136  0.00  0.00     0.077 H 
ATOM     24  H9  MIG d          45.917  94.847  36.431  0.00  0.00     0.077 H 
BRANCH  22  25
ATOM     25  OAB MIG d          47.238  93.300  36.933  0.00  0.00    -0.399 OA
ATOM     26  H2  MIG d          47.909  92.797  36.487  0.00  0.00     0.209 HD
ENDBRANCH  22  25
ENDBRANCH   5  22
BRANCH   2  27
ATOM     27  OAC MIG d          43.319  89.349  34.904  0.00  0.00    -0.391 OA
ATOM     28  H3  MIG d          42.435  89.673  34.777  0.00  0.00     0.210 HD
ENDBRANCH   2  27
BRANCH   4  29
ATOM     29  OAE MIG d          43.540  93.786  36.834  0.00  0.00    -0.391 OA
ATOM     30  H5  MIG d          42.631  93.639  36.600  0.00  0.00     0.210 HD
ENDBRANCH   4  29
BRANCH   3  31
ATOM     31  OAD MIG d          42.378  91.301  36.936  0.00  0.00    -0.390 OA
ATOM     32  H4  MIG d          41.553  91.040  36.543  0.00  0.00     0.210 HD
ENDBRANCH   3  31
TORSDOF 8
ENDMDL
MODEL 9
REMARK VINA RESULT:      -3.2      1.739      3.787
REMARK  8 active torsions:
REMARK  status: ('A' for Active; 'I' for Inactive)
REMARK    1  A    between atoms: CAF_6  and  OAA_1 
REMARK    2  A    between atoms: CAG_7  and  OAB_2 
REMARK    3  A    between atoms: CAJ_10  and  OAC_3 
REMARK    4  A    between atoms: CAK_11  and  OAD_4 
REMARK    5  A    between atoms: CAL_12  and  OAE_5 
REMARK    6  A    between atoms: CAH_8  and  CAF_6 
REMARK    7  A    between atoms: CAM_13  and  CAG_7 
REMARK    8  A    between atoms: NAN_14  and  CAH_8 
ROOT
ATOM      1  CAI MIG d          43.556  90.883  35.429  0.00  0.00     0.110 C 
ATOM      2  CAJ MIG d          43.463  91.912  36.579  0.00  0.00     0.086 C 
ATOM      3  CAK MIG d          43.897  93.305  36.105  0.00  0.00     0.088 C 
ATOM      4  CAL MIG d          45.334  93.210  35.553  0.00  0.00     0.092 C 
ATOM      5  CAM MIG d          45.424  92.142  34.439  0.00  0.00     0.151 C 
ATOM      6  NAN MIG d          44.947  90.842  35.008  0.00  0.00    -0.058 N 
ATOM      7  H12 MIG d          42.916  91.193  34.591  0.00  0.00     0.080 H 
ATOM      8  H13 MIG d          43.240  89.890  35.783  0.00  0.00     0.080 H 
ATOM      9  H14 MIG d          44.158  91.604  37.373  0.00  0.00     0.089 H 
ATOM     10  H15 MIG d          43.215  93.632  35.307  0.00  0.00     0.091 H 
ATOM     11  H16 MIG d          46.017  92.920  36.365  0.00  0.00     0.090 H 
ATOM     12  H17 MIG d          44.786  92.439  33.594  0.00  0.00     0.092 H 
ATOM     13  H18 MIG d          45.481  90.716  35.854  0.00  0.00     0.280 HD
ENDROOT
BRANCH   6  14
ATOM     14  CAH MIG d          45.249  89.652  34.181  0.00  0.00     0.103 C 
ATOM     15  H10 MIG d          46.149  89.860  33.585  0.00  0.00     0.079 H 
ATOM     16  H11 MIG d          45.442  88.801  34.851  0.00  0.00     0.079 H 
BRANCH  14  17
ATOM     17  CAF MIG d          44.112  89.273  33.230  0.00  0.00     0.039 C 
ATOM     18  H6  MIG d          43.728  88.271  33.472  0.00  0.00     0.076 H 
ATOM     19  H7  MIG d          43.295  90.007  33.299  0.00  0.00     0.076 H 
BRANCH  17  20
ATOM     20  OAA MIG d          44.677  89.283  31.922  0.00  0.00    -0.399 OA
ATOM     21  H1  MIG d          44.780  90.182  31.630  0.00  0.00     0.209 HD
ENDBRANCH  17  20
ENDBRANCH  14  17
ENDBRANCH   6  14
BRANCH   5  22
ATOM     22  CAG MIG d          46.865  91.963  33.948  0.00  0.00     0.046 C 
ATOM     23  H8  MIG d          47.560  92.418  34.669  0.00  0.00     0.077 H 
ATOM     24  H9  MIG d          47.091  90.891  33.847  0.00  0.00     0.077 H 
BRANCH  22  25
ATOM     25  OAB MIG d          47.008  92.614  32.657  0.00  0.00    -0.399 OA
ATOM     26  H2  MIG d          47.923  92.818  32.505  0.00  0.00     0.209 HD
ENDBRANCH  22  25
ENDBRANCH   5  22
BRANCH   2  27
ATOM     27  OAC MIG d          42.147  91.891  37.123  0.00  0.00    -0.391 OA
ATOM     28  H3  MIG d          42.035  91.109  37.650  0.00  0.00     0.210 HD
ENDBRANCH   2  27
BRANCH   4  29
ATOM     29  OAE MIG d          45.686  94.501  35.093  0.00  0.00    -0.391 OA
ATOM     30  H5  MIG d          44.953  95.092  35.220  0.00  0.00     0.210 HD
ENDBRANCH   4  29
BRANCH   3  31
ATOM     31  OAD MIG d          43.888  94.297  37.158  0.00  0.00    -0.390 OA
ATOM     32  H4  MIG d          44.747  94.700  37.219  0.00  0.00     0.210 HD
ENDBRANCH   3  31
TORSDOF 8
ENDMDL
