MODEL 1
REMARK VINA RESULT:      -8.9      0.000      0.000
REMARK  8 active torsions:
REMARK  status: ('A' for Active; 'I' for Inactive)
REMARK    1  A    between atoms: O6_1  and  C6_2 
REMARK    2  A    between atoms: C6_2  and  C5_3 
REMARK    3  A    between atoms: C4_4  and  O4_5 
REMARK    4  A    between atoms: C3_6  and  O3_7 
REMARK    5  A    between atoms: C2_8  and  O2_9 
REMARK    6  A    between atoms: C7_12  and  C9_15 
REMARK    7  A    between atoms: C9_15  and  C10_16 
REMARK    8  A    between atoms: C10_16  and  C14_17 
ROOT
ATOM      1  C5  PGI d          -2.369  10.419   8.656  0.00  0.00     0.065 C 
ATOM      2  C4  PGI d          -1.139  10.581   7.746  0.00  0.00     0.085 C 
ATOM      3  C3  PGI d          -0.212  11.647   8.364  0.00  0.00     0.093 C 
ATOM      4  C2  PGI d           0.379  11.179   9.687  0.00  0.00     0.119 C 
ATOM      5  N1  PGI d          -1.822   9.979   9.966  0.00  0.00    -0.332 N 
ATOM      6  C8  PGI d          -2.380   9.136  10.851  0.00  0.00     0.005 A 
ATOM      7  C7  PGI d          -1.465   8.991  11.882  0.00  0.00     0.052 A 
ATOM      8  N2  PGI d          -0.392   9.734  11.581  0.00  0.00    -0.235 NA
ATOM      9  C1  PGI d          -0.612  10.339  10.414  0.00  0.00     0.138 A 
ATOM     10  H4  PGI d          -2.860  11.397   8.775  0.00  0.00     0.080 H 
ATOM     11  H5  PGI d          -0.602   9.622   7.700  0.00  0.00     0.090 H 
ATOM     12  H7  PGI d          -0.822  12.545   8.542  0.00  0.00     0.091 H 
ATOM     13  H9  PGI d           1.248  10.542   9.469  0.00  0.00     0.099 H 
ATOM     14  H11 PGI d          -3.357   8.660  10.773  0.00  0.00     0.114 H 
ENDROOT
BRANCH   7  15
ATOM     15  C9  PGI d          -1.625   8.175  13.144  0.00  0.00    -0.020 C 
ATOM     16  H12 PGI d          -2.024   7.183  12.888  0.00  0.00     0.042 H 
ATOM     17  H13 PGI d          -2.322   8.686  13.824  0.00  0.00     0.042 H 
BRANCH  15  18
ATOM     18  C10 PGI d          -0.268   8.015  13.834  0.00  0.00    -0.036 C 
ATOM     19  H14 PGI d          -0.426   8.127  14.917  0.00  0.00     0.040 H 
ATOM     20  H15 PGI d           0.390   8.819  13.475  0.00  0.00     0.040 H 
BRANCH  18  21
ATOM     21  C14 PGI d           0.448   6.684  13.601  0.00  0.00    -0.058 A 
ATOM     22  C13 PGI d           1.119   6.434  12.391  0.00  0.00    -0.077 A 
ATOM     23  C12 PGI d           1.798   5.223  12.168  0.00  0.00    -0.082 A 
ATOM     24  H16 PGI d           1.112   7.190  11.614  0.00  0.00     0.084 H 
ATOM     25  C11 PGI d           1.837   4.239  13.162  0.00  0.00    -0.083 A 
ATOM     26  H17 PGI d           2.295   5.050  11.219  0.00  0.00     0.083 H 
ATOM     27  C16 PGI d           1.169   4.491  14.368  0.00  0.00    -0.082 A 
ATOM     28  H20 PGI d           2.368   3.308  13.004  0.00  0.00     0.083 H 
ATOM     29  C15 PGI d           0.487   5.699  14.596  0.00  0.00    -0.077 A 
ATOM     30  H19 PGI d           1.179   3.735  15.145  0.00  0.00     0.083 H 
ATOM     31  H18 PGI d          -0.010   5.869  15.544  0.00  0.00     0.084 H 
ENDBRANCH  18  21
ENDBRANCH  15  18
ENDBRANCH   7  15
BRANCH   1  32
ATOM     32  C6  PGI d          -3.407   9.442   8.115  0.00  0.00     0.038 C 
ATOM     33  H2  PGI d          -4.366   9.642   8.613  0.00  0.00     0.077 H 
ATOM     34  H3  PGI d          -3.513   9.611   7.032  0.00  0.00     0.077 H 
BRANCH  32  35
ATOM     35  O6  PGI d          -3.063   8.065   8.328  0.00  0.00    -0.399 OA
ATOM     36  H1  PGI d          -2.119   7.967   8.292  0.00  0.00     0.209 HD
ENDBRANCH  32  35
ENDBRANCH   1  32
BRANCH   4  37
ATOM     37  O2  PGI d           0.851  12.303  10.415  0.00  0.00    -0.385 OA
ATOM     38  H10 PGI d           0.413  12.340  11.258  0.00  0.00     0.210 HD
ENDBRANCH   4  37
BRANCH   2  39
ATOM     39  O4  PGI d          -1.520  10.950   6.415  0.00  0.00    -0.391 OA
ATOM     40  H6  PGI d          -1.572  11.897   6.352  0.00  0.00     0.210 HD
ENDBRANCH   2  39
BRANCH   3  41
ATOM     41  O3  PGI d           0.904  12.013   7.554  0.00  0.00    -0.390 OA
ATOM     42  H8  PGI d           1.301  11.230   7.190  0.00  0.00     0.210 HD
ENDBRANCH   3  41
TORSDOF 8
ENDMDL
MODEL 2
REMARK VINA RESULT:      -6.6      1.339      1.846
REMARK  8 active torsions:
REMARK  status: ('A' for Active; 'I' for Inactive)
REMARK    1  A    between atoms: O6_1  and  C6_2 
REMARK    2  A    between atoms: C6_2  and  C5_3 
REMARK    3  A    between atoms: C4_4  and  O4_5 
REMARK    4  A    between atoms: C3_6  and  O3_7 
REMARK    5  A    between atoms: C2_8  and  O2_9 
REMARK    6  A    between atoms: C7_12  and  C9_15 
REMARK    7  A    between atoms: C9_15  and  C10_16 
REMARK    8  A    between atoms: C10_16  and  C14_17 
ROOT
ATOM      1  C5  PGI d          -2.385  10.516   8.555  0.00  0.00     0.065 C 
ATOM      2  C4  PGI d          -1.109  10.642   7.706  0.00  0.00     0.085 C 
ATOM      3  C3  PGI d          -0.174  11.666   8.381  0.00  0.00     0.093 C 
ATOM      4  C2  PGI d           0.335  11.164   9.724  0.00  0.00     0.119 C 
ATOM      5  N1  PGI d          -1.918  10.042   9.884  0.00  0.00    -0.332 N 
ATOM      6  C8  PGI d          -2.547   9.210  10.730  0.00  0.00     0.005 A 
ATOM      7  C7  PGI d          -1.688   9.022  11.802  0.00  0.00     0.052 A 
ATOM      8  N2  PGI d          -0.576   9.728  11.562  0.00  0.00    -0.235 NA
ATOM      9  C1  PGI d          -0.718  10.353  10.393  0.00  0.00     0.138 A 
ATOM     10  H4  PGI d          -2.846  11.509   8.662  0.00  0.00     0.080 H 
ATOM     11  H5  PGI d          -0.604   9.664   7.674  0.00  0.00     0.090 H 
ATOM     12  H7  PGI d          -0.759  12.584   8.540  0.00  0.00     0.091 H 
ATOM     13  H9  PGI d           1.191  10.498   9.540  0.00  0.00     0.099 H 
ATOM     14  H11 PGI d          -3.536   8.772  10.601  0.00  0.00     0.114 H 
ENDROOT
BRANCH   7  15
ATOM     15  C9  PGI d          -1.938   8.199  13.045  0.00  0.00    -0.020 C 
ATOM     16  H12 PGI d          -2.948   7.768  13.000  0.00  0.00     0.042 H 
ATOM     17  H13 PGI d          -1.853   8.843  13.933  0.00  0.00     0.042 H 
BRANCH  15  18
ATOM     18  C10 PGI d          -0.907   7.071  13.137  0.00  0.00    -0.036 C 
ATOM     19  H14 PGI d          -1.426   6.170  13.499  0.00  0.00     0.040 H 
ATOM     20  H15 PGI d          -0.142   7.372  13.867  0.00  0.00     0.040 H 
BRANCH  18  21
ATOM     21  C14 PGI d          -0.194   6.709  11.833  0.00  0.00    -0.058 A 
ATOM     22  C13 PGI d          -0.889   6.080  10.787  0.00  0.00    -0.077 A 
ATOM     23  C12 PGI d          -0.252   5.758   9.574  0.00  0.00    -0.082 A 
ATOM     24  H16 PGI d          -1.938   5.838  10.916  0.00  0.00     0.084 H 
ATOM     25  C11 PGI d           1.096   6.077   9.377  0.00  0.00    -0.083 A 
ATOM     26  H17 PGI d          -0.809   5.259   8.789  0.00  0.00     0.083 H 
ATOM     27  C16 PGI d           1.787   6.706  10.421  0.00  0.00    -0.082 A 
ATOM     28  H20 PGI d           1.591   5.845   8.442  0.00  0.00     0.083 H 
ATOM     29  C15 PGI d           1.156   7.029  11.635  0.00  0.00    -0.077 A 
ATOM     30  H19 PGI d           2.835   6.950  10.289  0.00  0.00     0.083 H 
ATOM     31  H18 PGI d           1.714   7.526  12.420  0.00  0.00     0.084 H 
ENDBRANCH  18  21
ENDBRANCH  15  18
ENDBRANCH   7  15
BRANCH   1  32
ATOM     32  C6  PGI d          -3.430   9.582   7.953  0.00  0.00     0.038 C 
ATOM     33  H2  PGI d          -4.301  10.183   7.652  0.00  0.00     0.077 H 
ATOM     34  H3  PGI d          -2.995   9.097   7.066  0.00  0.00     0.077 H 
BRANCH  32  35
ATOM     35  O6  PGI d          -3.874   8.560   8.857  0.00  0.00    -0.399 OA
ATOM     36  H1  PGI d          -4.023   8.941   9.715  0.00  0.00     0.209 HD
ENDBRANCH  32  35
ENDBRANCH   1  32
BRANCH   4  37
ATOM     37  O2  PGI d           0.813  12.262  10.488  0.00  0.00    -0.385 OA
ATOM     38  H10 PGI d           1.690  12.488  10.202  0.00  0.00     0.210 HD
ENDBRANCH   4  37
BRANCH   2  39
ATOM     39  O4  PGI d          -1.412  11.038   6.363  0.00  0.00    -0.391 OA
ATOM     40  H6  PGI d          -0.651  10.896   5.812  0.00  0.00     0.210 HD
ENDBRANCH   2  39
BRANCH   3  41
ATOM     41  O3  PGI d           0.992  12.001   7.629  0.00  0.00    -0.390 OA
ATOM     42  H8  PGI d           0.744  12.535   6.883  0.00  0.00     0.210 HD
ENDBRANCH   3  41
TORSDOF 8
ENDMDL
MODEL 3
REMARK VINA RESULT:      -6.6      3.168      6.474
REMARK  8 active torsions:
REMARK  status: ('A' for Active; 'I' for Inactive)
REMARK    1  A    between atoms: O6_1  and  C6_2 
REMARK    2  A    between atoms: C6_2  and  C5_3 
REMARK    3  A    between atoms: C4_4  and  O4_5 
REMARK    4  A    between atoms: C3_6  and  O3_7 
REMARK    5  A    between atoms: C2_8  and  O2_9 
REMARK    6  A    between atoms: C7_12  and  C9_15 
REMARK    7  A    between atoms: C9_15  and  C10_16 
REMARK    8  A    between atoms: C10_16  and  C14_17 
ROOT
ATOM      1  C5  PGI d           1.005   6.181  11.013  0.00  0.00     0.065 C 
ATOM      2  C4  PGI d           0.787   5.626  12.431  0.00  0.00     0.085 C 
ATOM      3  C3  PGI d           0.670   6.815  13.406  0.00  0.00     0.093 C 
ATOM      4  C2  PGI d          -0.584   7.637  13.144  0.00  0.00     0.119 C 
ATOM      5  N1  PGI d          -0.199   7.006  10.733  0.00  0.00    -0.332 N 
ATOM      6  C8  PGI d          -0.824   7.178   9.557  0.00  0.00     0.005 A 
ATOM      7  C7  PGI d          -1.926   7.979   9.815  0.00  0.00     0.052 A 
ATOM      8  N2  PGI d          -1.935   8.249  11.126  0.00  0.00    -0.235 NA
ATOM      9  C1  PGI d          -0.880   7.658  11.685  0.00  0.00     0.138 A 
ATOM     10  H4  PGI d           1.898   6.824  11.012  0.00  0.00     0.080 H 
ATOM     11  H5  PGI d          -0.154   5.055  12.449  0.00  0.00     0.090 H 
ATOM     12  H7  PGI d           1.554   7.451  13.251  0.00  0.00     0.091 H 
ATOM     13  H9  PGI d          -1.430   7.141  13.641  0.00  0.00     0.099 H 
ATOM     14  H11 PGI d          -0.525   6.770   8.592  0.00  0.00     0.114 H 
ENDROOT
BRANCH   7  15
ATOM     15  C9  PGI d          -2.939   8.497   8.819  0.00  0.00    -0.020 C 
ATOM     16  H12 PGI d          -3.937   8.119   9.084  0.00  0.00     0.042 H 
ATOM     17  H13 PGI d          -2.671   8.149   7.811  0.00  0.00     0.042 H 
BRANCH  15  18
ATOM     18  C10 PGI d          -2.953  10.027   8.841  0.00  0.00    -0.036 C 
ATOM     19  H14 PGI d          -3.474  10.346   9.756  0.00  0.00     0.040 H 
ATOM     20  H15 PGI d          -3.517  10.371   7.960  0.00  0.00     0.040 H 
BRANCH  18  21
ATOM     21  C14 PGI d          -1.585  10.709   8.817  0.00  0.00    -0.058 A 
ATOM     22  C13 PGI d          -0.910  11.001  10.014  0.00  0.00    -0.077 A 
ATOM     23  C12 PGI d           0.359  11.612  10.008  0.00  0.00    -0.082 A 
ATOM     24  H16 PGI d          -1.374  10.752  10.961  0.00  0.00     0.084 H 
ATOM     25  C11 PGI d           0.987  11.926   8.799  0.00  0.00    -0.083 A 
ATOM     26  H17 PGI d           0.851  11.839  10.947  0.00  0.00     0.083 H 
ATOM     27  C16 PGI d           0.312  11.633   7.606  0.00  0.00    -0.082 A 
ATOM     28  H20 PGI d           1.969  12.385   8.784  0.00  0.00     0.083 H 
ATOM     29  C15 PGI d          -0.955  11.025   7.606  0.00  0.00    -0.077 A 
ATOM     30  H19 PGI d           0.780  11.881   6.660  0.00  0.00     0.083 H 
ATOM     31  H18 PGI d          -1.447  10.799   6.666  0.00  0.00     0.084 H 
ENDBRANCH  18  21
ENDBRANCH  15  18
ENDBRANCH   7  15
BRANCH   1  32
ATOM     32  C6  PGI d           1.212   5.099   9.958  0.00  0.00     0.038 C 
ATOM     33  H2  PGI d           0.331   4.440   9.959  0.00  0.00     0.077 H 
ATOM     34  H3  PGI d           1.307   5.584   8.975  0.00  0.00     0.077 H 
BRANCH  32  35
ATOM     35  O6  PGI d           2.379   4.295  10.183  0.00  0.00    -0.399 OA
ATOM     36  H1  PGI d           2.918   4.701  10.852  0.00  0.00     0.209 HD
ENDBRANCH  32  35
ENDBRANCH   1  32
BRANCH   4  37
ATOM     37  O2  PGI d          -0.440   8.919  13.738  0.00  0.00    -0.385 OA
ATOM     38  H10 PGI d          -1.263   9.177  14.136  0.00  0.00     0.210 HD
ENDBRANCH   4  37
BRANCH   2  39
ATOM     39  O4  PGI d           1.854   4.753  12.820  0.00  0.00    -0.391 OA
ATOM     40  H6  PGI d           1.542   3.855  12.823  0.00  0.00     0.210 HD
ENDBRANCH   2  39
BRANCH   3  41
ATOM     41  O3  PGI d           0.611   6.455  14.786  0.00  0.00    -0.390 OA
ATOM     42  H8  PGI d           0.288   7.192  15.291  0.00  0.00     0.210 HD
ENDBRANCH   3  41
TORSDOF 8
ENDMDL
MODEL 4
REMARK VINA RESULT:      -6.3      3.298      6.766
REMARK  8 active torsions:
REMARK  status: ('A' for Active; 'I' for Inactive)
REMARK    1  A    between atoms: O6_1  and  C6_2 
REMARK    2  A    between atoms: C6_2  and  C5_3 
REMARK    3  A    between atoms: C4_4  and  O4_5 
REMARK    4  A    between atoms: C3_6  and  O3_7 
REMARK    5  A    between atoms: C2_8  and  O2_9 
REMARK    6  A    between atoms: C7_12  and  C9_15 
REMARK    7  A    between atoms: C9_15  and  C10_16 
REMARK    8  A    between atoms: C10_16  and  C14_17 
ROOT
ATOM      1  C5  PGI d           0.114   5.414  13.113  0.00  0.00     0.065 C 
ATOM      2  C4  PGI d           1.541   5.213  12.577  0.00  0.00     0.085 C 
ATOM      3  C3  PGI d           1.452   4.515  11.204  0.00  0.00     0.093 C 
ATOM      4  C2  PGI d           0.797   5.408  10.160  0.00  0.00     0.119 C 
ATOM      5  N1  PGI d          -0.560   6.271  12.103  0.00  0.00    -0.332 N 
ATOM      6  C8  PGI d          -1.487   7.220  12.314  0.00  0.00     0.005 A 
ATOM      7  C7  PGI d          -1.759   7.781  11.076  0.00  0.00     0.052 A 
ATOM      8  N2  PGI d          -0.986   7.167  10.171  0.00  0.00    -0.235 NA
ATOM      9  C1  PGI d          -0.257   6.243  10.798  0.00  0.00     0.138 A 
ATOM     10  H4  PGI d          -0.393   4.438  13.161  0.00  0.00     0.080 H 
ATOM     11  H5  PGI d           2.015   6.198  12.447  0.00  0.00     0.090 H 
ATOM     12  H7  PGI d           0.838   3.612  11.338  0.00  0.00     0.091 H 
ATOM     13  H9  PGI d           1.562   6.094   9.767  0.00  0.00     0.099 H 
ATOM     14  H11 PGI d          -1.935   7.495  13.268  0.00  0.00     0.114 H 
ENDROOT
BRANCH   7  15
ATOM     15  C9  PGI d          -2.760   8.869  10.760  0.00  0.00    -0.020 C 
ATOM     16  H12 PGI d          -2.633   9.698  11.472  0.00  0.00     0.042 H 
ATOM     17  H13 PGI d          -3.779   8.465  10.846  0.00  0.00     0.042 H 
BRANCH  15  18
ATOM     18  C10 PGI d          -2.536   9.384   9.336  0.00  0.00    -0.036 C 
ATOM     19  H14 PGI d          -3.443   9.925   9.028  0.00  0.00     0.040 H 
ATOM     20  H15 PGI d          -2.389   8.511   8.682  0.00  0.00     0.040 H 
BRANCH  18  21
ATOM     21  C14 PGI d          -1.343  10.320   9.143  0.00  0.00    -0.058 A 
ATOM     22  C13 PGI d          -1.026  10.824   7.870  0.00  0.00    -0.077 A 
ATOM     23  C12 PGI d           0.057  11.702   7.679  0.00  0.00    -0.082 A 
ATOM     24  H16 PGI d          -1.629  10.532   7.018  0.00  0.00     0.084 H 
ATOM     25  C11 PGI d           0.838  12.109   8.766  0.00  0.00    -0.083 A 
ATOM     26  H17 PGI d           0.288  12.065   6.684  0.00  0.00     0.083 H 
ATOM     27  C16 PGI d           0.520  11.607  10.035  0.00  0.00    -0.082 A 
ATOM     28  H20 PGI d           1.666  12.795   8.631  0.00  0.00     0.083 H 
ATOM     29  C15 PGI d          -0.561  10.728  10.232  0.00  0.00    -0.077 A 
ATOM     30  H19 PGI d           1.122  11.903  10.887  0.00  0.00     0.083 H 
ATOM     31  H18 PGI d          -0.789  10.366  11.227  0.00  0.00     0.084 H 
ENDBRANCH  18  21
ENDBRANCH  15  18
ENDBRANCH   7  15
BRANCH   1  32
ATOM     32  C6  PGI d           0.065   6.031  14.507  0.00  0.00     0.038 C 
ATOM     33  H2  PGI d          -0.876   6.592  14.607  0.00  0.00     0.077 H 
ATOM     34  H3  PGI d           0.089   5.219  15.249  0.00  0.00     0.077 H 
BRANCH  32  35
ATOM     35  O6  PGI d           1.156   6.924  14.776  0.00  0.00    -0.399 OA
ATOM     36  H1  PGI d           1.579   6.669  15.589  0.00  0.00     0.209 HD
ENDBRANCH  32  35
ENDBRANCH   1  32
BRANCH   4  37
ATOM     37  O2  PGI d           0.347   4.612   9.074  0.00  0.00    -0.385 OA
ATOM     38  H10 PGI d           1.038   4.016   8.812  0.00  0.00     0.210 HD
ENDBRANCH   4  37
BRANCH   2  39
ATOM     39  O4  PGI d           2.337   4.444  13.487  0.00  0.00    -0.391 OA
ATOM     40  H6  PGI d           2.472   4.941  14.286  0.00  0.00     0.210 HD
ENDBRANCH   2  39
BRANCH   3  41
ATOM     41  O3  PGI d           2.707   4.128  10.646  0.00  0.00    -0.390 OA
ATOM     42  H8  PGI d           3.328   4.841  10.740  0.00  0.00     0.210 HD
ENDBRANCH   3  41
TORSDOF 8
ENDMDL
MODEL 5
REMARK VINA RESULT:      -6.0      3.067      6.527
REMARK  8 active torsions:
REMARK  status: ('A' for Active; 'I' for Inactive)
REMARK    1  A    between atoms: O6_1  and  C6_2 
REMARK    2  A    between atoms: C6_2  and  C5_3 
REMARK    3  A    between atoms: C4_4  and  O4_5 
REMARK    4  A    between atoms: C3_6  and  O3_7 
REMARK    5  A    between atoms: C2_8  and  O2_9 
REMARK    6  A    between atoms: C7_12  and  C9_15 
REMARK    7  A    between atoms: C9_15  and  C10_16 
REMARK    8  A    between atoms: C10_16  and  C14_17 
ROOT
ATOM      1  C5  PGI d          -1.102   7.044  13.237  0.00  0.00     0.065 C 
ATOM      2  C4  PGI d           0.424   6.965  13.408  0.00  0.00     0.085 C 
ATOM      3  C3  PGI d           0.946   5.775  12.577  0.00  0.00     0.093 C 
ATOM      4  C2  PGI d           0.763   6.007  11.084  0.00  0.00     0.119 C 
ATOM      5  N1  PGI d          -1.316   7.254  11.781  0.00  0.00    -0.332 N 
ATOM      6  C8  PGI d          -2.278   7.978  11.185  0.00  0.00     0.005 A 
ATOM      7  C7  PGI d          -2.022   7.921   9.824  0.00  0.00     0.052 A 
ATOM      8  N2  PGI d          -0.919   7.183   9.647  0.00  0.00    -0.235 NA
ATOM      9  C1  PGI d          -0.491   6.773  10.842  0.00  0.00     0.138 A 
ATOM     10  H4  PGI d          -1.548   6.084  13.538  0.00  0.00     0.080 H 
ATOM     11  H5  PGI d           0.874   7.893  13.025  0.00  0.00     0.090 H 
ATOM     12  H7  PGI d           0.365   4.890  12.876  0.00  0.00     0.091 H 
ATOM     13  H9  PGI d           1.597   6.628  10.727  0.00  0.00     0.099 H 
ATOM     14  H11 PGI d          -3.096   8.506  11.674  0.00  0.00     0.114 H 
ENDROOT
BRANCH   7  15
ATOM     15  C9  PGI d          -2.833   8.542   8.710  0.00  0.00    -0.020 C 
ATOM     16  H12 PGI d          -3.862   8.156   8.749  0.00  0.00     0.042 H 
ATOM     17  H13 PGI d          -2.381   8.284   7.741  0.00  0.00     0.042 H 
BRANCH  15  18
ATOM     18  C10 PGI d          -2.855  10.064   8.870  0.00  0.00    -0.036 C 
ATOM     19  H14 PGI d          -3.349  10.295   9.825  0.00  0.00     0.040 H 
ATOM     20  H15 PGI d          -3.446  10.482   8.041  0.00  0.00     0.040 H 
BRANCH  18  21
ATOM     21  C14 PGI d          -1.491  10.756   8.868  0.00  0.00    -0.058 A 
ATOM     22  C13 PGI d          -0.806  10.992  10.071  0.00  0.00    -0.077 A 
ATOM     23  C12 PGI d           0.458  11.611  10.085  0.00  0.00    -0.082 A 
ATOM     24  H16 PGI d          -1.259  10.691  11.009  0.00  0.00     0.084 H 
ATOM     25  C11 PGI d           1.072  11.991   8.887  0.00  0.00    -0.083 A 
ATOM     26  H17 PGI d           0.958  11.795  11.029  0.00  0.00     0.083 H 
ATOM     27  C16 PGI d           0.388  11.754   7.687  0.00  0.00    -0.082 A 
ATOM     28  H20 PGI d           2.051  12.457   8.886  0.00  0.00     0.083 H 
ATOM     29  C15 PGI d          -0.876  11.137   7.668  0.00  0.00    -0.077 A 
ATOM     30  H19 PGI d           0.844  12.053   6.750  0.00  0.00     0.083 H 
ATOM     31  H18 PGI d          -1.375  10.956   6.723  0.00  0.00     0.084 H 
ENDBRANCH  18  21
ENDBRANCH  15  18
ENDBRANCH   7  15
BRANCH   1  32
ATOM     32  C6  PGI d          -1.755   8.141  14.072  0.00  0.00     0.038 C 
ATOM     33  H2  PGI d          -2.778   8.299  13.700  0.00  0.00     0.077 H 
ATOM     34  H3  PGI d          -1.792   7.805  15.119  0.00  0.00     0.077 H 
BRANCH  32  35
ATOM     35  O6  PGI d          -1.056   9.393  14.021  0.00  0.00    -0.399 OA
ATOM     36  H1  PGI d          -1.651  10.075  13.732  0.00  0.00     0.209 HD
ENDBRANCH  32  35
ENDBRANCH   1  32
BRANCH   4  37
ATOM     37  O2  PGI d           0.840   4.765  10.401  0.00  0.00    -0.385 OA
ATOM     38  H10 PGI d           1.491   4.823   9.712  0.00  0.00     0.210 HD
ENDBRANCH   4  37
BRANCH   2  39
ATOM     39  O4  PGI d           0.789   6.821  14.785  0.00  0.00    -0.391 OA
ATOM     40  H6  PGI d           1.501   7.416  14.988  0.00  0.00     0.210 HD
ENDBRANCH   2  39
BRANCH   3  41
ATOM     41  O3  PGI d           2.332   5.483  12.752  0.00  0.00    -0.390 OA
ATOM     42  H8  PGI d           2.436   4.857  13.460  0.00  0.00     0.210 HD
ENDBRANCH   3  41
TORSDOF 8
ENDMDL
