MODEL 1
REMARK VINA RESULT:      -7.9      0.000      0.000
REMARK  4 active torsions:
REMARK  status: ('A' for Active; 'I' for Inactive)
REMARK    1  A    between atoms: CA_2  and  N_1 
REMARK    2  A    between atoms: CA_2  and  CB_5 
REMARK    3  A    between atoms: CA_2  and  C_3 
REMARK    4  A    between atoms: CB_5  and  CG_6 
ROOT
ATOM      1  CG  TRP d         -27.505  -4.756 -21.877  0.00  0.00    -0.028 A 
ATOM      2  CD1 TRP d         -28.086  -5.679 -22.706  0.00  0.00    -0.015 A 
ATOM      3  CD2 TRP d         -28.333  -3.586 -21.937  0.00  0.00    -0.002 A 
ATOM      4  NE1 TRP d         -29.225  -5.160 -23.269  0.00  0.00    -0.365 N 
ATOM      5  CE2 TRP d         -29.409  -3.881 -22.814  0.00  0.00     0.042 A 
ATOM      6  CE3 TRP d         -28.281  -2.328 -21.322  0.00  0.00    -0.070 A 
ATOM      7  CZ2 TRP d         -30.418  -2.961 -23.107  0.00  0.00    -0.056 A 
ATOM      8  CZ3 TRP d         -29.287  -1.405 -21.612  0.00  0.00    -0.082 A 
ATOM      9  CH2 TRP d         -30.351  -1.735 -22.499  0.00  0.00    -0.081 A 
ATOM     10  H7  TRP d         -27.700  -6.680 -22.890  0.00  0.00     0.112 H 
ATOM     11  H8  TRP d         -29.843  -5.653 -23.930  0.00  0.00     0.165 HD
ATOM     12  H9  TRP d         -27.479  -2.077 -20.637  0.00  0.00     0.084 H 
ATOM     13  H10 TRP d         -31.223  -3.207 -23.790  0.00  0.00     0.086 H 
ATOM     14  H11 TRP d         -29.258  -0.422 -21.155  0.00  0.00     0.083 H 
ATOM     15  H12 TRP d         -31.124  -1.001 -22.697  0.00  0.00     0.083 H 
ENDROOT
BRANCH   1  16
ATOM     16  CB  TRP d         -26.276  -4.942 -21.058  0.00  0.00    -0.003 C 
ATOM     17  H5  TRP d         -26.067  -6.020 -21.000  0.00  0.00     0.044 H 
ATOM     18  H6  TRP d         -25.446  -4.434 -21.570  0.00  0.00     0.044 H 
BRANCH  16  19
ATOM     19  CA  TRP d         -26.354  -4.395 -19.622  0.00  0.00     0.186 C 
ATOM     20  H4  TRP d         -27.232  -3.738 -19.535  0.00  0.00     0.101 H 
BRANCH  19  21
ATOM     21  N   TRP d         -25.166  -3.611 -19.327  0.00  0.00    -0.065 N 
ATOM     22  H1  TRP d         -25.267  -3.176 -18.424  0.00  0.00     0.275 HD
ATOM     23  H2  TRP d         -25.049  -2.900 -20.032  0.00  0.00     0.275 HD
ATOM     24  H3  TRP d         -24.359  -4.214 -19.320  0.00  0.00     0.275 HD
ENDBRANCH  19  21
BRANCH  19  25
ATOM     25  C   TRP d         -26.533  -5.577 -18.661  0.00  0.00     0.204 C 
ATOM     26  O   TRP d         -27.564  -6.242 -18.634  0.00  0.00    -0.646 OA
ATOM     27  OXT TRP d         -25.636  -5.916 -17.889  0.00  0.00    -0.646 OA
ENDBRANCH  19  25
ENDBRANCH  16  19
ENDBRANCH   1  16
TORSDOF 4
ENDMDL
MODEL 2
REMARK VINA RESULT:      -7.8      1.606      1.910
REMARK  4 active torsions:
REMARK  status: ('A' for Active; 'I' for Inactive)
REMARK    1  A    between atoms: CA_2  and  N_1 
REMARK    2  A    between atoms: CA_2  and  CB_5 
REMARK    3  A    between atoms: CA_2  and  C_3 
REMARK    4  A    between atoms: CB_5  and  CG_6 
ROOT
ATOM      1  CG  TRP d         -27.380  -4.433 -21.247  0.00  0.00    -0.028 A 
ATOM      2  CD1 TRP d         -26.223  -4.211 -21.947  0.00  0.00    -0.015 A 
ATOM      3  CD2 TRP d         -28.361  -3.546 -21.802  0.00  0.00    -0.002 A 
ATOM      4  NE1 TRP d         -26.426  -3.249 -22.905  0.00  0.00    -0.365 N 
ATOM      5  CE2 TRP d         -27.727  -2.825 -22.847  0.00  0.00     0.042 A 
ATOM      6  CE3 TRP d         -29.714  -3.304 -21.530  0.00  0.00    -0.070 A 
ATOM      7  CZ2 TRP d         -28.393  -1.865 -23.613  0.00  0.00    -0.056 A 
ATOM      8  CZ3 TRP d         -30.383  -2.345 -22.293  0.00  0.00    -0.082 A 
ATOM      9  CH2 TRP d         -29.715  -1.638 -23.334  0.00  0.00    -0.081 A 
ATOM     10  H7  TRP d         -25.279  -4.724 -21.769  0.00  0.00     0.112 H 
ATOM     11  H8  TRP d         -25.713  -2.901 -23.563  0.00  0.00     0.165 HD
ATOM     12  H9  TRP d         -30.229  -3.847 -20.746  0.00  0.00     0.084 H 
ATOM     13  H10 TRP d         -27.882  -1.320 -24.399  0.00  0.00     0.086 H 
ATOM     14  H11 TRP d         -31.427  -2.135 -22.090  0.00  0.00     0.083 H 
ATOM     15  H12 TRP d         -30.263  -0.908 -23.917  0.00  0.00     0.083 H 
ENDROOT
BRANCH   1  16
ATOM     16  CB  TRP d         -27.582  -5.419 -20.151  0.00  0.00    -0.003 C 
ATOM     17  H5  TRP d         -28.637  -5.730 -20.164  0.00  0.00     0.044 H 
ATOM     18  H6  TRP d         -26.941  -6.290 -20.354  0.00  0.00     0.044 H 
BRANCH  16  19
ATOM     19  CA  TRP d         -27.255  -4.907 -18.738  0.00  0.00     0.186 C 
ATOM     20  H4  TRP d         -27.961  -5.354 -18.021  0.00  0.00     0.101 H 
BRANCH  19  21
ATOM     21  N   TRP d         -27.408  -3.462 -18.688  0.00  0.00    -0.065 N 
ATOM     22  H1  TRP d         -28.384  -3.225 -18.772  0.00  0.00     0.275 HD
ATOM     23  H2  TRP d         -26.894  -3.043 -19.447  0.00  0.00     0.275 HD
ATOM     24  H3  TRP d         -27.053  -3.117 -17.810  0.00  0.00     0.275 HD
ENDBRANCH  19  21
BRANCH  19  25
ATOM     25  C   TRP d         -25.837  -5.362 -18.372  0.00  0.00     0.204 C 
ATOM     26  O   TRP d         -24.845  -4.912 -18.936  0.00  0.00    -0.646 OA
ATOM     27  OXT TRP d         -25.639  -6.185 -17.478  0.00  0.00    -0.646 OA
ENDBRANCH  19  25
ENDBRANCH  16  19
ENDBRANCH   1  16
TORSDOF 4
ENDMDL
MODEL 3
REMARK VINA RESULT:      -6.5      2.678      4.866
REMARK  4 active torsions:
REMARK  status: ('A' for Active; 'I' for Inactive)
REMARK    1  A    between atoms: CA_2  and  N_1 
REMARK    2  A    between atoms: CA_2  and  CB_5 
REMARK    3  A    between atoms: CA_2  and  C_3 
REMARK    4  A    between atoms: CB_5  and  CG_6 
ROOT
ATOM      1  CG  TRP d         -27.623  -4.155 -22.524  0.00  0.00    -0.028 A 
ATOM      2  CD1 TRP d         -26.380  -3.616 -22.730  0.00  0.00    -0.015 A 
ATOM      3  CD2 TRP d         -27.563  -4.830 -21.260  0.00  0.00    -0.002 A 
ATOM      4  NE1 TRP d         -25.556  -3.907 -21.670  0.00  0.00    -0.365 N 
ATOM      5  CE2 TRP d         -26.252  -4.644 -20.749  0.00  0.00     0.042 A 
ATOM      6  CE3 TRP d         -28.493  -5.555 -20.503  0.00  0.00    -0.070 A 
ATOM      7  CZ2 TRP d         -25.838  -5.170 -19.523  0.00  0.00    -0.056 A 
ATOM      8  CZ3 TRP d         -28.083  -6.083 -19.277  0.00  0.00    -0.082 A 
ATOM      9  CH2 TRP d         -26.758  -5.878 -18.796  0.00  0.00    -0.081 A 
ATOM     10  H7  TRP d         -26.088  -3.040 -23.606  0.00  0.00     0.112 H 
ATOM     11  H8  TRP d         -24.571  -3.617 -21.582  0.00  0.00     0.165 HD
ATOM     12  H9  TRP d         -29.505  -5.703 -20.860  0.00  0.00     0.084 H 
ATOM     13  H10 TRP d         -24.827  -5.023 -19.161  0.00  0.00     0.086 H 
ATOM     14  H11 TRP d         -28.785  -6.657 -18.682  0.00  0.00     0.083 H 
ATOM     15  H12 TRP d         -26.472  -6.290 -17.836  0.00  0.00     0.083 H 
ENDROOT
BRANCH   1  16
ATOM     16  CB  TRP d         -28.804  -4.037 -23.422  0.00  0.00    -0.003 C 
ATOM     17  H5  TRP d         -28.494  -4.338 -24.433  0.00  0.00     0.044 H 
ATOM     18  H6  TRP d         -29.579  -4.727 -23.056  0.00  0.00     0.044 H 
BRANCH  16  19
ATOM     19  CA  TRP d         -29.423  -2.632 -23.513  0.00  0.00     0.186 C 
ATOM     20  H4  TRP d         -30.363  -2.689 -24.082  0.00  0.00     0.101 H 
BRANCH  19  21
ATOM     21  N   TRP d         -28.518  -1.737 -24.216  0.00  0.00    -0.065 N 
ATOM     22  H1  TRP d         -28.704  -0.787 -23.939  0.00  0.00     0.275 HD
ATOM     23  H2  TRP d         -28.658  -1.831 -25.210  0.00  0.00     0.275 HD
ATOM     24  H3  TRP d         -27.566  -1.974 -23.986  0.00  0.00     0.275 HD
ENDBRANCH  19  21
BRANCH  19  25
ATOM     25  C   TRP d         -29.743  -2.149 -22.093  0.00  0.00     0.204 C 
ATOM     26  O   TRP d         -30.754  -2.506 -21.497  0.00  0.00    -0.646 OA
ATOM     27  OXT TRP d         -28.981  -1.395 -21.486  0.00  0.00    -0.646 OA
ENDBRANCH  19  25
ENDBRANCH  16  19
ENDBRANCH   1  16
TORSDOF 4
ENDMDL
MODEL 4
REMARK VINA RESULT:      -6.3      1.468      2.718
REMARK  4 active torsions:
REMARK  status: ('A' for Active; 'I' for Inactive)
REMARK    1  A    between atoms: CA_2  and  N_1 
REMARK    2  A    between atoms: CA_2  and  CB_5 
REMARK    3  A    between atoms: CA_2  and  C_3 
REMARK    4  A    between atoms: CB_5  and  CG_6 
ROOT
ATOM      1  CG  TRP d         -28.251  -3.379 -20.466  0.00  0.00    -0.028 A 
ATOM      2  CD1 TRP d         -28.422  -2.120 -20.980  0.00  0.00    -0.015 A 
ATOM      3  CD2 TRP d         -28.393  -4.285 -21.568  0.00  0.00    -0.002 A 
ATOM      4  NE1 TRP d         -28.654  -2.188 -22.332  0.00  0.00    -0.365 N 
ATOM      5  CE2 TRP d         -28.636  -3.500 -22.725  0.00  0.00     0.042 A 
ATOM      6  CE3 TRP d         -28.321  -5.679 -21.694  0.00  0.00    -0.070 A 
ATOM      7  CZ2 TRP d         -28.824  -4.060 -23.991  0.00  0.00    -0.056 A 
ATOM      8  CZ3 TRP d         -28.508  -6.242 -22.957  0.00  0.00    -0.082 A 
ATOM      9  CH2 TRP d         -28.752  -5.424 -24.097  0.00  0.00    -0.081 A 
ATOM     10  H7  TRP d         -28.381  -1.200 -20.401  0.00  0.00     0.112 H 
ATOM     11  H8  TRP d         -28.816  -1.381 -22.951  0.00  0.00     0.165 HD
ATOM     12  H9  TRP d         -28.124  -6.305 -20.831  0.00  0.00     0.084 H 
ATOM     13  H10 TRP d         -29.020  -3.438 -24.857  0.00  0.00     0.086 H 
ATOM     14  H11 TRP d         -28.468  -7.320 -23.072  0.00  0.00     0.083 H 
ATOM     15  H12 TRP d         -28.883  -5.889 -25.067  0.00  0.00     0.083 H 
ENDROOT
BRANCH   1  16
ATOM     16  CB  TRP d         -27.949  -3.729 -19.051  0.00  0.00    -0.003 C 
ATOM     17  H5  TRP d         -28.312  -2.910 -18.414  0.00  0.00     0.044 H 
ATOM     18  H6  TRP d         -28.493  -4.653 -18.806  0.00  0.00     0.044 H 
BRANCH  16  19
ATOM     19  CA  TRP d         -26.461  -3.956 -18.734  0.00  0.00     0.186 C 
ATOM     20  H4  TRP d         -26.215  -3.454 -17.786  0.00  0.00     0.101 H 
BRANCH  19  21
ATOM     21  N   TRP d         -25.638  -3.377 -19.783  0.00  0.00    -0.065 N 
ATOM     22  H1  TRP d         -25.074  -4.099 -20.204  0.00  0.00     0.275 HD
ATOM     23  H2  TRP d         -25.037  -2.670 -19.387  0.00  0.00     0.275 HD
ATOM     24  H3  TRP d         -26.230  -2.962 -20.484  0.00  0.00     0.275 HD
ENDBRANCH  19  21
BRANCH  19  25
ATOM     25  C   TRP d         -26.224  -5.461 -18.563  0.00  0.00     0.204 C 
ATOM     26  O   TRP d         -25.097  -5.947 -18.564  0.00  0.00    -0.646 OA
ATOM     27  OXT TRP d         -27.162  -6.242 -18.396  0.00  0.00    -0.646 OA
ENDBRANCH  19  25
ENDBRANCH  16  19
ENDBRANCH   1  16
TORSDOF 4
ENDMDL
