MODEL 1
REMARK VINA RESULT:      -6.0      0.000      0.000
REMARK  8 active torsions:
REMARK  status: ('A' for Active; 'I' for Inactive)
REMARK    1  A    between atoms: CAF_6  and  OAA_1 
REMARK    2  A    between atoms: CAG_7  and  OAB_2 
REMARK    3  A    between atoms: CAJ_10  and  OAC_3 
REMARK    4  A    between atoms: CAK_11  and  OAD_4 
REMARK    5  A    between atoms: CAL_12  and  OAE_5 
REMARK    6  A    between atoms: CAH_8  and  CAF_6 
REMARK    7  A    between atoms: CAM_13  and  CAG_7 
REMARK    8  A    between atoms: NAN_14  and  CAH_8 
ROOT
ATOM      1  CAI MIG d          45.234  91.417  33.511  0.00  0.00     0.110 C 
ATOM      2  CAJ MIG d          46.379  92.422  33.244  0.00  0.00     0.086 C 
ATOM      3  CAK MIG d          47.205  92.661  34.514  0.00  0.00     0.088 C 
ATOM      4  CAL MIG d          46.264  93.166  35.625  0.00  0.00     0.092 C 
ATOM      5  CAM MIG d          45.097  92.176  35.847  0.00  0.00     0.151 C 
ATOM      6  NAN MIG d          44.389  91.999  34.540  0.00  0.00    -0.058 N 
ATOM      7  H12 MIG d          45.647  90.458  33.858  0.00  0.00     0.080 H 
ATOM      8  H13 MIG d          44.652  91.253  32.592  0.00  0.00     0.080 H 
ATOM      9  H14 MIG d          45.930  93.384  32.958  0.00  0.00     0.089 H 
ATOM     10  H15 MIG d          47.662  91.708  34.819  0.00  0.00     0.091 H 
ATOM     11  H16 MIG d          45.841  94.138  35.331  0.00  0.00     0.090 H 
ATOM     12  H17 MIG d          45.495  91.211  36.193  0.00  0.00     0.092 H 
ATOM     13  H18 MIG d          44.186  92.935  34.225  0.00  0.00     0.280 HD
ENDROOT
BRANCH   6  14
ATOM     14  CAH MIG d          43.072  91.329  34.631  0.00  0.00     0.103 C 
ATOM     15  H10 MIG d          42.603  91.609  35.586  0.00  0.00     0.079 H 
ATOM     16  H11 MIG d          42.444  91.679  33.799  0.00  0.00     0.079 H 
BRANCH  14  17
ATOM     17  CAF MIG d          43.164  89.803  34.562  0.00  0.00     0.039 C 
ATOM     18  H6  MIG d          43.903  89.498  33.806  0.00  0.00     0.076 H 
ATOM     19  H7  MIG d          43.450  89.393  35.542  0.00  0.00     0.076 H 
BRANCH  17  20
ATOM     20  OAA MIG d          41.864  89.350  34.196  0.00  0.00    -0.399 OA
ATOM     21  H1  MIG d          41.263  90.085  34.191  0.00  0.00     0.209 HD
ENDBRANCH  17  20
ENDBRANCH  14  17
ENDBRANCH   6  14
BRANCH   5  22
ATOM     22  CAG MIG d          44.096  92.710  36.879  0.00  0.00     0.046 C 
ATOM     23  H8  MIG d          43.247  92.015  36.962  0.00  0.00     0.077 H 
ATOM     24  H9  MIG d          44.589  92.804  37.857  0.00  0.00     0.077 H 
BRANCH  22  25
ATOM     25  OAB MIG d          43.621  94.012  36.445  0.00  0.00    -0.399 OA
ATOM     26  H2  MIG d          43.026  94.364  37.097  0.00  0.00     0.209 HD
ENDBRANCH  22  25
ENDBRANCH   5  22
BRANCH   2  27
ATOM     27  OAC MIG d          47.160  91.964  32.145  0.00  0.00    -0.391 OA
ATOM     28  H3  MIG d          46.969  91.048  31.982  0.00  0.00     0.210 HD
ENDBRANCH   2  27
BRANCH   4  29
ATOM     29  OAE MIG d          47.052  93.340  36.788  0.00  0.00    -0.391 OA
ATOM     30  H5  MIG d          46.824  94.164  37.203  0.00  0.00     0.210 HD
ENDBRANCH   4  29
BRANCH   3  31
ATOM     31  OAD MIG d          48.255  93.642  34.338  0.00  0.00    -0.390 OA
ATOM     32  H4  MIG d          49.058  93.203  34.082  0.00  0.00     0.210 HD
ENDBRANCH   3  31
TORSDOF 8
ENDMDL
MODEL 2
REMARK VINA RESULT:      -5.3      1.443      3.316
REMARK  8 active torsions:
REMARK  status: ('A' for Active; 'I' for Inactive)
REMARK    1  A    between atoms: CAF_6  and  OAA_1 
REMARK    2  A    between atoms: CAG_7  and  OAB_2 
REMARK    3  A    between atoms: CAJ_10  and  OAC_3 
REMARK    4  A    between atoms: CAK_11  and  OAD_4 
REMARK    5  A    between atoms: CAL_12  and  OAE_5 
REMARK    6  A    between atoms: CAH_8  and  CAF_6 
REMARK    7  A    between atoms: CAM_13  and  CAG_7 
REMARK    8  A    between atoms: NAN_14  and  CAH_8 
ROOT
ATOM      1  CAI MIG d          45.260  92.772  36.244  0.00  0.00     0.110 C 
ATOM      2  CAJ MIG d          46.789  92.732  36.018  0.00  0.00     0.086 C 
ATOM      3  CAK MIG d          47.132  92.982  34.543  0.00  0.00     0.088 C 
ATOM      4  CAL MIG d          46.409  91.926  33.684  0.00  0.00     0.092 C 
ATOM      5  CAM MIG d          44.887  91.942  33.957  0.00  0.00     0.151 C 
ATOM      6  NAN MIG d          44.680  91.721  35.423  0.00  0.00    -0.058 N 
ATOM      7  H12 MIG d          44.858  93.751  35.942  0.00  0.00     0.080 H 
ATOM      8  H13 MIG d          45.030  92.593  37.305  0.00  0.00     0.080 H 
ATOM      9  H14 MIG d          47.146  91.724  36.271  0.00  0.00     0.089 H 
ATOM     10  H15 MIG d          46.779  93.987  34.268  0.00  0.00     0.091 H 
ATOM     11  H16 MIG d          46.794  90.926  33.937  0.00  0.00     0.090 H 
ATOM     12  H17 MIG d          44.473  92.918  33.662  0.00  0.00     0.092 H 
ATOM     13  H18 MIG d          45.209  90.890  35.638  0.00  0.00     0.280 HD
ENDROOT
BRANCH   6  14
ATOM     14  CAH MIG d          43.289  91.405  35.815  0.00  0.00     0.103 C 
ATOM     15  H10 MIG d          42.765  90.993  34.940  0.00  0.00     0.079 H 
ATOM     16  H11 MIG d          43.314  90.651  36.615  0.00  0.00     0.079 H 
BRANCH  14  17
ATOM     17  CAF MIG d          42.511  92.623  36.319  0.00  0.00     0.039 C 
ATOM     18  H6  MIG d          41.705  92.308  36.998  0.00  0.00     0.076 H 
ATOM     19  H7  MIG d          43.185  93.315  36.846  0.00  0.00     0.076 H 
BRANCH  17  20
ATOM     20  OAA MIG d          41.968  93.247  35.159  0.00  0.00    -0.399 OA
ATOM     21  H1  MIG d          41.936  92.617  34.449  0.00  0.00     0.209 HD
ENDBRANCH  17  20
ENDBRANCH  14  17
ENDBRANCH   6  14
BRANCH   5  22
ATOM     22  CAG MIG d          44.166  90.831  33.187  0.00  0.00     0.046 C 
ATOM     23  H8  MIG d          43.361  90.414  33.809  0.00  0.00     0.077 H 
ATOM     24  H9  MIG d          43.737  91.243  32.261  0.00  0.00     0.077 H 
BRANCH  22  25
ATOM     25  OAB MIG d          45.121  89.787  32.859  0.00  0.00    -0.399 OA
ATOM     26  H2  MIG d          45.802  89.763  33.521  0.00  0.00     0.209 HD
ENDBRANCH  22  25
ENDBRANCH   5  22
BRANCH   2  27
ATOM     27  OAC MIG d          47.420  93.651  36.903  0.00  0.00    -0.391 OA
ATOM     28  H3  MIG d          46.808  93.904  37.584  0.00  0.00     0.210 HD
ENDBRANCH   2  27
BRANCH   4  29
ATOM     29  OAE MIG d          46.719  92.210  32.333  0.00  0.00    -0.391 OA
ATOM     30  H5  MIG d          45.919  92.210  31.819  0.00  0.00     0.210 HD
ENDBRANCH   4  29
BRANCH   3  31
ATOM     31  OAD MIG d          48.548  92.895  34.261  0.00  0.00    -0.390 OA
ATOM     32  H4  MIG d          48.876  93.755  34.024  0.00  0.00     0.210 HD
ENDBRANCH   3  31
TORSDOF 8
ENDMDL
MODEL 3
REMARK VINA RESULT:      -5.1      1.497      1.759
REMARK  8 active torsions:
REMARK  status: ('A' for Active; 'I' for Inactive)
REMARK    1  A    between atoms: CAF_6  and  OAA_1 
REMARK    2  A    between atoms: CAG_7  and  OAB_2 
REMARK    3  A    between atoms: CAJ_10  and  OAC_3 
REMARK    4  A    between atoms: CAK_11  and  OAD_4 
REMARK    5  A    between atoms: CAL_12  and  OAE_5 
REMARK    6  A    between atoms: CAH_8  and  CAF_6 
REMARK    7  A    between atoms: CAM_13  and  CAG_7 
REMARK    8  A    between atoms: NAN_14  and  CAH_8 
ROOT
ATOM      1  CAI MIG d          45.788  91.395  33.778  0.00  0.00     0.110 C 
ATOM      2  CAJ MIG d          46.579  92.671  34.149  0.00  0.00     0.086 C 
ATOM      3  CAK MIG d          46.453  92.977  35.647  0.00  0.00     0.088 C 
ATOM      4  CAL MIG d          44.959  93.123  35.996  0.00  0.00     0.092 C 
ATOM      5  CAM MIG d          44.171  91.861  35.573  0.00  0.00     0.151 C 
ATOM      6  NAN MIG d          44.395  91.648  34.109  0.00  0.00    -0.058 N 
ATOM      7  H12 MIG d          46.163  90.536  34.353  0.00  0.00     0.080 H 
ATOM      8  H13 MIG d          45.889  91.187  32.702  0.00  0.00     0.080 H 
ATOM      9  H14 MIG d          46.140  93.518  33.603  0.00  0.00     0.089 H 
ATOM     10  H15 MIG d          46.885  92.139  36.213  0.00  0.00     0.091 H 
ATOM     11  H16 MIG d          44.542  93.986  35.457  0.00  0.00     0.090 H 
ATOM     12  H17 MIG d          44.538  90.993  36.140  0.00  0.00     0.092 H 
ATOM     13  H18 MIG d          44.172  92.533  33.680  0.00  0.00     0.280 HD
ENDROOT
BRANCH   6  14
ATOM     14  CAH MIG d          43.481  90.671  33.474  0.00  0.00     0.103 C 
ATOM     15  H10 MIG d          42.567  90.601  34.083  0.00  0.00     0.079 H 
ATOM     16  H11 MIG d          43.224  91.035  32.469  0.00  0.00     0.079 H 
BRANCH  14  17
ATOM     17  CAF MIG d          44.087  89.272  33.344  0.00  0.00     0.039 C 
ATOM     18  H6  MIG d          44.769  89.071  34.184  0.00  0.00     0.076 H 
ATOM     19  H7  MIG d          43.293  88.511  33.326  0.00  0.00     0.076 H 
BRANCH  17  20
ATOM     20  OAA MIG d          44.804  89.270  32.113  0.00  0.00    -0.399 OA
ATOM     21  H1  MIG d          45.353  88.496  32.069  0.00  0.00     0.209 HD
ENDBRANCH  17  20
ENDBRANCH  14  17
ENDBRANCH   6  14
BRANCH   5  22
ATOM     22  CAG MIG d          42.667  92.028  35.820  0.00  0.00     0.046 C 
ATOM     23  H8  MIG d          42.106  91.389  35.123  0.00  0.00     0.077 H 
ATOM     24  H9  MIG d          42.429  91.740  36.855  0.00  0.00     0.077 H 
BRANCH  22  25
ATOM     25  OAB MIG d          42.306  93.419  35.607  0.00  0.00    -0.399 OA
ATOM     26  H2  MIG d          42.207  93.852  36.447  0.00  0.00     0.209 HD
ENDBRANCH  22  25
ENDBRANCH   5  22
BRANCH   2  27
ATOM     27  OAC MIG d          47.929  92.530  33.718  0.00  0.00    -0.391 OA
ATOM     28  H3  MIG d          48.319  91.775  34.143  0.00  0.00     0.210 HD
ENDBRANCH   2  27
BRANCH   4  29
ATOM     29  OAE MIG d          44.880  93.368  37.387  0.00  0.00    -0.391 OA
ATOM     30  H5  MIG d          44.083  92.980  37.731  0.00  0.00     0.210 HD
ENDBRANCH   4  29
BRANCH   3  31
ATOM     31  OAD MIG d          47.125  94.196  36.041  0.00  0.00    -0.390 OA
ATOM     32  H4  MIG d          46.563  94.940  35.856  0.00  0.00     0.210 HD
ENDBRANCH   3  31
TORSDOF 8
ENDMDL
MODEL 4
REMARK VINA RESULT:      -4.8      1.573      4.093
REMARK  8 active torsions:
REMARK  status: ('A' for Active; 'I' for Inactive)
REMARK    1  A    between atoms: CAF_6  and  OAA_1 
REMARK    2  A    between atoms: CAG_7  and  OAB_2 
REMARK    3  A    between atoms: CAJ_10  and  OAC_3 
REMARK    4  A    between atoms: CAK_11  and  OAD_4 
REMARK    5  A    between atoms: CAL_12  and  OAE_5 
REMARK    6  A    between atoms: CAH_8  and  CAF_6 
REMARK    7  A    between atoms: CAM_13  and  CAG_7 
REMARK    8  A    between atoms: NAN_14  and  CAH_8 
ROOT
ATOM      1  CAI MIG d          45.636  91.108  33.357  0.00  0.00     0.110 C 
ATOM      2  CAJ MIG d          44.645  89.938  33.558  0.00  0.00     0.086 C 
ATOM      3  CAK MIG d          43.360  90.419  34.244  0.00  0.00     0.088 C 
ATOM      4  CAL MIG d          43.736  91.074  35.589  0.00  0.00     0.092 C 
ATOM      5  CAM MIG d          44.766  92.208  35.379  0.00  0.00     0.151 C 
ATOM      6  NAN MIG d          45.953  91.628  34.677  0.00  0.00    -0.058 N 
ATOM      7  H12 MIG d          45.172  91.895  32.743  0.00  0.00     0.080 H 
ATOM      8  H13 MIG d          46.550  90.749  32.862  0.00  0.00     0.080 H 
ATOM      9  H14 MIG d          45.117  89.201  34.223  0.00  0.00     0.089 H 
ATOM     10  H15 MIG d          42.873  91.162  33.595  0.00  0.00     0.091 H 
ATOM     11  H16 MIG d          44.187  90.317  36.248  0.00  0.00     0.090 H 
ATOM     12  H17 MIG d          44.316  93.002  34.763  0.00  0.00     0.092 H 
ATOM     13  H18 MIG d          46.214  90.825  35.227  0.00  0.00     0.280 HD
ENDROOT
BRANCH   6  14
ATOM     14  CAH MIG d          47.154  92.493  34.666  0.00  0.00     0.103 C 
ATOM     15  H10 MIG d          47.112  93.161  35.539  0.00  0.00     0.079 H 
ATOM     16  H11 MIG d          48.046  91.854  34.737  0.00  0.00     0.079 H 
BRANCH  14  17
ATOM     17  CAF MIG d          47.270  93.350  33.403  0.00  0.00     0.039 C 
ATOM     18  H6  MIG d          48.322  93.611  33.212  0.00  0.00     0.076 H 
ATOM     19  H7  MIG d          46.863  92.809  32.535  0.00  0.00     0.076 H 
BRANCH  17  20
ATOM     20  OAA MIG d          46.507  94.525  33.657  0.00  0.00    -0.399 OA
ATOM     21  H1  MIG d          46.630  94.792  34.560  0.00  0.00     0.209 HD
ENDBRANCH  17  20
ENDBRANCH  14  17
ENDBRANCH   6  14
BRANCH   5  22
ATOM     22  CAG MIG d          45.227  92.803  36.714  0.00  0.00     0.046 C 
ATOM     23  H8  MIG d          45.650  92.008  37.345  0.00  0.00     0.077 H 
ATOM     24  H9  MIG d          45.991  93.573  36.531  0.00  0.00     0.077 H 
BRANCH  22  25
ATOM     25  OAB MIG d          44.084  93.402  37.383  0.00  0.00    -0.399 OA
ATOM     26  H2  MIG d          43.352  92.797  37.360  0.00  0.00     0.209 HD
ENDBRANCH  22  25
ENDBRANCH   5  22
BRANCH   2  27
ATOM     27  OAC MIG d          44.407  89.303  32.306  0.00  0.00    -0.391 OA
ATOM     28  H3  MIG d          44.898  88.491  32.266  0.00  0.00     0.210 HD
ENDBRANCH   2  27
BRANCH   4  29
ATOM     29  OAE MIG d          42.534  91.536  36.175  0.00  0.00    -0.391 OA
ATOM     30  H5  MIG d          42.159  90.847  36.710  0.00  0.00     0.210 HD
ENDBRANCH   4  29
BRANCH   3  31
ATOM     31  OAD MIG d          42.421  89.353  34.514  0.00  0.00    -0.390 OA
ATOM     32  H4  MIG d          42.560  88.645  33.895  0.00  0.00     0.210 HD
ENDBRANCH   3  31
TORSDOF 8
ENDMDL
MODEL 5
REMARK VINA RESULT:      -4.6      1.536      3.706
REMARK  8 active torsions:
REMARK  status: ('A' for Active; 'I' for Inactive)
REMARK    1  A    between atoms: CAF_6  and  OAA_1 
REMARK    2  A    between atoms: CAG_7  and  OAB_2 
REMARK    3  A    between atoms: CAJ_10  and  OAC_3 
REMARK    4  A    between atoms: CAK_11  and  OAD_4 
REMARK    5  A    between atoms: CAL_12  and  OAE_5 
REMARK    6  A    between atoms: CAH_8  and  CAF_6 
REMARK    7  A    between atoms: CAM_13  and  CAG_7 
REMARK    8  A    between atoms: NAN_14  and  CAH_8 
ROOT
ATOM      1  CAI MIG d          43.118  91.179  35.547  0.00  0.00     0.110 C 
ATOM      2  CAJ MIG d          43.307  90.467  34.189  0.00  0.00     0.086 C 
ATOM      3  CAK MIG d          44.794  90.228  33.897  0.00  0.00     0.088 C 
ATOM      4  CAL MIG d          45.526  91.585  33.926  0.00  0.00     0.092 C 
ATOM      5  CAM MIG d          45.286  92.310  35.271  0.00  0.00     0.151 C 
ATOM      6  NAN MIG d          43.809  92.456  35.458  0.00  0.00    -0.058 N 
ATOM      7  H12 MIG d          43.550  90.572  36.356  0.00  0.00     0.080 H 
ATOM      8  H13 MIG d          42.048  91.342  35.743  0.00  0.00     0.080 H 
ATOM      9  H14 MIG d          42.920  91.126  33.399  0.00  0.00     0.089 H 
ATOM     10  H15 MIG d          45.203  89.571  34.679  0.00  0.00     0.091 H 
ATOM     11  H16 MIG d          45.140  92.223  33.117  0.00  0.00     0.090 H 
ATOM     12  H17 MIG d          45.712  91.711  36.090  0.00  0.00     0.092 H 
ATOM     13  H18 MIG d          43.479  92.881  34.605  0.00  0.00     0.280 HD
ENDROOT
BRANCH   6  14
ATOM     14  CAH MIG d          43.406  93.389  36.535  0.00  0.00     0.103 C 
ATOM     15  H10 MIG d          42.885  92.817  37.316  0.00  0.00     0.079 H 
ATOM     16  H11 MIG d          44.313  93.845  36.958  0.00  0.00     0.079 H 
BRANCH  14  17
ATOM     17  CAF MIG d          42.480  94.507  36.050  0.00  0.00     0.039 C 
ATOM     18  H6  MIG d          41.729  94.742  36.818  0.00  0.00     0.076 H 
ATOM     19  H7  MIG d          43.062  95.411  35.816  0.00  0.00     0.076 H 
BRANCH  17  20
ATOM     20  OAA MIG d          41.848  94.008  34.875  0.00  0.00    -0.399 OA
ATOM     21  H1  MIG d          42.140  94.510  34.122  0.00  0.00     0.209 HD
ENDBRANCH  17  20
ENDBRANCH  14  17
ENDBRANCH   6  14
BRANCH   5  22
ATOM     22  CAG MIG d          45.922  93.704  35.279  0.00  0.00     0.046 C 
ATOM     23  H8  MIG d          46.291  93.947  34.271  0.00  0.00     0.077 H 
ATOM     24  H9  MIG d          45.174  94.450  35.585  0.00  0.00     0.077 H 
BRANCH  22  25
ATOM     25  OAB MIG d          47.031  93.711  36.218  0.00  0.00    -0.399 OA
ATOM     26  H2  MIG d          47.150  94.590  36.559  0.00  0.00     0.209 HD
ENDBRANCH  22  25
ENDBRANCH   5  22
BRANCH   2  27
ATOM     27  OAC MIG d          42.534  89.271  34.173  0.00  0.00    -0.391 OA
ATOM     28  H3  MIG d          42.740  88.773  33.391  0.00  0.00     0.210 HD
ENDBRANCH   2  27
BRANCH   4  29
ATOM     29  OAE MIG d          46.896  91.322  33.690  0.00  0.00    -0.391 OA
ATOM     30  H5  MIG d          47.022  91.102  32.774  0.00  0.00     0.210 HD
ENDBRANCH   4  29
BRANCH   3  31
ATOM     31  OAD MIG d          45.036  89.618  32.608  0.00  0.00    -0.390 OA
ATOM     32  H4  MIG d          45.481  90.239  32.043  0.00  0.00     0.210 HD
ENDBRANCH   3  31
TORSDOF 8
ENDMDL
MODEL 6
REMARK VINA RESULT:      -3.6      1.619      4.080
REMARK  8 active torsions:
REMARK  status: ('A' for Active; 'I' for Inactive)
REMARK    1  A    between atoms: CAF_6  and  OAA_1 
REMARK    2  A    between atoms: CAG_7  and  OAB_2 
REMARK    3  A    between atoms: CAJ_10  and  OAC_3 
REMARK    4  A    between atoms: CAK_11  and  OAD_4 
REMARK    5  A    between atoms: CAL_12  and  OAE_5 
REMARK    6  A    between atoms: CAH_8  and  CAF_6 
REMARK    7  A    between atoms: CAM_13  and  CAG_7 
REMARK    8  A    between atoms: NAN_14  and  CAH_8 
ROOT
ATOM      1  CAI MIG d          45.425  91.600  32.975  0.00  0.00     0.110 C 
ATOM      2  CAJ MIG d          44.778  90.304  33.515  0.00  0.00     0.086 C 
ATOM      3  CAK MIG d          43.480  90.613  34.272  0.00  0.00     0.088 C 
ATOM      4  CAL MIG d          43.799  91.598  35.414  0.00  0.00     0.092 C 
ATOM      5  CAM MIG d          44.492  92.868  34.867  0.00  0.00     0.151 C 
ATOM      6  NAN MIG d          45.719  92.439  34.126  0.00  0.00    -0.058 N 
ATOM      7  H12 MIG d          44.729  92.118  32.299  0.00  0.00     0.080 H 
ATOM      8  H13 MIG d          46.353  91.363  32.434  0.00  0.00     0.080 H 
ATOM      9  H14 MIG d          45.474  89.845  34.231  0.00  0.00     0.089 H 
ATOM     10  H15 MIG d          42.768  91.076  33.572  0.00  0.00     0.091 H 
ATOM     11  H16 MIG d          44.480  91.115  36.131  0.00  0.00     0.090 H 
ATOM     12  H17 MIG d          43.807  93.394  34.186  0.00  0.00     0.092 H 
ATOM     13  H18 MIG d          46.219  91.846  34.771  0.00  0.00     0.280 HD
ENDROOT
BRANCH   6  14
ATOM     14  CAH MIG d          46.663  93.532  33.798  0.00  0.00     0.103 C 
ATOM     15  H10 MIG d          46.786  93.571  32.706  0.00  0.00     0.079 H 
ATOM     16  H11 MIG d          46.235  94.481  34.153  0.00  0.00     0.079 H 
BRANCH  14  17
ATOM     17  CAF MIG d          48.042  93.351  34.437  0.00  0.00     0.039 C 
ATOM     18  H6  MIG d          48.608  92.569  33.911  0.00  0.00     0.076 H 
ATOM     19  H7  MIG d          48.604  94.296  34.406  0.00  0.00     0.076 H 
BRANCH  17  20
ATOM     20  OAA MIG d          47.799  92.964  35.787  0.00  0.00    -0.399 OA
ATOM     21  H1  MIG d          48.546  93.204  36.323  0.00  0.00     0.209 HD
ENDBRANCH  17  20
ENDBRANCH  14  17
ENDBRANCH   6  14
BRANCH   5  22
ATOM     22  CAG MIG d          44.907  93.814  36.000  0.00  0.00     0.046 C 
ATOM     23  H8  MIG d          45.851  94.313  35.735  0.00  0.00     0.077 H 
ATOM     24  H9  MIG d          44.123  94.569  36.155  0.00  0.00     0.077 H 
BRANCH  22  25
ATOM     25  OAB MIG d          45.087  93.041  37.217  0.00  0.00    -0.399 OA
ATOM     26  H2  MIG d          44.265  93.003  37.691  0.00  0.00     0.209 HD
ENDBRANCH  22  25
ENDBRANCH   5  22
BRANCH   2  27
ATOM     27  OAC MIG d          44.595  89.387  32.440  0.00  0.00    -0.391 OA
ATOM     28  H3  MIG d          44.804  89.817  31.620  0.00  0.00     0.210 HD
ENDBRANCH   2  27
BRANCH   4  29
ATOM     29  OAE MIG d          42.576  91.887  36.065  0.00  0.00    -0.391 OA
ATOM     30  H5  MIG d          42.755  92.285  36.909  0.00  0.00     0.210 HD
ENDBRANCH   4  29
BRANCH   3  31
ATOM     31  OAD MIG d          42.861  89.441  34.852  0.00  0.00    -0.390 OA
ATOM     32  H4  MIG d          43.316  88.662  34.552  0.00  0.00     0.210 HD
ENDBRANCH   3  31
TORSDOF 8
ENDMDL
MODEL 7
REMARK VINA RESULT:      -3.6      1.613      3.352
REMARK  8 active torsions:
REMARK  status: ('A' for Active; 'I' for Inactive)
REMARK    1  A    between atoms: CAF_6  and  OAA_1 
REMARK    2  A    between atoms: CAG_7  and  OAB_2 
REMARK    3  A    between atoms: CAJ_10  and  OAC_3 
REMARK    4  A    between atoms: CAK_11  and  OAD_4 
REMARK    5  A    between atoms: CAL_12  and  OAE_5 
REMARK    6  A    between atoms: CAH_8  and  CAF_6 
REMARK    7  A    between atoms: CAM_13  and  CAG_7 
REMARK    8  A    between atoms: NAN_14  and  CAH_8 
ROOT
ATOM      1  CAI MIG d          45.770  93.694  35.134  0.00  0.00     0.110 C 
ATOM      2  CAJ MIG d          46.864  93.227  34.146  0.00  0.00     0.086 C 
ATOM      3  CAK MIG d          46.279  92.284  33.087  0.00  0.00     0.088 C 
ATOM      4  CAL MIG d          45.622  91.087  33.803  0.00  0.00     0.092 C 
ATOM      5  CAM MIG d          44.567  91.570  34.824  0.00  0.00     0.151 C 
ATOM      6  NAN MIG d          45.243  92.503  35.780  0.00  0.00    -0.058 N 
ATOM      7  H12 MIG d          44.967  94.215  34.591  0.00  0.00     0.080 H 
ATOM      8  H13 MIG d          46.203  94.371  35.885  0.00  0.00     0.080 H 
ATOM      9  H14 MIG d          47.616  92.660  34.712  0.00  0.00     0.089 H 
ATOM     10  H15 MIG d          45.520  92.832  32.510  0.00  0.00     0.091 H 
ATOM     11  H16 MIG d          46.393  90.520  34.347  0.00  0.00     0.090 H 
ATOM     12  H17 MIG d          43.758  92.096  34.295  0.00  0.00     0.092 H 
ATOM     13  H18 MIG d          46.050  91.997  36.110  0.00  0.00     0.280 HD
ENDROOT
BRANCH   6  14
ATOM     14  CAH MIG d          44.464  92.822  36.997  0.00  0.00     0.103 C 
ATOM     15  H10 MIG d          44.544  91.975  37.695  0.00  0.00     0.079 H 
ATOM     16  H11 MIG d          44.893  93.721  37.461  0.00  0.00     0.079 H 
BRANCH  14  17
ATOM     17  CAF MIG d          42.982  93.080  36.715  0.00  0.00     0.039 C 
ATOM     18  H6  MIG d          42.569  92.285  36.077  0.00  0.00     0.076 H 
ATOM     19  H7  MIG d          42.415  93.126  37.657  0.00  0.00     0.076 H 
BRANCH  17  20
ATOM     20  OAA MIG d          42.926  94.334  36.041  0.00  0.00    -0.399 OA
ATOM     21  H1  MIG d          42.681  94.194  35.134  0.00  0.00     0.209 HD
ENDBRANCH  17  20
ENDBRANCH  14  17
ENDBRANCH   6  14
BRANCH   5  22
ATOM     22  CAG MIG d          43.974  90.400  35.618  0.00  0.00     0.046 C 
ATOM     23  H8  MIG d          43.706  90.739  36.629  0.00  0.00     0.077 H 
ATOM     24  H9  MIG d          43.076  90.024  35.106  0.00  0.00     0.077 H 
BRANCH  22  25
ATOM     25  OAB MIG d          44.965  89.340  35.705  0.00  0.00    -0.399 OA
ATOM     26  H2  MIG d          44.617  88.549  35.310  0.00  0.00     0.209 HD
ENDBRANCH  22  25
ENDBRANCH   5  22
BRANCH   2  27
ATOM     27  OAC MIG d          47.509  94.366  33.586  0.00  0.00    -0.391 OA
ATOM     28  H3  MIG d          48.191  94.081  32.989  0.00  0.00     0.210 HD
ENDBRANCH   2  27
BRANCH   4  29
ATOM     29  OAE MIG d          45.064  90.259  32.800  0.00  0.00    -0.391 OA
ATOM     30  H5  MIG d          44.270  89.856  33.130  0.00  0.00     0.210 HD
ENDBRANCH   4  29
BRANCH   3  31
ATOM     31  OAD MIG d          47.272  91.765  32.171  0.00  0.00    -0.390 OA
ATOM     32  H4  MIG d          48.139  92.012  32.471  0.00  0.00     0.210 HD
ENDBRANCH   3  31
TORSDOF 8
ENDMDL
MODEL 8
REMARK VINA RESULT:      -3.3      1.322      4.131
REMARK  8 active torsions:
REMARK  status: ('A' for Active; 'I' for Inactive)
REMARK    1  A    between atoms: CAF_6  and  OAA_1 
REMARK    2  A    between atoms: CAG_7  and  OAB_2 
REMARK    3  A    between atoms: CAJ_10  and  OAC_3 
REMARK    4  A    between atoms: CAK_11  and  OAD_4 
REMARK    5  A    between atoms: CAL_12  and  OAE_5 
REMARK    6  A    between atoms: CAH_8  and  CAF_6 
REMARK    7  A    between atoms: CAM_13  and  CAG_7 
REMARK    8  A    between atoms: NAN_14  and  CAH_8 
ROOT
ATOM      1  CAI MIG d          45.260  90.780  34.355  0.00  0.00     0.110 C 
ATOM      2  CAJ MIG d          44.211  90.366  35.413  0.00  0.00     0.086 C 
ATOM      3  CAK MIG d          43.379  91.574  35.862  0.00  0.00     0.088 C 
ATOM      4  CAL MIG d          44.334  92.652  36.412  0.00  0.00     0.092 C 
ATOM      5  CAM MIG d          45.408  93.020  35.362  0.00  0.00     0.151 C 
ATOM      6  NAN MIG d          46.128  91.765  34.980  0.00  0.00    -0.058 N 
ATOM      7  H12 MIG d          44.760  91.219  33.479  0.00  0.00     0.080 H 
ATOM      8  H13 MIG d          45.847  89.904  34.041  0.00  0.00     0.080 H 
ATOM      9  H14 MIG d          44.746  89.989  36.296  0.00  0.00     0.089 H 
ATOM     10  H15 MIG d          42.837  91.969  34.991  0.00  0.00     0.091 H 
ATOM     11  H16 MIG d          44.845  92.265  37.306  0.00  0.00     0.090 H 
ATOM     12  H17 MIG d          44.922  93.459  34.478  0.00  0.00     0.092 H 
ATOM     13  H18 MIG d          46.416  91.354  35.854  0.00  0.00     0.280 HD
ENDROOT
BRANCH   6  14
ATOM     14  CAH MIG d          47.381  91.972  34.220  0.00  0.00     0.103 C 
ATOM     15  H10 MIG d          48.164  92.300  34.920  0.00  0.00     0.079 H 
ATOM     16  H11 MIG d          47.676  91.016  33.764  0.00  0.00     0.079 H 
BRANCH  14  17
ATOM     17  CAF MIG d          47.250  93.019  33.112  0.00  0.00     0.039 C 
ATOM     18  H6  MIG d          46.436  93.722  33.344  0.00  0.00     0.076 H 
ATOM     19  H7  MIG d          48.193  93.574  32.996  0.00  0.00     0.076 H 
BRANCH  17  20
ATOM     20  OAA MIG d          46.952  92.294  31.922  0.00  0.00    -0.399 OA
ATOM     21  H1  MIG d          46.317  92.778  31.408  0.00  0.00     0.209 HD
ENDBRANCH  17  20
ENDBRANCH  14  17
ENDBRANCH   6  14
BRANCH   5  22
ATOM     22  CAG MIG d          46.427  94.018  35.926  0.00  0.00     0.046 C 
ATOM     23  H8  MIG d          47.037  94.425  35.106  0.00  0.00     0.077 H 
ATOM     24  H9  MIG d          45.898  94.838  36.433  0.00  0.00     0.077 H 
BRANCH  22  25
ATOM     25  OAB MIG d          47.283  93.330  36.877  0.00  0.00    -0.399 OA
ATOM     26  H2  MIG d          47.030  93.569  37.761  0.00  0.00     0.209 HD
ENDBRANCH  22  25
ENDBRANCH   5  22
BRANCH   2  27
ATOM     27  OAC MIG d          43.419  89.300  34.898  0.00  0.00    -0.391 OA
ATOM     28  H3  MIG d          42.631  89.655  34.505  0.00  0.00     0.210 HD
ENDBRANCH   2  27
BRANCH   4  29
ATOM     29  OAE MIG d          43.537  93.761  36.781  0.00  0.00    -0.391 OA
ATOM     30  H5  MIG d          42.627  93.577  36.580  0.00  0.00     0.210 HD
ENDBRANCH   4  29
BRANCH   3  31
ATOM     31  OAD MIG d          42.421  91.256  36.899  0.00  0.00    -0.390 OA
ATOM     32  H4  MIG d          41.888  90.519  36.622  0.00  0.00     0.210 HD
ENDBRANCH   3  31
TORSDOF 8
ENDMDL
