MODEL 1
REMARK VINA RESULT:      -9.7      0.000      0.000
REMARK  6 active torsions:
REMARK  status: ('A' for Active; 'I' for Inactive)
REMARK    1  A    between atoms: C07_7  and  N03_3 
REMARK    2  A    between atoms: N03_3  and  C09_9 
REMARK    3  A    between atoms: C06_6  and  N04_4 
REMARK    4  A    between atoms: N04_4  and  C16_16 
REMARK    5  A    between atoms: C14_14  and  C15_15 
REMARK    6  A    between atoms: C19_19  and  C22_22 
ROOT
ATOM      1  N01 MOL d           3.503  31.842   8.863  0.00  0.00    -0.075 NA
ATOM      2  N02 MOL d           4.255  30.761   6.925  0.00  0.00    -0.045 NA
ATOM      3  C05 MOL d           3.859  30.787   9.614  0.00  0.00     0.025 A 
ATOM      4  C06 MOL d           3.699  31.814   7.541  0.00  0.00     0.728 A 
ATOM      5  C07 MOL d           4.629  29.679   7.640  0.00  0.00     0.148 A 
ATOM      6  C08 MOL d           4.434  29.667   9.021  0.00  0.00    -0.021 A 
ATOM      7  H3  MOL d           3.697  30.807  10.685  0.00  0.00     0.115 H 
ATOM      8  H4  MOL d           4.724  28.809   9.616  0.00  0.00     0.091 H 
ENDROOT
BRANCH   5   9
ATOM      9  N03 MOL d           5.224  28.528   7.010  0.00  0.00    -0.340 N 
ATOM     10  H1  MOL d           4.609  27.833   6.560  0.00  0.00     0.167 HD
BRANCH   9  11
ATOM     11  C09 MOL d           6.645  28.316   6.987  0.00  0.00     0.044 A 
ATOM     12  C10 MOL d           7.328  28.093   8.173  0.00  0.00    -0.056 A 
ATOM     13  C11 MOL d           8.701  27.894   8.156  0.00  0.00    -0.081 A 
ATOM     14  H5  MOL d           6.789  28.074   9.113  0.00  0.00     0.086 H 
ATOM     15  C12 MOL d           9.404  27.919   6.963  0.00  0.00    -0.082 A 
ATOM     16  H6  MOL d           9.228  27.716   9.086  0.00  0.00     0.083 H 
ATOM     17  C13 MOL d           8.722  28.146   5.778  0.00  0.00    -0.070 A 
ATOM     18  H7  MOL d          10.476  27.762   6.956  0.00  0.00     0.083 H 
ATOM     19  C14 MOL d           7.348  28.346   5.786  0.00  0.00     0.001 A 
ATOM     20  H8  MOL d           9.265  28.168   4.840  0.00  0.00     0.084 H 
BRANCH  19  21
ATOM     21  C15 MOL d           6.648  28.582   4.487  0.00  0.00    -0.024 A 
ATOM     22  C23 MOL d           6.301  29.868   4.096  0.00  0.00    -0.072 A 
ATOM     23  C24 MOL d           5.656  30.069   2.885  0.00  0.00    -0.082 A 
ATOM     24  H13 MOL d           6.532  30.712   4.735  0.00  0.00     0.084 H 
ATOM     25  C25 MOL d           5.363  28.988   2.068  0.00  0.00    -0.083 A 
ATOM     26  H14 MOL d           5.382  31.072   2.577  0.00  0.00     0.083 H 
ATOM     27  C26 MOL d           5.709  27.704   2.455  0.00  0.00    -0.082 A 
ATOM     28  H15 MOL d           4.859  29.149   1.121  0.00  0.00     0.083 H 
ATOM     29  C27 MOL d           6.355  27.503   3.665  0.00  0.00    -0.072 A 
ATOM     30  H16 MOL d           5.477  26.861   1.815  0.00  0.00     0.083 H 
ATOM     31  H17 MOL d           6.631  26.501   3.970  0.00  0.00     0.084 H 
ENDBRANCH  19  21
ENDBRANCH   9  11
ENDBRANCH   5   9
BRANCH   4  32
ATOM     32  N04 MOL d           3.300  32.984   6.809  0.00  0.00    -0.188 N 
ATOM     33  H2  MOL d           3.422  33.891   7.282  0.00  0.00     0.184 HD
BRANCH  32  34
ATOM     34  C16 MOL d           2.750  33.015   5.486  0.00  0.00     0.049 A 
ATOM     35  C17 MOL d           1.469  33.526   5.320  0.00  0.00    -0.056 A 
ATOM     36  C18 MOL d           0.897  33.591   4.059  0.00  0.00    -0.064 A 
ATOM     37  H9  MOL d           0.913  33.876   6.183  0.00  0.00     0.087 H 
ATOM     38  C19 MOL d           1.611  33.145   2.956  0.00  0.00     0.041 A 
ATOM     39  H10 MOL d          -0.104  33.990   3.936  0.00  0.00     0.085 H 
ATOM     40  C20 MOL d           2.896  32.639   3.116  0.00  0.00    -0.064 A 
ATOM     41  C21 MOL d           3.467  32.578   4.381  0.00  0.00    -0.056 A 
ATOM     42  H11 MOL d           3.453  32.292   2.253  0.00  0.00     0.085 H 
ATOM     43  H12 MOL d           4.472  32.189   4.505  0.00  0.00     0.087 H 
BRANCH  38  44
ATOM     44  C22 MOL d           0.990  33.215   1.600  0.00  0.00     0.209 C 
ATOM     45  O28 MOL d           1.230  32.311   0.756  0.00  0.00    -0.644 OA
ATOM     46  O29 MOL d           0.227  34.175   1.300  0.00  0.00    -0.644 OA
ENDBRANCH  38  44
ENDBRANCH  32  34
ENDBRANCH   4  32
TORSDOF 6
ENDMDL
MODEL 2
REMARK VINA RESULT:      -9.5      1.218      3.252
REMARK  6 active torsions:
REMARK  status: ('A' for Active; 'I' for Inactive)
REMARK    1  A    between atoms: C07_7  and  N03_3 
REMARK    2  A    between atoms: N03_3  and  C09_9 
REMARK    3  A    between atoms: C06_6  and  N04_4 
REMARK    4  A    between atoms: N04_4  and  C16_16 
REMARK    5  A    between atoms: C14_14  and  C15_15 
REMARK    6  A    between atoms: C19_19  and  C22_22 
ROOT
ATOM      1  N01 MOL d           3.725  31.051   8.727  0.00  0.00    -0.075 NA
ATOM      2  N02 MOL d           4.310  30.561   6.512  0.00  0.00    -0.045 NA
ATOM      3  C05 MOL d           4.337  29.935   9.156  0.00  0.00     0.025 A 
ATOM      4  C06 MOL d           3.715  31.344   7.422  0.00  0.00     0.728 A 
ATOM      5  C07 MOL d           4.937  29.430   6.898  0.00  0.00     0.148 A 
ATOM      6  C08 MOL d           4.963  29.087   8.249  0.00  0.00    -0.021 A 
ATOM      7  H3  MOL d           4.343  29.695  10.213  0.00  0.00     0.115 H 
ATOM      8  H4  MOL d           5.458  28.183   8.584  0.00  0.00     0.091 H 
ENDROOT
BRANCH   5   9
ATOM      9  N03 MOL d           5.580  28.562   5.945  0.00  0.00    -0.340 N 
ATOM     10  H1  MOL d           5.980  27.671   6.273  0.00  0.00     0.167 HD
BRANCH   9  11
ATOM     11  C09 MOL d           5.684  28.898   4.552  0.00  0.00     0.044 A 
ATOM     12  C10 MOL d           4.546  28.909   3.758  0.00  0.00    -0.056 A 
ATOM     13  C11 MOL d           4.643  29.228   2.412  0.00  0.00    -0.081 A 
ATOM     14  H5  MOL d           3.582  28.669   4.191  0.00  0.00     0.086 H 
ATOM     15  C12 MOL d           5.869  29.533   1.844  0.00  0.00    -0.082 A 
ATOM     16  H6  MOL d           3.749  29.238   1.798  0.00  0.00     0.083 H 
ATOM     17  C13 MOL d           7.006  29.518   2.635  0.00  0.00    -0.070 A 
ATOM     18  H7  MOL d           5.937  29.781   0.791  0.00  0.00     0.083 H 
ATOM     19  C14 MOL d           6.919  29.201   3.984  0.00  0.00     0.001 A 
ATOM     20  H8  MOL d           7.969  29.755   2.198  0.00  0.00     0.084 H 
BRANCH  19  21
ATOM     21  C15 MOL d           8.167  29.200   4.805  0.00  0.00    -0.024 A 
ATOM     22  C23 MOL d           8.523  30.317   5.549  0.00  0.00    -0.072 A 
ATOM     23  C24 MOL d           9.681  30.297   6.310  0.00  0.00    -0.082 A 
ATOM     24  H13 MOL d           7.898  31.202   5.535  0.00  0.00     0.084 H 
ATOM     25  C25 MOL d          10.479  29.163   6.329  0.00  0.00    -0.083 A 
ATOM     26  H14 MOL d           9.964  31.167   6.891  0.00  0.00     0.083 H 
ATOM     27  C26 MOL d          10.125  28.046   5.588  0.00  0.00    -0.082 A 
ATOM     28  H15 MOL d          11.385  29.150   6.925  0.00  0.00     0.083 H 
ATOM     29  C27 MOL d           8.967  28.066   4.829  0.00  0.00    -0.072 A 
ATOM     30  H16 MOL d          10.752  27.162   5.603  0.00  0.00     0.083 H 
ATOM     31  H17 MOL d           8.684  27.194   4.251  0.00  0.00     0.084 H 
ENDBRANCH  19  21
ENDBRANCH   9  11
ENDBRANCH   5   9
BRANCH   4  32
ATOM     32  N04 MOL d           3.048  32.559   7.044  0.00  0.00    -0.188 N 
ATOM     33  H2  MOL d           2.891  33.253   7.788  0.00  0.00     0.184 HD
BRANCH  32  34
ATOM     34  C16 MOL d           2.580  32.901   5.733  0.00  0.00     0.049 A 
ATOM     35  C17 MOL d           3.414  32.648   4.652  0.00  0.00    -0.056 A 
ATOM     36  C18 MOL d           3.001  32.946   3.363  0.00  0.00    -0.064 A 
ATOM     37  H9  MOL d           4.393  32.214   4.817  0.00  0.00     0.087 H 
ATOM     38  C19 MOL d           1.746  33.499   3.152  0.00  0.00     0.041 A 
ATOM     39  H10 MOL d           3.657  32.747   2.522  0.00  0.00     0.085 H 
ATOM     40  C20 MOL d           0.905  33.749   4.231  0.00  0.00    -0.064 A 
ATOM     41  C21 MOL d           1.320  33.446   5.522  0.00  0.00    -0.056 A 
ATOM     42  H11 MOL d          -0.076  34.180   4.065  0.00  0.00     0.085 H 
ATOM     43  H12 MOL d           0.662  33.634   6.362  0.00  0.00     0.087 H 
BRANCH  38  44
ATOM     44  C22 MOL d           1.307  33.822   1.762  0.00  0.00     0.209 C 
ATOM     45  O28 MOL d           0.178  34.346   1.569  0.00  0.00    -0.644 OA
ATOM     46  O29 MOL d           2.065  33.572   0.783  0.00  0.00    -0.644 OA
ENDBRANCH  38  44
ENDBRANCH  32  34
ENDBRANCH   4  32
TORSDOF 6
ENDMDL
MODEL 3
REMARK VINA RESULT:      -8.9      2.497      4.703
REMARK  6 active torsions:
REMARK  status: ('A' for Active; 'I' for Inactive)
REMARK    1  A    between atoms: C07_7  and  N03_3 
REMARK    2  A    between atoms: N03_3  and  C09_9 
REMARK    3  A    between atoms: C06_6  and  N04_4 
REMARK    4  A    between atoms: N04_4  and  C16_16 
REMARK    5  A    between atoms: C14_14  and  C15_15 
REMARK    6  A    between atoms: C19_19  and  C22_22 
ROOT
ATOM      1  N01 MOL d           5.487  29.302   0.195  0.00  0.00    -0.075 NA
ATOM      2  N02 MOL d           5.498  29.569   2.523  0.00  0.00    -0.045 NA
ATOM      3  C05 MOL d           6.080  28.103   0.310  0.00  0.00     0.025 A 
ATOM      4  C06 MOL d           5.211  30.015   1.292  0.00  0.00     0.728 A 
ATOM      5  C07 MOL d           6.093  28.368   2.686  0.00  0.00     0.148 A 
ATOM      6  C08 MOL d           6.403  27.599   1.565  0.00  0.00    -0.021 A 
ATOM      7  H3  MOL d           6.306  27.525  -0.579  0.00  0.00     0.115 H 
ATOM      8  H4  MOL d           6.882  26.632   1.670  0.00  0.00     0.091 H 
ENDROOT
BRANCH   5   9
ATOM      9  N03 MOL d           6.420  27.861   3.994  0.00  0.00    -0.340 N 
ATOM     10  H1  MOL d           5.738  27.262   4.480  0.00  0.00     0.167 HD
BRANCH   9  11
ATOM     11  C09 MOL d           7.666  28.164   4.643  0.00  0.00     0.044 A 
ATOM     12  C10 MOL d           8.863  27.818   4.033  0.00  0.00    -0.056 A 
ATOM     13  C11 MOL d          10.068  28.103   4.659  0.00  0.00    -0.081 A 
ATOM     14  H5  MOL d           8.857  27.325   3.068  0.00  0.00     0.086 H 
ATOM     15  C12 MOL d          10.092  28.729   5.894  0.00  0.00    -0.082 A 
ATOM     16  H6  MOL d          11.000  27.833   4.175  0.00  0.00     0.083 H 
ATOM     17  C13 MOL d           8.897  29.071   6.505  0.00  0.00    -0.070 A 
ATOM     18  H7  MOL d          11.037  28.949   6.377  0.00  0.00     0.083 H 
ATOM     19  C14 MOL d           7.686  28.790   5.886  0.00  0.00     0.001 A 
ATOM     20  H8  MOL d           8.907  29.561   7.472  0.00  0.00     0.084 H 
BRANCH  19  21
ATOM     21  C15 MOL d           6.418  29.179   6.574  0.00  0.00    -0.024 A 
ATOM     22  C23 MOL d           5.531  30.061   5.974  0.00  0.00    -0.072 A 
ATOM     23  C24 MOL d           4.356  30.406   6.624  0.00  0.00    -0.082 A 
ATOM     24  H13 MOL d           5.755  30.479   4.999  0.00  0.00     0.084 H 
ATOM     25  C25 MOL d           4.070  29.869   7.870  0.00  0.00    -0.083 A 
ATOM     26  H14 MOL d           3.662  31.096   6.159  0.00  0.00     0.083 H 
ATOM     27  C26 MOL d           4.954  28.988   8.472  0.00  0.00    -0.082 A 
ATOM     28  H15 MOL d           3.150  30.141   8.376  0.00  0.00     0.083 H 
ATOM     29  C27 MOL d           6.127  28.642   7.820  0.00  0.00    -0.072 A 
ATOM     30  H16 MOL d           4.728  28.571   9.447  0.00  0.00     0.083 H 
ATOM     31  H17 MOL d           6.819  27.949   8.285  0.00  0.00     0.084 H 
ENDBRANCH  19  21
ENDBRANCH   9  11
ENDBRANCH   5   9
BRANCH   4  32
ATOM     32  N04 MOL d           4.570  31.284   1.086  0.00  0.00    -0.188 N 
ATOM     33  H2  MOL d           4.761  31.762   0.194  0.00  0.00     0.184 HD
BRANCH  32  34
ATOM     34  C16 MOL d           3.689  31.952   1.999  0.00  0.00     0.049 A 
ATOM     35  C17 MOL d           2.434  32.331   1.542  0.00  0.00    -0.056 A 
ATOM     36  C18 MOL d           1.540  32.965   2.390  0.00  0.00    -0.064 A 
ATOM     37  H9  MOL d           2.152  32.128   0.515  0.00  0.00     0.087 H 
ATOM     38  C19 MOL d           1.901  33.221   3.705  0.00  0.00     0.041 A 
ATOM     39  H10 MOL d           0.561  33.260   2.027  0.00  0.00     0.085 H 
ATOM     40  C20 MOL d           3.155  32.838   4.169  0.00  0.00    -0.064 A 
ATOM     41  C21 MOL d           4.048  32.199   3.318  0.00  0.00    -0.056 A 
ATOM     42  H11 MOL d           3.437  33.038   5.197  0.00  0.00     0.085 H 
ATOM     43  H12 MOL d           5.022  31.895   3.681  0.00  0.00     0.087 H 
BRANCH  38  44
ATOM     44  C22 MOL d           0.937  33.908   4.614  0.00  0.00     0.209 C 
ATOM     45  O28 MOL d           0.275  34.894   4.192  0.00  0.00    -0.644 OA
ATOM     46  O29 MOL d           0.785  33.504   5.800  0.00  0.00    -0.644 OA
ENDBRANCH  38  44
ENDBRANCH  32  34
ENDBRANCH   4  32
TORSDOF 6
ENDMDL
MODEL 4
REMARK VINA RESULT:      -7.7      2.620      5.258
REMARK  6 active torsions:
REMARK  status: ('A' for Active; 'I' for Inactive)
REMARK    1  A    between atoms: C07_7  and  N03_3 
REMARK    2  A    between atoms: N03_3  and  C09_9 
REMARK    3  A    between atoms: C06_6  and  N04_4 
REMARK    4  A    between atoms: N04_4  and  C16_16 
REMARK    5  A    between atoms: C14_14  and  C15_15 
REMARK    6  A    between atoms: C19_19  and  C22_22 
ROOT
ATOM      1  N01 MOL d           6.037  29.117   0.125  0.00  0.00    -0.075 NA
ATOM      2  N02 MOL d           5.727  30.106   2.225  0.00  0.00    -0.045 NA
ATOM      3  C05 MOL d           6.683  28.082   0.685  0.00  0.00     0.025 A 
ATOM      4  C06 MOL d           5.576  30.109   0.893  0.00  0.00     0.728 A 
ATOM      5  C07 MOL d           6.368  29.085   2.832  0.00  0.00     0.148 A 
ATOM      6  C08 MOL d           6.869  28.036   2.063  0.00  0.00    -0.021 A 
ATOM      7  H3  MOL d           7.059  27.279   0.062  0.00  0.00     0.115 H 
ATOM      8  H4  MOL d           7.390  27.206   2.526  0.00  0.00     0.091 H 
ENDROOT
BRANCH   5   9
ATOM      9  N03 MOL d           6.553  29.054   4.260  0.00  0.00    -0.340 N 
ATOM     10  H1  MOL d           7.427  28.665   4.641  0.00  0.00     0.167 HD
BRANCH   9  11
ATOM     11  C09 MOL d           5.558  29.547   5.172  0.00  0.00     0.044 A 
ATOM     12  C10 MOL d           4.488  30.287   4.690  0.00  0.00    -0.056 A 
ATOM     13  C11 MOL d           3.528  30.770   5.568  0.00  0.00    -0.081 A 
ATOM     14  H5  MOL d           4.402  30.488   3.629  0.00  0.00     0.086 H 
ATOM     15  C12 MOL d           3.626  30.525   6.927  0.00  0.00    -0.082 A 
ATOM     16  H6  MOL d           2.692  31.346   5.185  0.00  0.00     0.083 H 
ATOM     17  C13 MOL d           4.696  29.790   7.410  0.00  0.00    -0.070 A 
ATOM     18  H7  MOL d           2.872  30.905   7.607  0.00  0.00     0.083 H 
ATOM     19  C14 MOL d           5.661  29.302   6.538  0.00  0.00     0.001 A 
ATOM     20  H8  MOL d           4.780  29.594   8.472  0.00  0.00     0.084 H 
BRANCH  19  21
ATOM     21  C15 MOL d           6.798  28.508   7.095  0.00  0.00    -0.024 A 
ATOM     22  C23 MOL d           8.102  28.972   6.991  0.00  0.00    -0.072 A 
ATOM     23  C24 MOL d           9.144  28.225   7.518  0.00  0.00    -0.082 A 
ATOM     24  H13 MOL d           8.305  29.916   6.498  0.00  0.00     0.084 H 
ATOM     25  C25 MOL d           8.881  27.019   8.150  0.00  0.00    -0.083 A 
ATOM     26  H14 MOL d          10.163  28.584   7.437  0.00  0.00     0.083 H 
ATOM     27  C26 MOL d           7.581  26.554   8.257  0.00  0.00    -0.082 A 
ATOM     28  H15 MOL d           9.699  26.437   8.562  0.00  0.00     0.083 H 
ATOM     29  C27 MOL d           6.540  27.302   7.731  0.00  0.00    -0.072 A 
ATOM     30  H16 MOL d           7.379  25.610   8.750  0.00  0.00     0.083 H 
ATOM     31  H17 MOL d           5.520  26.943   7.816  0.00  0.00     0.084 H 
ENDBRANCH  19  21
ENDBRANCH   9  11
ENDBRANCH   5   9
BRANCH   4  32
ATOM     32  N04 MOL d           4.890  31.176   0.220  0.00  0.00    -0.188 N 
ATOM     33  H2  MOL d           5.077  31.285  -0.787  0.00  0.00     0.184 HD
BRANCH  32  34
ATOM     34  C16 MOL d           3.970  32.104   0.810  0.00  0.00     0.049 A 
ATOM     35  C17 MOL d           2.688  31.658   1.105  0.00  0.00    -0.056 A 
ATOM     36  C18 MOL d           1.766  32.512   1.690  0.00  0.00    -0.064 A 
ATOM     37  H9  MOL d           2.407  30.636   0.876  0.00  0.00     0.087 H 
ATOM     38  C19 MOL d           2.127  33.819   1.984  0.00  0.00     0.041 A 
ATOM     39  H10 MOL d           0.766  32.159   1.917  0.00  0.00     0.085 H 
ATOM     40  C20 MOL d           3.412  34.268   1.696  0.00  0.00    -0.064 A 
ATOM     41  C21 MOL d           4.335  33.408   1.113  0.00  0.00    -0.056 A 
ATOM     42  H11 MOL d           3.694  35.289   1.927  0.00  0.00     0.085 H 
ATOM     43  H12 MOL d           5.338  33.756   0.894  0.00  0.00     0.087 H 
BRANCH  38  44
ATOM     44  C22 MOL d           1.129  34.736   2.611  0.00  0.00     0.209 C 
ATOM     45  O28 MOL d           0.152  35.152   1.934  0.00  0.00    -0.644 OA
ATOM     46  O29 MOL d           1.265  35.093   3.814  0.00  0.00    -0.644 OA
ENDBRANCH  38  44
ENDBRANCH  32  34
ENDBRANCH   4  32
TORSDOF 6
ENDMDL
MODEL 5
REMARK VINA RESULT:      -7.7      2.161      3.440
REMARK  6 active torsions:
REMARK  status: ('A' for Active; 'I' for Inactive)
REMARK    1  A    between atoms: C07_7  and  N03_3 
REMARK    2  A    between atoms: N03_3  and  C09_9 
REMARK    3  A    between atoms: C06_6  and  N04_4 
REMARK    4  A    between atoms: N04_4  and  C16_16 
REMARK    5  A    between atoms: C14_14  and  C15_15 
REMARK    6  A    between atoms: C19_19  and  C22_22 
ROOT
ATOM      1  N01 MOL d           5.925  28.513   7.664  0.00  0.00    -0.075 NA
ATOM      2  N02 MOL d           6.391  29.882   5.821  0.00  0.00    -0.045 NA
ATOM      3  C05 MOL d           7.020  27.774   7.417  0.00  0.00     0.025 A 
ATOM      4  C06 MOL d           5.625  29.544   6.868  0.00  0.00     0.728 A 
ATOM      5  C07 MOL d           7.501  29.169   5.535  0.00  0.00     0.148 A 
ATOM      6  C08 MOL d           7.843  28.082   6.339  0.00  0.00    -0.021 A 
ATOM      7  H3  MOL d           7.262  26.937   8.060  0.00  0.00     0.115 H 
ATOM      8  H4  MOL d           8.728  27.492   6.129  0.00  0.00     0.091 H 
ENDROOT
BRANCH   5   9
ATOM      9  N03 MOL d           8.342  29.501   4.414  0.00  0.00    -0.340 N 
ATOM     10  H1  MOL d           8.542  30.493   4.219  0.00  0.00     0.167 HD
BRANCH   9  11
ATOM     11  C09 MOL d           8.913  28.496   3.560  0.00  0.00     0.044 A 
ATOM     12  C10 MOL d           9.924  27.676   4.040  0.00  0.00    -0.056 A 
ATOM     13  C11 MOL d          10.481  26.708   3.217  0.00  0.00    -0.081 A 
ATOM     14  H5  MOL d          10.278  27.792   5.058  0.00  0.00     0.086 H 
ATOM     15  C12 MOL d          10.041  26.551   1.913  0.00  0.00    -0.082 A 
ATOM     16  H6  MOL d          11.269  26.069   3.599  0.00  0.00     0.083 H 
ATOM     17  C13 MOL d           9.034  27.373   1.432  0.00  0.00    -0.070 A 
ATOM     18  H7  MOL d          10.481  25.793   1.275  0.00  0.00     0.083 H 
ATOM     19  C14 MOL d           8.471  28.343   2.249  0.00  0.00     0.001 A 
ATOM     20  H8  MOL d           8.685  27.256   0.413  0.00  0.00     0.084 H 
BRANCH  19  21
ATOM     21  C15 MOL d           7.383  29.206   1.696  0.00  0.00    -0.024 A 
ATOM     22  C23 MOL d           7.633  30.062   0.633  0.00  0.00    -0.072 A 
ATOM     23  C24 MOL d           6.610  30.851   0.129  0.00  0.00    -0.082 A 
ATOM     24  H13 MOL d           8.624  30.114   0.197  0.00  0.00     0.084 H 
ATOM     25  C25 MOL d           5.343  30.783   0.686  0.00  0.00    -0.083 A 
ATOM     26  H14 MOL d           6.802  31.522  -0.701  0.00  0.00     0.083 H 
ATOM     27  C26 MOL d           5.090  29.929   1.747  0.00  0.00    -0.082 A 
ATOM     28  H15 MOL d           4.545  31.401   0.290  0.00  0.00     0.083 H 
ATOM     29  C27 MOL d           6.112  29.139   2.250  0.00  0.00    -0.072 A 
ATOM     30  H16 MOL d           4.099  29.878   2.183  0.00  0.00     0.083 H 
ATOM     31  H17 MOL d           5.918  28.466   3.077  0.00  0.00     0.084 H 
ENDBRANCH  19  21
ENDBRANCH   9  11
ENDBRANCH   5   9
BRANCH   4  32
ATOM     32  N04 MOL d           4.444  30.290   7.203  0.00  0.00    -0.188 N 
ATOM     33  H2  MOL d           4.097  30.200   8.168  0.00  0.00     0.184 HD
BRANCH  32  34
ATOM     34  C16 MOL d           3.700  31.147   6.327  0.00  0.00     0.049 A 
ATOM     35  C17 MOL d           2.710  31.949   6.879  0.00  0.00    -0.056 A 
ATOM     36  C18 MOL d           1.973  32.807   6.077  0.00  0.00    -0.064 A 
ATOM     37  H9  MOL d           2.513  31.904   7.945  0.00  0.00     0.087 H 
ATOM     38  C19 MOL d           2.229  32.865   4.715  0.00  0.00     0.041 A 
ATOM     39  H10 MOL d           1.200  33.430   6.514  0.00  0.00     0.085 H 
ATOM     40  C20 MOL d           3.224  32.068   4.158  0.00  0.00    -0.064 A 
ATOM     41  C21 MOL d           3.963  31.212   4.965  0.00  0.00    -0.056 A 
ATOM     42  H11 MOL d           3.423  32.115   3.094  0.00  0.00     0.085 H 
ATOM     43  H12 MOL d           4.742  30.595   4.533  0.00  0.00     0.087 H 
BRANCH  38  44
ATOM     44  C22 MOL d           1.430  33.787   3.854  0.00  0.00     0.209 C 
ATOM     45  O28 MOL d           1.729  33.923   2.638  0.00  0.00    -0.644 OA
ATOM     46  O29 MOL d           0.459  34.429   4.343  0.00  0.00    -0.644 OA
ENDBRANCH  38  44
ENDBRANCH  32  34
ENDBRANCH   4  32
TORSDOF 6
ENDMDL
MODEL 6
REMARK VINA RESULT:      -7.6      3.845      8.247
REMARK  6 active torsions:
REMARK  status: ('A' for Active; 'I' for Inactive)
REMARK    1  A    between atoms: C07_7  and  N03_3 
REMARK    2  A    between atoms: N03_3  and  C09_9 
REMARK    3  A    between atoms: C06_6  and  N04_4 
REMARK    4  A    between atoms: N04_4  and  C16_16 
REMARK    5  A    between atoms: C14_14  and  C15_15 
REMARK    6  A    between atoms: C19_19  and  C22_22 
ROOT
ATOM      1  N01 MOL d           5.951  28.313   1.544  0.00  0.00    -0.075 NA
ATOM      2  N02 MOL d           5.748  29.534   3.533  0.00  0.00    -0.045 NA
ATOM      3  C05 MOL d           5.491  29.356   0.834  0.00  0.00     0.025 A 
ATOM      4  C06 MOL d           6.067  28.412   2.872  0.00  0.00     0.728 A 
ATOM      5  C07 MOL d           5.283  30.607   2.860  0.00  0.00     0.148 A 
ATOM      6  C08 MOL d           5.141  30.539   1.475  0.00  0.00    -0.021 A 
ATOM      7  H3  MOL d           5.394  29.275  -0.243  0.00  0.00     0.115 H 
ATOM      8  H4  MOL d           4.767  31.387   0.912  0.00  0.00     0.091 H 
ENDROOT
BRANCH   5   9
ATOM      9  N03 MOL d           4.925  31.826   3.540  0.00  0.00    -0.340 N 
ATOM     10  H1  MOL d           5.620  32.277   4.152  0.00  0.00     0.167 HD
BRANCH   9  11
ATOM     11  C09 MOL d           3.630  32.432   3.394  0.00  0.00     0.044 A 
ATOM     12  C10 MOL d           3.265  32.994   2.180  0.00  0.00    -0.056 A 
ATOM     13  C11 MOL d           2.019  33.586   2.036  0.00  0.00    -0.081 A 
ATOM     14  H5  MOL d           3.954  32.971   1.343  0.00  0.00     0.086 H 
ATOM     15  C12 MOL d           1.129  33.626   3.097  0.00  0.00    -0.082 A 
ATOM     16  H6  MOL d           1.738  34.021   1.083  0.00  0.00     0.083 H 
ATOM     17  C13 MOL d           1.495  33.068   4.311  0.00  0.00    -0.070 A 
ATOM     18  H7  MOL d           0.157  34.090   2.978  0.00  0.00     0.083 H 
ATOM     19  C14 MOL d           2.740  32.474   4.464  0.00  0.00     0.001 A 
ATOM     20  H8  MOL d           0.804  33.096   5.147  0.00  0.00     0.084 H 
BRANCH  19  21
ATOM     21  C15 MOL d           3.096  31.878   5.787  0.00  0.00    -0.024 A 
ATOM     22  C23 MOL d           3.568  30.576   5.871  0.00  0.00    -0.072 A 
ATOM     23  C24 MOL d           3.898  30.041   7.107  0.00  0.00    -0.082 A 
ATOM     24  H13 MOL d           3.677  29.978   4.974  0.00  0.00     0.084 H 
ATOM     25  C25 MOL d           3.760  30.808   8.254  0.00  0.00    -0.083 A 
ATOM     26  H14 MOL d           4.265  29.023   7.177  0.00  0.00     0.083 H 
ATOM     27  C26 MOL d           3.291  32.109   8.173  0.00  0.00    -0.082 A 
ATOM     28  H15 MOL d           4.020  30.387   9.219  0.00  0.00     0.083 H 
ATOM     29  C27 MOL d           2.962  32.643   6.937  0.00  0.00    -0.072 A 
ATOM     30  H16 MOL d           3.182  32.706   9.071  0.00  0.00     0.083 H 
ATOM     31  H17 MOL d           2.598  33.662   6.868  0.00  0.00     0.084 H 
ENDBRANCH  19  21
ENDBRANCH   9  11
ENDBRANCH   5   9
BRANCH   4  32
ATOM     32  N04 MOL d           6.574  27.256   3.559  0.00  0.00    -0.188 N 
ATOM     33  H2  MOL d           6.516  26.358   3.060  0.00  0.00     0.184 HD
BRANCH  32  34
ATOM     34  C16 MOL d           7.153  27.231   4.870  0.00  0.00     0.049 A 
ATOM     35  C17 MOL d           6.389  27.691   5.934  0.00  0.00    -0.056 A 
ATOM     36  C18 MOL d           6.897  27.672   7.224  0.00  0.00    -0.064 A 
ATOM     37  H9  MOL d           5.388  28.067   5.755  0.00  0.00     0.087 H 
ATOM     38  C19 MOL d           8.178  27.189   7.452  0.00  0.00     0.041 A 
ATOM     39  H10 MOL d           6.297  28.034   8.051  0.00  0.00     0.085 H 
ATOM     40  C20 MOL d           8.945  26.721   6.390  0.00  0.00    -0.064 A 
ATOM     41  C21 MOL d           8.431  26.738   5.099  0.00  0.00    -0.056 A 
ATOM     42  H11 MOL d           9.945  26.343   6.569  0.00  0.00     0.085 H 
ATOM     43  H12 MOL d           9.026  26.367   4.273  0.00  0.00     0.087 H 
BRANCH  38  44
ATOM     44  C22 MOL d           8.723  27.175   8.842  0.00  0.00     0.209 C 
ATOM     45  O28 MOL d           9.790  26.550   9.088  0.00  0.00    -0.644 OA
ATOM     46  O29 MOL d           8.118  27.785   9.767  0.00  0.00    -0.644 OA
ENDBRANCH  38  44
ENDBRANCH  32  34
ENDBRANCH   4  32
TORSDOF 6
ENDMDL
MODEL 7
REMARK VINA RESULT:      -7.3      3.041      4.638
REMARK  6 active torsions:
REMARK  status: ('A' for Active; 'I' for Inactive)
REMARK    1  A    between atoms: C07_7  and  N03_3 
REMARK    2  A    between atoms: N03_3  and  C09_9 
REMARK    3  A    between atoms: C06_6  and  N04_4 
REMARK    4  A    between atoms: N04_4  and  C16_16 
REMARK    5  A    between atoms: C14_14  and  C15_15 
REMARK    6  A    between atoms: C19_19  and  C22_22 
ROOT
ATOM      1  N01 MOL d           5.530  29.296   0.192  0.00  0.00    -0.075 NA
ATOM      2  N02 MOL d           5.637  29.274   2.532  0.00  0.00    -0.045 NA
ATOM      3  C05 MOL d           6.010  28.043   0.137  0.00  0.00     0.025 A 
ATOM      4  C06 MOL d           5.356  29.892   1.376  0.00  0.00     0.728 A 
ATOM      5  C07 MOL d           6.121  28.014   2.525  0.00  0.00     0.148 A 
ATOM      6  C08 MOL d           6.322  27.362   1.309  0.00  0.00    -0.021 A 
ATOM      7  H3  MOL d           6.154  27.561  -0.823  0.00  0.00     0.115 H 
ATOM      8  H4  MOL d           6.712  26.351   1.278  0.00  0.00     0.091 H 
ENDROOT
BRANCH   5   9
ATOM      9  N03 MOL d           6.439  27.323   3.749  0.00  0.00    -0.340 N 
ATOM     10  H1  MOL d           6.108  26.355   3.875  0.00  0.00     0.167 HD
BRANCH   9  11
ATOM     11  C09 MOL d           7.203  27.937   4.799  0.00  0.00     0.044 A 
ATOM     12  C10 MOL d           6.611  28.184   6.029  0.00  0.00    -0.056 A 
ATOM     13  C11 MOL d           7.344  28.782   7.044  0.00  0.00    -0.081 A 
ATOM     14  H5  MOL d           5.576  27.909   6.197  0.00  0.00     0.086 H 
ATOM     15  C12 MOL d           8.666  29.142   6.843  0.00  0.00    -0.082 A 
ATOM     16  H6  MOL d           6.876  28.969   8.004  0.00  0.00     0.083 H 
ATOM     17  C13 MOL d           9.257  28.900   5.613  0.00  0.00    -0.070 A 
ATOM     18  H7  MOL d           9.233  29.609   7.640  0.00  0.00     0.083 H 
ATOM     19  C14 MOL d           8.531  28.301   4.592  0.00  0.00     0.001 A 
ATOM     20  H8  MOL d          10.291  29.180   5.448  0.00  0.00     0.084 H 
BRANCH  19  21
ATOM     21  C15 MOL d           9.204  28.051   3.282  0.00  0.00    -0.024 A 
ATOM     22  C23 MOL d           9.300  29.059   2.333  0.00  0.00    -0.072 A 
ATOM     23  C24 MOL d           9.933  28.811   1.125  0.00  0.00    -0.082 A 
ATOM     24  H13 MOL d           8.880  30.038   2.536  0.00  0.00     0.084 H 
ATOM     25  C25 MOL d          10.470  27.559   0.869  0.00  0.00    -0.083 A 
ATOM     26  H14 MOL d          10.008  29.596   0.381  0.00  0.00     0.083 H 
ATOM     27  C26 MOL d          10.378  26.551   1.814  0.00  0.00    -0.082 A 
ATOM     28  H15 MOL d          10.966  27.368  -0.077  0.00  0.00     0.083 H 
ATOM     29  C27 MOL d           9.746  26.800   3.022  0.00  0.00    -0.072 A 
ATOM     30  H16 MOL d          10.798  25.572   1.610  0.00  0.00     0.083 H 
ATOM     31  H17 MOL d           9.675  26.015   3.767  0.00  0.00     0.084 H 
ENDBRANCH  19  21
ENDBRANCH   9  11
ENDBRANCH   5   9
BRANCH   4  32
ATOM     32  N04 MOL d           4.831  31.229   1.350  0.00  0.00    -0.188 N 
ATOM     33  H2  MOL d           5.133  31.831   0.571  0.00  0.00     0.184 HD
BRANCH  32  34
ATOM     34  C16 MOL d           3.928  31.807   2.300  0.00  0.00     0.049 A 
ATOM     35  C17 MOL d           2.926  32.646   1.827  0.00  0.00    -0.056 A 
ATOM     36  C18 MOL d           2.018  33.218   2.704  0.00  0.00    -0.064 A 
ATOM     37  H9  MOL d           2.855  32.853   0.766  0.00  0.00     0.087 H 
ATOM     38  C19 MOL d           2.109  32.950   4.062  0.00  0.00     0.041 A 
ATOM     39  H10 MOL d           1.239  33.873   2.329  0.00  0.00     0.085 H 
ATOM     40  C20 MOL d           3.106  32.106   4.540  0.00  0.00    -0.064 A 
ATOM     41  C21 MOL d           4.013  31.531   3.658  0.00  0.00    -0.056 A 
ATOM     42  H11 MOL d           3.176  31.896   5.601  0.00  0.00     0.085 H 
ATOM     43  H12 MOL d           4.786  30.868   4.030  0.00  0.00     0.087 H 
BRANCH  38  44
ATOM     44  C22 MOL d           1.131  33.572   5.004  0.00  0.00     0.209 C 
ATOM     45  O28 MOL d           1.131  33.235   6.218  0.00  0.00    -0.644 OA
ATOM     46  O29 MOL d           0.307  34.432   4.584  0.00  0.00    -0.644 OA
ENDBRANCH  38  44
ENDBRANCH  32  34
ENDBRANCH   4  32
TORSDOF 6
ENDMDL
MODEL 8
REMARK VINA RESULT:      -7.3      3.632      6.988
REMARK  6 active torsions:
REMARK  status: ('A' for Active; 'I' for Inactive)
REMARK    1  A    between atoms: C07_7  and  N03_3 
REMARK    2  A    between atoms: N03_3  and  C09_9 
REMARK    3  A    between atoms: C06_6  and  N04_4 
REMARK    4  A    between atoms: N04_4  and  C16_16 
REMARK    5  A    between atoms: C14_14  and  C15_15 
REMARK    6  A    between atoms: C19_19  and  C22_22 
ROOT
ATOM      1  N01 MOL d           3.315  32.031   7.105  0.00  0.00    -0.075 NA
ATOM      2  N02 MOL d           3.708  30.545   5.338  0.00  0.00    -0.045 NA
ATOM      3  C05 MOL d           2.850  32.956   6.251  0.00  0.00     0.025 A 
ATOM      4  C06 MOL d           3.739  30.851   6.643  0.00  0.00     0.728 A 
ATOM      5  C07 MOL d           3.248  31.443   4.443  0.00  0.00     0.148 A 
ATOM      6  C08 MOL d           2.803  32.688   4.886  0.00  0.00    -0.021 A 
ATOM      7  H3  MOL d           2.509  33.914   6.625  0.00  0.00     0.115 H 
ATOM      8  H4  MOL d           2.431  33.427   4.186  0.00  0.00     0.091 H 
ENDROOT
BRANCH   5   9
ATOM      9  N03 MOL d           3.207  31.149   3.033  0.00  0.00    -0.340 N 
ATOM     10  H1  MOL d           2.795  30.257   2.722  0.00  0.00     0.167 HD
BRANCH   9  11
ATOM     11  C09 MOL d           3.720  32.058   2.046  0.00  0.00     0.044 A 
ATOM     12  C10 MOL d           3.181  33.331   1.934  0.00  0.00    -0.056 A 
ATOM     13  C11 MOL d           3.670  34.210   0.978  0.00  0.00    -0.081 A 
ATOM     14  H5  MOL d           2.378  33.639   2.594  0.00  0.00     0.086 H 
ATOM     15  C12 MOL d           4.693  33.829   0.126  0.00  0.00    -0.082 A 
ATOM     16  H6  MOL d           3.247  35.205   0.898  0.00  0.00     0.083 H 
ATOM     17  C13 MOL d           5.229  32.556   0.234  0.00  0.00    -0.070 A 
ATOM     18  H7  MOL d           5.070  34.521  -0.619  0.00  0.00     0.083 H 
ATOM     19  C14 MOL d           4.746  31.670   1.188  0.00  0.00     0.001 A 
ATOM     20  H8  MOL d           6.029  32.250  -0.430  0.00  0.00     0.084 H 
BRANCH  19  21
ATOM     21  C15 MOL d           5.353  30.308   1.278  0.00  0.00    -0.024 A 
ATOM     22  C23 MOL d           5.347  29.459   0.180  0.00  0.00    -0.072 A 
ATOM     23  C24 MOL d           5.920  28.200   0.280  0.00  0.00    -0.082 A 
ATOM     24  H13 MOL d           4.896  29.778  -0.752  0.00  0.00     0.084 H 
ATOM     25  C25 MOL d           6.498  27.794   1.473  0.00  0.00    -0.083 A 
ATOM     26  H14 MOL d           5.915  27.533  -0.575  0.00  0.00     0.083 H 
ATOM     27  C26 MOL d           6.507  28.640   2.570  0.00  0.00    -0.082 A 
ATOM     28  H15 MOL d           6.946  26.809   1.548  0.00  0.00     0.083 H 
ATOM     29  C27 MOL d           5.935  29.899   2.469  0.00  0.00    -0.072 A 
ATOM     30  H16 MOL d           6.958  28.320   3.502  0.00  0.00     0.083 H 
ATOM     31  H17 MOL d           5.943  30.566   3.324  0.00  0.00     0.084 H 
ENDBRANCH  19  21
ENDBRANCH   9  11
ENDBRANCH   5   9
BRANCH   4  32
ATOM     32  N04 MOL d           4.214  29.912   7.621  0.00  0.00    -0.188 N 
ATOM     33  H2  MOL d           3.606  29.743   8.435  0.00  0.00     0.184 HD
BRANCH  32  34
ATOM     34  C16 MOL d           5.450  29.188   7.577  0.00  0.00     0.049 A 
ATOM     35  C17 MOL d           6.109  29.089   6.358  0.00  0.00    -0.056 A 
ATOM     36  C18 MOL d           7.315  28.412   6.266  0.00  0.00    -0.064 A 
ATOM     37  H9  MOL d           5.677  29.544   5.474  0.00  0.00     0.087 H 
ATOM     38  C19 MOL d           7.868  27.831   7.399  0.00  0.00     0.041 A 
ATOM     39  H10 MOL d           7.825  28.336   5.312  0.00  0.00     0.085 H 
ATOM     40  C20 MOL d           7.215  27.934   8.622  0.00  0.00    -0.064 A 
ATOM     41  C21 MOL d           6.007  28.616   8.712  0.00  0.00    -0.056 A 
ATOM     42  H11 MOL d           7.647  27.481   9.507  0.00  0.00     0.085 H 
ATOM     43  H12 MOL d           5.501  28.700   9.667  0.00  0.00     0.087 H 
BRANCH  38  44
ATOM     44  C22 MOL d           9.165  27.100   7.294  0.00  0.00     0.209 C 
ATOM     45  O28 MOL d           9.689  26.918   6.162  0.00  0.00    -0.644 OA
ATOM     46  O29 MOL d           9.735  26.666   8.334  0.00  0.00    -0.644 OA
ENDBRANCH  38  44
ENDBRANCH  32  34
ENDBRANCH   4  32
TORSDOF 6
ENDMDL
MODEL 9
REMARK VINA RESULT:      -7.1      2.940      5.317
REMARK  6 active torsions:
REMARK  status: ('A' for Active; 'I' for Inactive)
REMARK    1  A    between atoms: C07_7  and  N03_3 
REMARK    2  A    between atoms: N03_3  and  C09_9 
REMARK    3  A    between atoms: C06_6  and  N04_4 
REMARK    4  A    between atoms: N04_4  and  C16_16 
REMARK    5  A    between atoms: C14_14  and  C15_15 
REMARK    6  A    between atoms: C19_19  and  C22_22 
ROOT
ATOM      1  N01 MOL d           8.405  27.188   7.356  0.00  0.00    -0.075 NA
ATOM      2  N02 MOL d           7.594  28.450   5.557  0.00  0.00    -0.045 NA
ATOM      3  C05 MOL d           9.599  27.059   6.754  0.00  0.00     0.025 A 
ATOM      4  C06 MOL d           7.426  27.871   6.754  0.00  0.00     0.728 A 
ATOM      5  C07 MOL d           8.777  28.347   4.915  0.00  0.00     0.148 A 
ATOM      6  C08 MOL d           9.820  27.637   5.508  0.00  0.00    -0.021 A 
ATOM      7  H3  MOL d          10.392  26.504   7.240  0.00  0.00     0.115 H 
ATOM      8  H4  MOL d          10.778  27.539   5.012  0.00  0.00     0.091 H 
ENDROOT
BRANCH   5   9
ATOM      9  N03 MOL d           8.988  28.952   3.625  0.00  0.00    -0.340 N 
ATOM     10  H1  MOL d           9.001  29.980   3.553  0.00  0.00     0.167 HD
BRANCH   9  11
ATOM     11  C09 MOL d           9.183  28.171   2.435  0.00  0.00     0.044 A 
ATOM     12  C10 MOL d          10.285  27.335   2.332  0.00  0.00    -0.056 A 
ATOM     13  C11 MOL d          10.481  26.583   1.183  0.00  0.00    -0.081 A 
ATOM     14  H5  MOL d          10.994  27.269   3.150  0.00  0.00     0.086 H 
ATOM     15  C12 MOL d           9.586  26.659   0.128  0.00  0.00    -0.082 A 
ATOM     16  H6  MOL d          11.342  25.929   1.110  0.00  0.00     0.083 H 
ATOM     17  C13 MOL d           8.487  27.497   0.229  0.00  0.00    -0.070 A 
ATOM     18  H7  MOL d           9.744  26.068  -0.767  0.00  0.00     0.083 H 
ATOM     19  C14 MOL d           8.284  28.253   1.376  0.00  0.00     0.001 A 
ATOM     20  H8  MOL d           7.783  27.562  -0.592  0.00  0.00     0.084 H 
BRANCH  19  21
ATOM     21  C15 MOL d           7.084  29.141   1.449  0.00  0.00    -0.024 A 
ATOM     22  C23 MOL d           6.858  30.104   0.476  0.00  0.00    -0.072 A 
ATOM     23  C24 MOL d           5.737  30.915   0.557  0.00  0.00    -0.082 A 
ATOM     24  H13 MOL d           7.556  30.222  -0.345  0.00  0.00     0.084 H 
ATOM     25  C25 MOL d           4.845  30.762   1.608  0.00  0.00    -0.083 A 
ATOM     26  H14 MOL d           5.558  31.670  -0.200  0.00  0.00     0.083 H 
ATOM     27  C26 MOL d           5.067  29.800   2.580  0.00  0.00    -0.082 A 
ATOM     28  H15 MOL d           3.968  31.398   1.668  0.00  0.00     0.083 H 
ATOM     29  C27 MOL d           6.187  28.988   2.497  0.00  0.00    -0.072 A 
ATOM     30  H16 MOL d           4.369  29.684   3.401  0.00  0.00     0.083 H 
ATOM     31  H17 MOL d           6.363  28.232   3.254  0.00  0.00     0.084 H 
ENDBRANCH  19  21
ENDBRANCH   9  11
ENDBRANCH   5   9
BRANCH   4  32
ATOM     32  N04 MOL d           6.183  27.970   7.467  0.00  0.00    -0.188 N 
ATOM     33  H2  MOL d           5.943  27.188   8.092  0.00  0.00     0.184 HD
BRANCH  32  34
ATOM     34  C16 MOL d           5.244  29.051   7.395  0.00  0.00     0.049 A 
ATOM     35  C17 MOL d           4.899  29.538   6.141  0.00  0.00    -0.056 A 
ATOM     36  C18 MOL d           3.984  30.571   6.016  0.00  0.00    -0.064 A 
ATOM     37  H9  MOL d           5.348  29.106   5.253  0.00  0.00     0.087 H 
ATOM     38  C19 MOL d           3.408  31.121   7.153  0.00  0.00     0.041 A 
ATOM     39  H10 MOL d           3.719  30.948   5.035  0.00  0.00     0.085 H 
ATOM     40  C20 MOL d           3.745  30.633   8.410  0.00  0.00    -0.064 A 
ATOM     41  C21 MOL d           4.660  29.594   8.531  0.00  0.00    -0.056 A 
ATOM     42  H11 MOL d           3.294  31.062   9.298  0.00  0.00     0.085 H 
ATOM     43  H12 MOL d           4.918  29.209   9.511  0.00  0.00     0.087 H 
BRANCH  38  44
ATOM     44  C22 MOL d           2.425  32.237   7.014  0.00  0.00     0.209 C 
ATOM     45  O28 MOL d           2.123  32.664   5.868  0.00  0.00    -0.644 OA
ATOM     46  O29 MOL d           1.900  32.750   8.041  0.00  0.00    -0.644 OA
ENDBRANCH  38  44
ENDBRANCH  32  34
ENDBRANCH   4  32
TORSDOF 6
ENDMDL
MODEL 10
REMARK VINA RESULT:      -7.1      3.801      6.013
REMARK  6 active torsions:
REMARK  status: ('A' for Active; 'I' for Inactive)
REMARK    1  A    between atoms: C07_7  and  N03_3 
REMARK    2  A    between atoms: N03_3  and  C09_9 
REMARK    3  A    between atoms: C06_6  and  N04_4 
REMARK    4  A    between atoms: N04_4  and  C16_16 
REMARK    5  A    between atoms: C14_14  and  C15_15 
REMARK    6  A    between atoms: C19_19  and  C22_22 
ROOT
ATOM      1  N01 MOL d           4.472  30.897   1.018  0.00  0.00    -0.075 NA
ATOM      2  N02 MOL d           6.000  30.660   2.777  0.00  0.00    -0.045 NA
ATOM      3  C05 MOL d           5.408  30.530   0.127  0.00  0.00     0.025 A 
ATOM      4  C06 MOL d           4.778  30.962   2.317  0.00  0.00     0.728 A 
ATOM      5  C07 MOL d           6.973  30.286   1.918  0.00  0.00     0.148 A 
ATOM      6  C08 MOL d           6.693  30.213   0.554  0.00  0.00    -0.021 A 
ATOM      7  H3  MOL d           5.161  30.481  -0.927  0.00  0.00     0.115 H 
ATOM      8  H4  MOL d           7.458  29.917  -0.155  0.00  0.00     0.091 H 
ENDROOT
BRANCH   5   9
ATOM      9  N03 MOL d           8.299  29.960   2.378  0.00  0.00    -0.340 N 
ATOM     10  H1  MOL d           8.755  30.580   3.063  0.00  0.00     0.167 HD
BRANCH   9  11
ATOM     11  C09 MOL d           9.007  28.800   1.912  0.00  0.00     0.044 A 
ATOM     12  C10 MOL d           9.428  28.733   0.592  0.00  0.00    -0.056 A 
ATOM     13  C11 MOL d          10.108  27.612   0.137  0.00  0.00    -0.081 A 
ATOM     14  H5  MOL d           9.226  29.556  -0.083  0.00  0.00     0.086 H 
ATOM     15  C12 MOL d          10.370  26.551   0.988  0.00  0.00    -0.082 A 
ATOM     16  H6  MOL d          10.437  27.567  -0.895  0.00  0.00     0.083 H 
ATOM     17  C13 MOL d           9.946  26.616   2.305  0.00  0.00    -0.070 A 
ATOM     18  H7  MOL d          10.902  25.678   0.626  0.00  0.00     0.083 H 
ATOM     19  C14 MOL d           9.266  27.734   2.769  0.00  0.00     0.001 A 
ATOM     20  H8  MOL d          10.147  25.789   2.977  0.00  0.00     0.084 H 
BRANCH  19  21
ATOM     21  C15 MOL d           8.830  27.769   4.198  0.00  0.00    -0.024 A 
ATOM     22  C23 MOL d           9.592  28.427   5.153  0.00  0.00    -0.072 A 
ATOM     23  C24 MOL d           9.169  28.455   6.473  0.00  0.00    -0.082 A 
ATOM     24  H13 MOL d          10.515  28.919   4.868  0.00  0.00     0.084 H 
ATOM     25  C25 MOL d           7.987  27.828   6.835  0.00  0.00    -0.083 A 
ATOM     26  H14 MOL d           9.763  28.967   7.222  0.00  0.00     0.083 H 
ATOM     27  C26 MOL d           7.223  27.172   5.884  0.00  0.00    -0.082 A 
ATOM     28  H15 MOL d           7.658  27.852   7.869  0.00  0.00     0.083 H 
ATOM     29  C27 MOL d           7.645  27.145   4.564  0.00  0.00    -0.072 A 
ATOM     30  H16 MOL d           6.300  26.681   6.170  0.00  0.00     0.083 H 
ATOM     31  H17 MOL d           7.049  26.636   3.816  0.00  0.00     0.084 H 
ENDBRANCH  19  21
ENDBRANCH   9  11
ENDBRANCH   5   9
BRANCH   4  32
ATOM     32  N04 MOL d           3.720  31.354   3.206  0.00  0.00    -0.188 N 
ATOM     33  H2  MOL d           2.893  31.793   2.778  0.00  0.00     0.184 HD
BRANCH  32  34
ATOM     34  C16 MOL d           3.700  31.194   4.631  0.00  0.00     0.049 A 
ATOM     35  C17 MOL d           4.371  30.108   5.178  0.00  0.00    -0.056 A 
ATOM     36  C18 MOL d           4.395  29.917   6.550  0.00  0.00    -0.064 A 
ATOM     37  H9  MOL d           4.879  29.405   4.527  0.00  0.00     0.087 H 
ATOM     38  C19 MOL d           3.746  30.818   7.383  0.00  0.00     0.041 A 
ATOM     39  H10 MOL d           4.919  29.066   6.972  0.00  0.00     0.085 H 
ATOM     40  C20 MOL d           3.079  31.911   6.840  0.00  0.00    -0.064 A 
ATOM     41  C21 MOL d           3.060  32.101   5.463  0.00  0.00    -0.056 A 
ATOM     42  H11 MOL d           2.573  32.615   7.490  0.00  0.00     0.085 H 
ATOM     43  H12 MOL d           2.544  32.956   5.041  0.00  0.00     0.087 H 
BRANCH  38  44
ATOM     44  C22 MOL d           3.772  30.606   8.860  0.00  0.00     0.209 C 
ATOM     45  O28 MOL d           3.174  31.416   9.618  0.00  0.00    -0.644 OA
ATOM     46  O29 MOL d           4.391  29.620   9.349  0.00  0.00    -0.644 OA
ENDBRANCH  38  44
ENDBRANCH  32  34
ENDBRANCH   4  32
TORSDOF 6
ENDMDL
