MODEL 1
REMARK VINA RESULT:      -5.1      0.000      0.000
REMARK  8 active torsions:
REMARK  status: ('A' for Active; 'I' for Inactive)
REMARK    1  A    between atoms: CAF_6  and  OAA_1 
REMARK    2  A    between atoms: CAG_7  and  OAB_2 
REMARK    3  A    between atoms: CAJ_10  and  OAC_3 
REMARK    4  A    between atoms: CAK_11  and  OAD_4 
REMARK    5  A    between atoms: CAL_12  and  OAE_5 
REMARK    6  A    between atoms: CAH_8  and  CAF_6 
REMARK    7  A    between atoms: CAM_13  and  CAG_7 
REMARK    8  A    between atoms: NAN_14  and  CAH_8 
ROOT
ATOM      1  CAI MIG d          45.259  92.782  36.241  0.00  0.00     0.110 C 
ATOM      2  CAJ MIG d          46.788  92.739  36.016  0.00  0.00     0.086 C 
ATOM      3  CAK MIG d          47.132  92.985  34.542  0.00  0.00     0.088 C 
ATOM      4  CAL MIG d          46.410  91.927  33.685  0.00  0.00     0.092 C 
ATOM      5  CAM MIG d          44.888  91.946  33.957  0.00  0.00     0.151 C 
ATOM      6  NAN MIG d          44.680  91.729  35.423  0.00  0.00    -0.058 N 
ATOM      7  H12 MIG d          44.859  93.760  35.937  0.00  0.00     0.080 H 
ATOM      8  H13 MIG d          45.028  92.606  37.302  0.00  0.00     0.080 H 
ATOM      9  H14 MIG d          47.145  91.732  36.273  0.00  0.00     0.089 H 
ATOM     10  H15 MIG d          46.781  93.990  34.263  0.00  0.00     0.091 H 
ATOM     11  H16 MIG d          46.793  90.928  33.941  0.00  0.00     0.090 H 
ATOM     12  H17 MIG d          44.474  92.920  33.659  0.00  0.00     0.092 H 
ATOM     13  H18 MIG d          45.207  90.898  35.641  0.00  0.00     0.280 HD
ENDROOT
BRANCH   6  14
ATOM     14  CAH MIG d          43.287  91.415  35.815  0.00  0.00     0.103 C 
ATOM     15  H10 MIG d          42.758  91.017  34.937  0.00  0.00     0.079 H 
ATOM     16  H11 MIG d          43.310  90.651  36.606  0.00  0.00     0.079 H 
BRANCH  14  17
ATOM     17  CAF MIG d          42.518  92.631  36.337  0.00  0.00     0.039 C 
ATOM     18  H6  MIG d          41.710  92.312  37.012  0.00  0.00     0.076 H 
ATOM     19  H7  MIG d          43.196  93.312  36.872  0.00  0.00     0.076 H 
BRANCH  17  20
ATOM     20  OAA MIG d          41.977  93.274  35.186  0.00  0.00    -0.399 OA
ATOM     21  H1  MIG d          41.035  93.350  35.281  0.00  0.00     0.209 HD
ENDBRANCH  17  20
ENDBRANCH  14  17
ENDBRANCH   6  14
BRANCH   5  22
ATOM     22  CAG MIG d          44.165  90.833  33.189  0.00  0.00     0.046 C 
ATOM     23  H8  MIG d          43.350  90.429  33.806  0.00  0.00     0.077 H 
ATOM     24  H9  MIG d          43.752  91.238  32.254  0.00  0.00     0.077 H 
BRANCH  22  25
ATOM     25  OAB MIG d          45.115  89.777  32.884  0.00  0.00    -0.399 OA
ATOM     26  H2  MIG d          45.926  89.936  33.353  0.00  0.00     0.209 HD
ENDBRANCH  22  25
ENDBRANCH   5  22
BRANCH   2  27
ATOM     27  OAC MIG d          47.419  93.661  36.900  0.00  0.00    -0.391 OA
ATOM     28  H3  MIG d          46.990  93.631  37.747  0.00  0.00     0.210 HD
ENDBRANCH   2  27
BRANCH   4  29
ATOM     29  OAE MIG d          46.720  92.206  32.333  0.00  0.00    -0.391 OA
ATOM     30  H5  MIG d          46.688  91.401  31.829  0.00  0.00     0.210 HD
ENDBRANCH   4  29
BRANCH   3  31
ATOM     31  OAD MIG d          48.549  92.896  34.261  0.00  0.00    -0.390 OA
ATOM     32  H4  MIG d          48.893  92.088  34.625  0.00  0.00     0.210 HD
ENDBRANCH   3  31
TORSDOF 8
ENDMDL
MODEL 2
REMARK VINA RESULT:      -4.5      1.799      4.795
REMARK  8 active torsions:
REMARK  status: ('A' for Active; 'I' for Inactive)
REMARK    1  A    between atoms: CAF_6  and  OAA_1 
REMARK    2  A    between atoms: CAG_7  and  OAB_2 
REMARK    3  A    between atoms: CAJ_10  and  OAC_3 
REMARK    4  A    between atoms: CAK_11  and  OAD_4 
REMARK    5  A    between atoms: CAL_12  and  OAE_5 
REMARK    6  A    between atoms: CAH_8  and  CAF_6 
REMARK    7  A    between atoms: CAM_13  and  CAG_7 
REMARK    8  A    between atoms: NAN_14  and  CAH_8 
ROOT
ATOM      1  CAI MIG d          45.694  91.115  33.407  0.00  0.00     0.110 C 
ATOM      2  CAJ MIG d          44.727  89.926  33.611  0.00  0.00     0.086 C 
ATOM      3  CAK MIG d          43.425  90.387  34.279  0.00  0.00     0.088 C 
ATOM      4  CAL MIG d          43.773  91.064  35.620  0.00  0.00     0.092 C 
ATOM      5  CAM MIG d          44.780  92.218  35.407  0.00  0.00     0.151 C 
ATOM      6  NAN MIG d          45.987  91.656  34.724  0.00  0.00    -0.058 N 
ATOM      7  H12 MIG d          45.221  91.884  32.779  0.00  0.00     0.080 H 
ATOM      8  H13 MIG d          46.622  90.770  32.926  0.00  0.00     0.080 H 
ATOM      9  H14 MIG d          45.208  89.207  34.290  0.00  0.00     0.089 H 
ATOM     10  H15 MIG d          42.929  91.111  33.616  0.00  0.00     0.091 H 
ATOM     11  H16 MIG d          44.233  90.325  36.292  0.00  0.00     0.090 H 
ATOM     12  H17 MIG d          44.319  92.995  34.778  0.00  0.00     0.092 H 
ATOM     13  H18 MIG d          46.259  90.865  35.286  0.00  0.00     0.280 HD
ENDROOT
BRANCH   6  14
ATOM     14  CAH MIG d          47.169  92.547  34.716  0.00  0.00     0.103 C 
ATOM     15  H10 MIG d          47.097  93.231  35.574  0.00  0.00     0.079 H 
ATOM     16  H11 MIG d          48.073  91.929  34.814  0.00  0.00     0.079 H 
BRANCH  14  17
ATOM     17  CAF MIG d          47.288  93.382  33.438  0.00  0.00     0.039 C 
ATOM     18  H6  MIG d          48.336  93.662  33.261  0.00  0.00     0.076 H 
ATOM     19  H7  MIG d          46.908  92.815  32.575  0.00  0.00     0.076 H 
BRANCH  17  20
ATOM     20  OAA MIG d          46.493  94.544  33.656  0.00  0.00    -0.399 OA
ATOM     21  H1  MIG d          45.807  94.585  33.000  0.00  0.00     0.209 HD
ENDBRANCH  17  20
ENDBRANCH  14  17
ENDBRANCH   6  14
BRANCH   5  22
ATOM     22  CAG MIG d          45.214  92.838  36.740  0.00  0.00     0.046 C 
ATOM     23  H8  MIG d          45.655  92.061  37.382  0.00  0.00     0.077 H 
ATOM     24  H9  MIG d          45.957  93.628  36.556  0.00  0.00     0.077 H 
BRANCH  22  25
ATOM     25  OAB MIG d          44.050  93.409  37.397  0.00  0.00    -0.399 OA
ATOM     26  H2  MIG d          43.591  93.976  36.789  0.00  0.00     0.209 HD
ENDBRANCH  22  25
ENDBRANCH   5  22
BRANCH   2  27
ATOM     27  OAC MIG d          44.516  89.272  32.364  0.00  0.00    -0.391 OA
ATOM     28  H3  MIG d          43.802  88.652  32.450  0.00  0.00     0.210 HD
ENDBRANCH   2  27
BRANCH   4  29
ATOM     29  OAE MIG d          42.555  91.507  36.188  0.00  0.00    -0.391 OA
ATOM     30  H5  MIG d          42.650  91.564  37.132  0.00  0.00     0.210 HD
ENDBRANCH   4  29
BRANCH   3  31
ATOM     31  OAD MIG d          42.506  89.303  34.551  0.00  0.00    -0.390 OA
ATOM     32  H4  MIG d          41.686  89.464  34.099  0.00  0.00     0.210 HD
ENDBRANCH   3  31
TORSDOF 8
ENDMDL
MODEL 3
REMARK VINA RESULT:      -3.8      1.535      3.964
REMARK  8 active torsions:
REMARK  status: ('A' for Active; 'I' for Inactive)
REMARK    1  A    between atoms: CAF_6  and  OAA_1 
REMARK    2  A    between atoms: CAG_7  and  OAB_2 
REMARK    3  A    between atoms: CAJ_10  and  OAC_3 
REMARK    4  A    between atoms: CAK_11  and  OAD_4 
REMARK    5  A    between atoms: CAL_12  and  OAE_5 
REMARK    6  A    between atoms: CAH_8  and  CAF_6 
REMARK    7  A    between atoms: CAM_13  and  CAG_7 
REMARK    8  A    between atoms: NAN_14  and  CAH_8 
ROOT
ATOM      1  CAI MIG d          45.750  92.707  35.532  0.00  0.00     0.110 C 
ATOM      2  CAJ MIG d          44.406  92.917  36.267  0.00  0.00     0.086 C 
ATOM      3  CAK MIG d          43.568  91.632  36.255  0.00  0.00     0.088 C 
ATOM      4  CAL MIG d          43.345  91.205  34.790  0.00  0.00     0.092 C 
ATOM      5  CAM MIG d          44.694  91.048  34.052  0.00  0.00     0.151 C 
ATOM      6  NAN MIG d          45.431  92.346  34.159  0.00  0.00    -0.058 N 
ATOM      7  H12 MIG d          46.322  91.899  36.011  0.00  0.00     0.080 H 
ATOM      8  H13 MIG d          46.341  93.635  35.551  0.00  0.00     0.080 H 
ATOM      9  H14 MIG d          43.836  93.686  35.727  0.00  0.00     0.089 H 
ATOM     10  H15 MIG d          44.123  90.846  36.789  0.00  0.00     0.091 H 
ATOM     11  H16 MIG d          42.756  91.976  34.272  0.00  0.00     0.090 H 
ATOM     12  H17 MIG d          45.278  90.244  34.524  0.00  0.00     0.092 H 
ATOM     13  H18 MIG d          44.777  93.044  33.843  0.00  0.00     0.280 HD
ENDROOT
BRANCH   6  14
ATOM     14  CAH MIG d          46.599  92.476  33.259  0.00  0.00     0.103 C 
ATOM     15  H10 MIG d          47.157  91.528  33.272  0.00  0.00     0.079 H 
ATOM     16  H11 MIG d          46.234  92.672  32.240  0.00  0.00     0.079 H 
BRANCH  14  17
ATOM     17  CAF MIG d          47.549  93.606  33.661  0.00  0.00     0.039 C 
ATOM     18  H6  MIG d          47.963  94.095  32.767  0.00  0.00     0.076 H 
ATOM     19  H7  MIG d          47.020  94.350  34.275  0.00  0.00     0.076 H 
BRANCH  17  20
ATOM     20  OAA MIG d          48.589  92.992  34.416  0.00  0.00    -0.399 OA
ATOM     21  H1  MIG d          48.357  92.088  34.596  0.00  0.00     0.209 HD
ENDBRANCH  17  20
ENDBRANCH  14  17
ENDBRANCH   6  14
BRANCH   5  22
ATOM     22  CAG MIG d          44.489  90.721  32.569  0.00  0.00     0.046 C 
ATOM     23  H8  MIG d          43.522  91.125  32.233  0.00  0.00     0.077 H 
ATOM     24  H9  MIG d          45.299  91.170  31.976  0.00  0.00     0.077 H 
BRANCH  22  25
ATOM     25  OAB MIG d          44.501  89.278  32.397  0.00  0.00    -0.399 OA
ATOM     26  H2  MIG d          43.902  89.038  31.700  0.00  0.00     0.209 HD
ENDBRANCH  22  25
ENDBRANCH   5  22
BRANCH   2  27
ATOM     27  OAC MIG d          44.661  93.407  37.580  0.00  0.00    -0.391 OA
ATOM     28  H3  MIG d          45.530  93.139  37.854  0.00  0.00     0.210 HD
ENDBRANCH   2  27
BRANCH   4  29
ATOM     29  OAE MIG d          42.601  90.001  34.819  0.00  0.00    -0.391 OA
ATOM     30  H5  MIG d          41.852  90.107  35.394  0.00  0.00     0.210 HD
ENDBRANCH   4  29
BRANCH   3  31
ATOM     31  OAD MIG d          42.271  91.788  36.877  0.00  0.00    -0.390 OA
ATOM     32  H4  MIG d          42.276  91.364  37.728  0.00  0.00     0.210 HD
ENDBRANCH   3  31
TORSDOF 8
ENDMDL
MODEL 4
REMARK VINA RESULT:      -3.6      1.400      3.891
REMARK  8 active torsions:
REMARK  status: ('A' for Active; 'I' for Inactive)
REMARK    1  A    between atoms: CAF_6  and  OAA_1 
REMARK    2  A    between atoms: CAG_7  and  OAB_2 
REMARK    3  A    between atoms: CAJ_10  and  OAC_3 
REMARK    4  A    between atoms: CAK_11  and  OAD_4 
REMARK    5  A    between atoms: CAL_12  and  OAE_5 
REMARK    6  A    between atoms: CAH_8  and  CAF_6 
REMARK    7  A    between atoms: CAM_13  and  CAG_7 
REMARK    8  A    between atoms: NAN_14  and  CAH_8 
ROOT
ATOM      1  CAI MIG d          44.500  92.469  36.169  0.00  0.00     0.110 C 
ATOM      2  CAJ MIG d          43.302  91.616  35.688  0.00  0.00     0.086 C 
ATOM      3  CAK MIG d          43.775  90.462  34.796  0.00  0.00     0.088 C 
ATOM      4  CAL MIG d          44.559  91.049  33.605  0.00  0.00     0.092 C 
ATOM      5  CAM MIG d          45.722  91.940  34.100  0.00  0.00     0.151 C 
ATOM      6  NAN MIG d          45.145  93.003  34.981  0.00  0.00    -0.058 N 
ATOM      7  H12 MIG d          45.206  91.843  36.734  0.00  0.00     0.080 H 
ATOM      8  H13 MIG d          44.146  93.291  36.809  0.00  0.00     0.080 H 
ATOM      9  H14 MIG d          42.649  92.257  35.078  0.00  0.00     0.089 H 
ATOM     10  H15 MIG d          44.434  89.809  35.387  0.00  0.00     0.091 H 
ATOM     11  H16 MIG d          43.885  91.669  32.996  0.00  0.00     0.090 H 
ATOM     12  H17 MIG d          46.437  91.327  34.670  0.00  0.00     0.092 H 
ATOM     13  H18 MIG d          44.405  93.419  34.436  0.00  0.00     0.280 HD
ENDROOT
BRANCH   6  14
ATOM     14  CAH MIG d          46.066  94.119  35.295  0.00  0.00     0.103 C 
ATOM     15  H10 MIG d          46.121  94.783  34.421  0.00  0.00     0.079 H 
ATOM     16  H11 MIG d          45.660  94.676  36.153  0.00  0.00     0.079 H 
BRANCH  14  17
ATOM     17  CAF MIG d          47.481  93.654  35.645  0.00  0.00     0.039 C 
ATOM     18  H6  MIG d          47.803  92.858  34.957  0.00  0.00     0.076 H 
ATOM     19  H7  MIG d          48.186  94.497  35.586  0.00  0.00     0.076 H 
BRANCH  17  20
ATOM     20  OAA MIG d          47.412  93.158  36.978  0.00  0.00    -0.399 OA
ATOM     21  H1  MIG d          47.951  92.380  37.054  0.00  0.00     0.209 HD
ENDBRANCH  17  20
ENDBRANCH  14  17
ENDBRANCH   6  14
BRANCH   5  22
ATOM     22  CAG MIG d          46.451  92.613  32.931  0.00  0.00     0.046 C 
ATOM     23  H8  MIG d          45.739  93.219  32.353  0.00  0.00     0.077 H 
ATOM     24  H9  MIG d          47.253  93.259  33.319  0.00  0.00     0.077 H 
BRANCH  22  25
ATOM     25  OAB MIG d          47.024  91.585  32.079  0.00  0.00    -0.399 OA
ATOM     26  H2  MIG d          46.364  91.277  31.469  0.00  0.00     0.209 HD
ENDBRANCH  22  25
ENDBRANCH   5  22
BRANCH   2  27
ATOM     27  OAC MIG d          42.552  91.181  36.817  0.00  0.00    -0.391 OA
ATOM     28  H3  MIG d          41.773  91.719  36.905  0.00  0.00     0.210 HD
ENDBRANCH   2  27
BRANCH   4  29
ATOM     29  OAE MIG d          45.009  89.957  32.826  0.00  0.00    -0.391 OA
ATOM     30  H5  MIG d          45.196  90.254  31.943  0.00  0.00     0.210 HD
ENDBRANCH   4  29
BRANCH   3  31
ATOM     31  OAD MIG d          42.689  89.665  34.266  0.00  0.00    -0.390 OA
ATOM     32  H4  MIG d          42.966  89.254  33.455  0.00  0.00     0.210 HD
ENDBRANCH   3  31
TORSDOF 8
ENDMDL
MODEL 5
REMARK VINA RESULT:      -2.5      1.560      3.826
REMARK  8 active torsions:
REMARK  status: ('A' for Active; 'I' for Inactive)
REMARK    1  A    between atoms: CAF_6  and  OAA_1 
REMARK    2  A    between atoms: CAG_7  and  OAB_2 
REMARK    3  A    between atoms: CAJ_10  and  OAC_3 
REMARK    4  A    between atoms: CAK_11  and  OAD_4 
REMARK    5  A    between atoms: CAL_12  and  OAE_5 
REMARK    6  A    between atoms: CAH_8  and  CAF_6 
REMARK    7  A    between atoms: CAM_13  and  CAG_7 
REMARK    8  A    between atoms: NAN_14  and  CAH_8 
ROOT
ATOM      1  CAI MIG d          43.408  90.881  35.437  0.00  0.00     0.110 C 
ATOM      2  CAJ MIG d          43.331  91.852  36.638  0.00  0.00     0.086 C 
ATOM      3  CAK MIG d          43.853  93.242  36.255  0.00  0.00     0.088 C 
ATOM      4  CAL MIG d          45.300  93.100  35.741  0.00  0.00     0.092 C 
ATOM      5  CAM MIG d          45.371  92.089  34.573  0.00  0.00     0.151 C 
ATOM      6  NAN MIG d          44.808  90.788  35.055  0.00  0.00    -0.058 N 
ATOM      7  H12 MIG d          42.813  91.270  34.598  0.00  0.00     0.080 H 
ATOM      8  H13 MIG d          43.029  89.890  35.727  0.00  0.00     0.080 H 
ATOM      9  H14 MIG d          43.982  91.464  37.434  0.00  0.00     0.089 H 
ATOM     10  H15 MIG d          43.215  93.647  35.455  0.00  0.00     0.091 H 
ATOM     11  H16 MIG d          45.940  92.731  36.556  0.00  0.00     0.090 H 
ATOM     12  H17 MIG d          44.777  92.464  33.727  0.00  0.00     0.092 H 
ATOM     13  H18 MIG d          45.307  90.589  35.909  0.00  0.00     0.280 HD
ENDROOT
BRANCH   6  14
ATOM     14  CAH MIG d          45.075  89.629  34.174  0.00  0.00     0.103 C 
ATOM     15  H10 MIG d          45.942  89.864  33.540  0.00  0.00     0.079 H 
ATOM     16  H11 MIG d          45.307  88.757  34.803  0.00  0.00     0.079 H 
BRANCH  14  17
ATOM     17  CAF MIG d          43.892  89.274  33.270  0.00  0.00     0.039 C 
ATOM     18  H6  MIG d          43.496  88.281  33.530  0.00  0.00     0.076 H 
ATOM     19  H7  MIG d          43.095  90.025  33.370  0.00  0.00     0.076 H 
BRANCH  17  20
ATOM     20  OAA MIG d          44.405  89.270  31.941  0.00  0.00    -0.399 OA
ATOM     21  H1  MIG d          44.274  90.126  31.550  0.00  0.00     0.209 HD
ENDBRANCH  17  20
ENDBRANCH  14  17
ENDBRANCH   6  14
BRANCH   5  22
ATOM     22  CAG MIG d          46.816  91.859  34.116  0.00  0.00     0.046 C 
ATOM     23  H8  MIG d          47.472  92.613  34.575  0.00  0.00     0.077 H 
ATOM     24  H9  MIG d          47.144  90.854  34.419  0.00  0.00     0.077 H 
BRANCH  22  25
ATOM     25  OAB MIG d          46.877  91.975  32.669  0.00  0.00    -0.399 OA
ATOM     26  H2  MIG d          47.649  92.471  32.424  0.00  0.00     0.209 HD
ENDBRANCH  22  25
ENDBRANCH   5  22
BRANCH   2  27
ATOM     27  OAC MIG d          41.998  91.873  37.141  0.00  0.00    -0.391 OA
ATOM     28  H3  MIG d          41.840  91.086  37.649  0.00  0.00     0.210 HD
ENDBRANCH   2  27
BRANCH   4  29
ATOM     29  OAE MIG d          45.734  94.392  35.364  0.00  0.00    -0.391 OA
ATOM     30  H5  MIG d          45.673  94.976  36.111  0.00  0.00     0.210 HD
ENDBRANCH   4  29
BRANCH   3  31
ATOM     31  OAD MIG d          43.861  94.176  37.359  0.00  0.00    -0.390 OA
ATOM     32  H4  MIG d          44.072  95.045  37.036  0.00  0.00     0.210 HD
ENDBRANCH   3  31
TORSDOF 8
ENDMDL
