MODEL 1
REMARK VINA RESULT:      -6.4      0.000      0.000
REMARK  6 active torsions:
REMARK  status: ('A' for Active; 'I' for Inactive)
REMARK    1  A    between atoms: CA_1  and  C_2 
REMARK    2  A    between atoms: C6_6  and  CA_1 
REMARK    3  A    between atoms: CA_1  and  N_8 
REMARK    4  A    between atoms: C7_7  and  C3_3 
REMARK    5  A    between atoms: C4_4  and  N4_11 
REMARK    6  A    between atoms: C6_6  and  C7_7 
ROOT
ATOM      1  C7  Z70 d         -20.640  14.159  -5.114  0.00  0.00    -0.023 C 
ATOM      2  H5  Z70 d         -20.971  14.198  -4.066  0.00  0.00     0.042 H 
ATOM      3  H6  Z70 d         -21.413  14.604  -5.759  0.00  0.00     0.042 H 
ENDROOT
BRANCH   1   4
ATOM      4  C3  Z70 d         -20.463  12.698  -5.511  0.00  0.00     0.029 A 
ATOM      5  C5  Z70 d         -19.295  12.287  -6.314  0.00  0.00     0.028 A 
ATOM      6  N3  Z70 d         -19.485  10.918  -6.482  0.00  0.00    -0.226 NA
ATOM      7  H2  Z70 d         -18.480  12.906  -6.686  0.00  0.00     0.117 H 
ATOM      8  C4  Z70 d         -20.669  10.562  -5.828  0.00  0.00     0.199 A 
ATOM      9  N2  Z70 d         -21.272  11.616  -5.239  0.00  0.00    -0.329 N 
ATOM     10  H10 Z70 d         -22.149  11.612  -4.699  0.00  0.00     0.169 HD
BRANCH   8  11
ATOM     11  N4  Z70 d         -21.172   9.273  -5.792  0.00  0.00    -0.369 N 
ATOM     12  H11 Z70 d         -20.707   8.554  -5.220  0.00  0.00     0.159 HD
ATOM     13  H12 Z70 d         -22.013   9.033  -6.337  0.00  0.00     0.159 HD
ENDBRANCH   8  11
ENDBRANCH   1   4
BRANCH   1  14
ATOM     14  C6  Z70 d         -19.364  14.988  -5.249  0.00  0.00    -0.024 C 
ATOM     15  H3  Z70 d         -18.581  14.516  -4.637  0.00  0.00     0.037 H 
ATOM     16  H4  Z70 d         -19.058  14.980  -6.305  0.00  0.00     0.037 H 
BRANCH  14  17
ATOM     17  CA  Z70 d         -19.509  16.463  -4.797  0.00  0.00     0.182 C 
ATOM     18  H1  Z70 d         -18.614  17.018  -5.113  0.00  0.00     0.101 H 
BRANCH  17  19
ATOM     19  C   Z70 d         -20.753  17.197  -5.346  0.00  0.00     0.204 C 
ATOM     20  OXT Z70 d         -20.752  17.710  -6.533  0.00  0.00    -0.646 OA
ATOM     21  O   Z70 d         -21.805  17.314  -4.621  0.00  0.00    -0.646 OA
ENDBRANCH  17  19
BRANCH  17  22
ATOM     22  N   Z70 d         -19.588  16.436  -3.376  0.00  0.00    -0.065 N 
ATOM     23  H7  Z70 d         -18.672  16.590  -2.986  0.00  0.00     0.275 HD
ATOM     24  H8  Z70 d         -19.936  15.538  -3.076  0.00  0.00     0.275 HD
ATOM     25  H9  Z70 d         -20.214  17.160  -3.061  0.00  0.00     0.275 HD
ENDBRANCH  17  22
ENDBRANCH  14  17
ENDBRANCH   1  14
TORSDOF 6
ENDMDL
MODEL 2
REMARK VINA RESULT:      -6.1      1.234      1.442
REMARK  6 active torsions:
REMARK  status: ('A' for Active; 'I' for Inactive)
REMARK    1  A    between atoms: CA_1  and  C_2 
REMARK    2  A    between atoms: C6_6  and  CA_1 
REMARK    3  A    between atoms: CA_1  and  N_8 
REMARK    4  A    between atoms: C7_7  and  C3_3 
REMARK    5  A    between atoms: C4_4  and  N4_11 
REMARK    6  A    between atoms: C6_6  and  C7_7 
ROOT
ATOM      1  C7  Z70 d         -19.614  14.807  -5.390  0.00  0.00    -0.023 C 
ATOM      2  H5  Z70 d         -18.538  14.959  -5.218  0.00  0.00     0.042 H 
ATOM      3  H6  Z70 d         -20.177  15.125  -4.499  0.00  0.00     0.042 H 
ENDROOT
BRANCH   1   4
ATOM      4  C3  Z70 d         -19.863  13.320  -5.613  0.00  0.00     0.029 A 
ATOM      5  C5  Z70 d         -19.007  12.559  -6.544  0.00  0.00     0.028 A 
ATOM      6  N3  Z70 d         -19.539  11.273  -6.492  0.00  0.00    -0.226 NA
ATOM      7  H2  Z70 d         -18.163  12.917  -7.132  0.00  0.00     0.117 H 
ATOM      8  C4  Z70 d         -20.617  11.285  -5.601  0.00  0.00     0.199 A 
ATOM      9  N2  Z70 d         -20.828  12.505  -5.062  0.00  0.00    -0.329 N 
ATOM     10  H10 Z70 d         -21.556  12.770  -4.383  0.00  0.00     0.169 HD
BRANCH   8  11
ATOM     11  N4  Z70 d         -21.387  10.174  -5.306  0.00  0.00    -0.369 N 
ATOM     12  H11 Z70 d         -21.006   9.229  -5.455  0.00  0.00     0.159 HD
ATOM     13  H12 Z70 d         -22.341  10.292  -4.937  0.00  0.00     0.159 HD
ENDBRANCH   8  11
ENDBRANCH   1   4
BRANCH   1  14
ATOM     14  C6  Z70 d         -20.042  15.681  -6.568  0.00  0.00    -0.024 C 
ATOM     15  H3  Z70 d         -19.287  15.585  -7.361  0.00  0.00     0.037 H 
ATOM     16  H4  Z70 d         -21.010  15.311  -6.937  0.00  0.00     0.037 H 
BRANCH  14  17
ATOM     17  CA  Z70 d         -20.196  17.184  -6.225  0.00  0.00     0.182 C 
ATOM     18  H1  Z70 d         -20.324  17.748  -7.162  0.00  0.00     0.101 H 
BRANCH  17  19
ATOM     19  C   Z70 d         -21.379  17.526  -5.290  0.00  0.00     0.204 C 
ATOM     20  OXT Z70 d         -21.881  16.633  -4.502  0.00  0.00    -0.646 OA
ATOM     21  O   Z70 d         -21.882  18.706  -5.292  0.00  0.00    -0.646 OA
ENDBRANCH  17  19
BRANCH  17  22
ATOM     22  N   Z70 d         -18.986  17.571  -5.586  0.00  0.00    -0.065 N 
ATOM     23  H7  Z70 d         -19.147  18.398  -5.033  0.00  0.00     0.275 HD
ATOM     24  H8  Z70 d         -18.284  17.764  -6.284  0.00  0.00     0.275 HD
ATOM     25  H9  Z70 d         -18.668  16.824  -4.988  0.00  0.00     0.275 HD
ENDBRANCH  17  22
ENDBRANCH  14  17
ENDBRANCH   1  14
TORSDOF 6
ENDMDL
MODEL 3
REMARK VINA RESULT:      -6.0      1.484      1.806
REMARK  6 active torsions:
REMARK  status: ('A' for Active; 'I' for Inactive)
REMARK    1  A    between atoms: CA_1  and  C_2 
REMARK    2  A    between atoms: C6_6  and  CA_1 
REMARK    3  A    between atoms: CA_1  and  N_8 
REMARK    4  A    between atoms: C7_7  and  C3_3 
REMARK    5  A    between atoms: C4_4  and  N4_11 
REMARK    6  A    between atoms: C6_6  and  C7_7 
ROOT
ATOM      1  C7  Z70 d         -19.929  14.586  -5.405  0.00  0.00    -0.023 C 
ATOM      2  H5  Z70 d         -19.753  15.057  -6.384  0.00  0.00     0.042 H 
ATOM      3  H6  Z70 d         -19.051  14.741  -4.761  0.00  0.00     0.042 H 
ENDROOT
BRANCH   1   4
ATOM      4  C3  Z70 d         -20.112  13.087  -5.617  0.00  0.00     0.029 A 
ATOM      5  C5  Z70 d         -19.127  12.327  -6.411  0.00  0.00     0.028 A 
ATOM      6  N3  Z70 d         -19.631  11.028  -6.392  0.00  0.00    -0.226 NA
ATOM      7  H2  Z70 d         -18.224  12.693  -6.896  0.00  0.00     0.117 H 
ATOM      8  C4  Z70 d         -20.814  11.034  -5.646  0.00  0.00     0.199 A 
ATOM      9  N2  Z70 d         -21.121  12.260  -5.171  0.00  0.00    -0.329 N 
ATOM     10  H10 Z70 d         -21.935  12.522  -4.598  0.00  0.00     0.169 HD
BRANCH   8  11
ATOM     11  N4  Z70 d         -21.589   9.910  -5.420  0.00  0.00    -0.369 N 
ATOM     12  H11 Z70 d         -21.250   8.983  -5.714  0.00  0.00     0.159 HD
ATOM     13  H12 Z70 d         -22.505  10.000  -4.958  0.00  0.00     0.159 HD
ENDBRANCH   8  11
ENDBRANCH   1   4
BRANCH   1  14
ATOM     14  C6  Z70 d         -21.133  15.262  -4.753  0.00  0.00    -0.024 C 
ATOM     15  H3  Z70 d         -21.842  14.480  -4.444  0.00  0.00     0.037 H 
ATOM     16  H4  Z70 d         -20.781  15.808  -3.865  0.00  0.00     0.037 H 
BRANCH  14  17
ATOM     17  CA  Z70 d         -21.882  16.259  -5.672  0.00  0.00     0.182 C 
ATOM     18  H1  Z70 d         -22.914  16.367  -5.308  0.00  0.00     0.101 H 
BRANCH  17  19
ATOM     19  C   Z70 d         -21.251  17.668  -5.762  0.00  0.00     0.204 C 
ATOM     20  OXT Z70 d         -21.648  18.624  -4.989  0.00  0.00    -0.646 OA
ATOM     21  O   Z70 d         -20.325  17.905  -6.618  0.00  0.00    -0.646 OA
ENDBRANCH  17  19
BRANCH  17  22
ATOM     22  N   Z70 d         -21.882  15.678  -6.970  0.00  0.00    -0.065 N 
ATOM     23  H7  Z70 d         -21.015  15.897  -7.437  0.00  0.00     0.275 HD
ATOM     24  H8  Z70 d         -22.654  16.047  -7.504  0.00  0.00     0.275 HD
ATOM     25  H9  Z70 d         -21.977  14.677  -6.891  0.00  0.00     0.275 HD
ENDBRANCH  17  22
ENDBRANCH  14  17
ENDBRANCH   1  14
TORSDOF 6
ENDMDL
MODEL 4
REMARK VINA RESULT:      -5.8      1.152      1.778
REMARK  6 active torsions:
REMARK  status: ('A' for Active; 'I' for Inactive)
REMARK    1  A    between atoms: CA_1  and  C_2 
REMARK    2  A    between atoms: C6_6  and  CA_1 
REMARK    3  A    between atoms: CA_1  and  N_8 
REMARK    4  A    between atoms: C7_7  and  C3_3 
REMARK    5  A    between atoms: C4_4  and  N4_11 
REMARK    6  A    between atoms: C6_6  and  C7_7 
ROOT
ATOM      1  C7  Z70 d         -18.725  14.371  -6.467  0.00  0.00    -0.023 C 
ATOM      2  H5  Z70 d         -19.164  14.797  -7.382  0.00  0.00     0.042 H 
ATOM      3  H6  Z70 d         -17.655  14.175  -6.631  0.00  0.00     0.042 H 
ENDROOT
BRANCH   1   4
ATOM      4  C3  Z70 d         -19.419  13.046  -6.171  0.00  0.00     0.029 A 
ATOM      5  C5  Z70 d         -20.663  13.025  -5.376  0.00  0.00     0.028 A 
ATOM      6  N3  Z70 d         -20.979  11.670  -5.309  0.00  0.00    -0.226 NA
ATOM      7  H2  Z70 d         -21.203  13.866  -4.945  0.00  0.00     0.117 H 
ATOM      8  C4  Z70 d         -19.998  10.961  -6.010  0.00  0.00     0.199 A 
ATOM      9  N2  Z70 d         -19.052  11.769  -6.535  0.00  0.00    -0.329 N 
ATOM     10  H10 Z70 d         -18.230  11.490  -7.091  0.00  0.00     0.169 HD
BRANCH   8  11
ATOM     11  N4  Z70 d         -19.991   9.585  -6.147  0.00  0.00    -0.369 N 
ATOM     12  H11 Z70 d         -19.782   8.987  -5.335  0.00  0.00     0.159 HD
ATOM     13  H12 Z70 d         -20.195   9.157  -7.062  0.00  0.00     0.159 HD
ENDBRANCH   8  11
ENDBRANCH   1   4
BRANCH   1  14
ATOM     14  C6  Z70 d         -18.862  15.396  -5.343  0.00  0.00    -0.024 C 
ATOM     15  H3  Z70 d         -19.464  14.948  -4.539  0.00  0.00     0.037 H 
ATOM     16  H4  Z70 d         -17.855  15.626  -4.962  0.00  0.00     0.037 H 
BRANCH  14  17
ATOM     17  CA  Z70 d         -19.534  16.726  -5.768  0.00  0.00     0.182 C 
ATOM     18  H1  Z70 d         -19.625  16.740  -6.865  0.00  0.00     0.101 H 
BRANCH  17  19
ATOM     19  C   Z70 d         -20.935  16.975  -5.164  0.00  0.00     0.204 C 
ATOM     20  OXT Z70 d         -21.338  16.315  -4.128  0.00  0.00    -0.646 OA
ATOM     21  O   Z70 d         -21.720  17.840  -5.693  0.00  0.00    -0.646 OA
ENDBRANCH  17  19
BRANCH  17  22
ATOM     22  N   Z70 d         -18.663  17.765  -5.338  0.00  0.00    -0.065 N 
ATOM     23  H7  Z70 d         -17.866  17.812  -5.954  0.00  0.00     0.275 HD
ATOM     24  H8  Z70 d         -18.352  17.575  -4.398  0.00  0.00     0.275 HD
ATOM     25  H9  Z70 d         -19.155  18.645  -5.358  0.00  0.00     0.275 HD
ENDBRANCH  17  22
ENDBRANCH  14  17
ENDBRANCH   1  14
TORSDOF 6
ENDMDL
MODEL 5
REMARK VINA RESULT:      -5.1      3.326      5.998
REMARK  6 active torsions:
REMARK  status: ('A' for Active; 'I' for Inactive)
REMARK    1  A    between atoms: CA_1  and  C_2 
REMARK    2  A    between atoms: C6_6  and  CA_1 
REMARK    3  A    between atoms: CA_1  and  N_8 
REMARK    4  A    between atoms: C7_7  and  C3_3 
REMARK    5  A    between atoms: C4_4  and  N4_11 
REMARK    6  A    between atoms: C6_6  and  C7_7 
ROOT
ATOM      1  C7  Z70 d         -21.119  14.343  -5.847  0.00  0.00    -0.023 C 
ATOM      2  H5  Z70 d         -21.035  14.043  -6.902  0.00  0.00     0.042 H 
ATOM      3  H6  Z70 d         -22.149  14.172  -5.498  0.00  0.00     0.042 H 
ENDROOT
BRANCH   1   4
ATOM      4  C3  Z70 d         -20.814  15.833  -5.741  0.00  0.00     0.029 A 
ATOM      5  C5  Z70 d         -21.882  16.780  -5.364  0.00  0.00     0.028 A 
ATOM      6  N3  Z70 d         -21.239  18.015  -5.387  0.00  0.00    -0.226 NA
ATOM      7  H2  Z70 d         -22.922  16.565  -5.125  0.00  0.00     0.117 H 
ATOM      8  C4  Z70 d         -19.904  17.802  -5.748  0.00  0.00     0.199 A 
ATOM      9  N2  Z70 d         -19.629  16.498  -5.965  0.00  0.00    -0.329 N 
ATOM     10  H10 Z70 d         -18.725  16.088  -6.240  0.00  0.00     0.169 HD
BRANCH   8  11
ATOM     11  N4  Z70 d         -18.969  18.813  -5.875  0.00  0.00    -0.369 N 
ATOM     12  H11 Z70 d         -19.231  19.788  -5.667  0.00  0.00     0.159 HD
ATOM     13  H12 Z70 d         -18.009  18.593  -6.176  0.00  0.00     0.159 HD
ENDBRANCH   8  11
ENDBRANCH   1   4
BRANCH   1  14
ATOM     14  C6  Z70 d         -20.178  13.467  -5.021  0.00  0.00    -0.024 C 
ATOM     15  H3  Z70 d         -19.408  14.114  -4.576  0.00  0.00     0.037 H 
ATOM     16  H4  Z70 d         -20.764  12.991  -4.221  0.00  0.00     0.037 H 
BRANCH  14  17
ATOM     17  CA  Z70 d         -19.467  12.353  -5.829  0.00  0.00     0.182 C 
ATOM     18  H1  Z70 d         -18.449  12.225  -5.433  0.00  0.00     0.101 H 
BRANCH  17  19
ATOM     19  C   Z70 d         -20.171  10.977  -5.810  0.00  0.00     0.204 C 
ATOM     20  OXT Z70 d         -21.399  10.866  -5.424  0.00  0.00    -0.646 OA
ATOM     21  O   Z70 d         -19.536   9.924  -6.173  0.00  0.00    -0.646 OA
ENDBRANCH  17  19
BRANCH  17  22
ATOM     22  N   Z70 d         -19.410  12.815  -7.174  0.00  0.00    -0.065 N 
ATOM     23  H7  Z70 d         -20.114  13.523  -7.316  0.00  0.00     0.275 HD
ATOM     24  H8  Z70 d         -19.577  12.044  -7.801  0.00  0.00     0.275 HD
ATOM     25  H9  Z70 d         -18.499  13.205  -7.357  0.00  0.00     0.275 HD
ENDBRANCH  17  22
ENDBRANCH  14  17
ENDBRANCH   1  14
TORSDOF 6
ENDMDL
MODEL 6
REMARK VINA RESULT:      -4.9      2.854      5.463
REMARK  6 active torsions:
REMARK  status: ('A' for Active; 'I' for Inactive)
REMARK    1  A    between atoms: CA_1  and  C_2 
REMARK    2  A    between atoms: C6_6  and  CA_1 
REMARK    3  A    between atoms: CA_1  and  N_8 
REMARK    4  A    between atoms: C7_7  and  C3_3 
REMARK    5  A    between atoms: C4_4  and  N4_11 
REMARK    6  A    between atoms: C6_6  and  C7_7 
ROOT
ATOM      1  C7  Z70 d         -20.228  15.358  -3.612  0.00  0.00    -0.023 C 
ATOM      2  H5  Z70 d         -21.314  15.511  -3.516  0.00  0.00     0.042 H 
ATOM      3  H6  Z70 d         -19.743  15.549  -2.643  0.00  0.00     0.042 H 
ENDROOT
BRANCH   1   4
ATOM      4  C3  Z70 d         -19.687  16.357  -4.628  0.00  0.00     0.029 A 
ATOM      5  C5  Z70 d         -18.231  16.552  -4.770  0.00  0.00     0.028 A 
ATOM      6  N3  Z70 d         -18.132  17.527  -5.760  0.00  0.00    -0.226 NA
ATOM      7  H2  Z70 d         -17.428  16.054  -4.231  0.00  0.00     0.117 H 
ATOM      8  C4  Z70 d         -19.427  17.871  -6.161  0.00  0.00     0.199 A 
ATOM      9  N2  Z70 d         -20.376  17.180  -5.494  0.00  0.00    -0.329 N 
ATOM     10  H10 Z70 d         -21.397  17.251  -5.608  0.00  0.00     0.169 HD
BRANCH   8  11
ATOM     11  N4  Z70 d         -19.709  18.817  -7.130  0.00  0.00    -0.369 N 
ATOM     12  H11 Z70 d         -20.623  18.813  -7.604  0.00  0.00     0.159 HD
ATOM     13  H12 Z70 d         -19.004  19.526  -7.378  0.00  0.00     0.159 HD
ENDBRANCH   8  11
ENDBRANCH   1   4
BRANCH   1  14
ATOM     14  C6  Z70 d         -19.979  13.900  -3.997  0.00  0.00    -0.024 C 
ATOM     15  H3  Z70 d         -18.907  13.689  -3.870  0.00  0.00     0.037 H 
ATOM     16  H4  Z70 d         -20.562  13.261  -3.317  0.00  0.00     0.037 H 
BRANCH  14  17
ATOM     17  CA  Z70 d         -20.373  13.547  -5.453  0.00  0.00     0.182 C 
ATOM     18  H1  Z70 d         -20.760  14.453  -5.943  0.00  0.00     0.101 H 
BRANCH  17  19
ATOM     19  C   Z70 d         -19.229  12.979  -6.323  0.00  0.00     0.204 C 
ATOM     20  OXT Z70 d         -18.311  13.753  -6.802  0.00  0.00    -0.646 OA
ATOM     21  O   Z70 d         -19.182  11.724  -6.586  0.00  0.00    -0.646 OA
ENDBRANCH  17  19
BRANCH  17  22
ATOM     22  N   Z70 d         -21.401  12.568  -5.359  0.00  0.00    -0.065 N 
ATOM     23  H7  Z70 d         -22.198  12.864  -5.902  0.00  0.00     0.275 HD
ATOM     24  H8  Z70 d         -21.673  12.458  -4.394  0.00  0.00     0.275 HD
ATOM     25  H9  Z70 d         -21.060  11.688  -5.714  0.00  0.00     0.275 HD
ENDBRANCH  17  22
ENDBRANCH  14  17
ENDBRANCH   1  14
TORSDOF 6
ENDMDL
