REMARK  4 active torsions:
REMARK  status: ('A' for Active; 'I' for Inactive)
REMARK    1  A    between atoms: C1_2  and  C6_3 
REMARK    2  A    between atoms: C6_3  and  C7_4 
REMARK    3  A    between atoms: C7_4  and  C8_5 
REMARK    4  A    between atoms: C8_5  and  C9_6 
ROOT
ATOM      1  N1  BDI d          15.435  16.853  20.409  0.00  0.00    -0.338 N 
ATOM      2  C1  BDI d          16.590  17.076  19.806  0.00  0.00     0.105 A 
ATOM      3  N2  BDI d          17.490  17.322  20.605  0.00  0.00    -0.227 NA
ATOM      4  C2  BDI d          17.038  17.301  21.958  0.00  0.00     0.160 A 
ATOM      5  C4  BDI d          17.702  17.527  23.277  0.00  0.00     0.291 A 
ATOM      6  N5  BDI d          16.875  17.410  24.401  0.00  0.00    -0.262 N 
ATOM      7  N4  BDI d          15.412  17.079  24.315  0.00  0.00    -0.262 N 
ATOM      8  C5  BDI d          14.740  16.856  23.098  0.00  0.00     0.289 A 
ATOM      9  O1  BDI d          13.508  16.576  23.010  0.00  0.00    -0.264 OA
ATOM     10  C3  BDI d          15.646  16.983  21.839  0.00  0.00     0.138 A 
ATOM     11  O3  BDI d          18.900  17.796  23.331  0.00  0.00    -0.264 OA
ATOM     12  H1  BDI d          14.543  16.627  19.946  0.00  0.00     0.167 HD
ATOM     13  H11 BDI d          17.278  17.554  25.305  0.00  0.00     0.190 HD
ATOM     14  H12 BDI d          14.889  17.014  25.165  0.00  0.00     0.190 HD
ENDROOT
BRANCH   2  15
ATOM     15  C6  BDI d          16.744  17.026  18.284  0.00  0.00    -0.010 C 
ATOM     16  H2  BDI d          16.731  15.968  17.985  0.00  0.00     0.044 H 
ATOM     17  H3  BDI d          17.721  17.465  18.036  0.00  0.00     0.044 H 
BRANCH  15  18
ATOM     18  C7  BDI d          15.665  17.769  17.432  0.00  0.00    -0.059 C 
ATOM     19  H4  BDI d          15.217  18.577  18.029  0.00  0.00     0.033 H 
ATOM     20  H5  BDI d          14.881  17.059  17.130  0.00  0.00     0.033 H 
BRANCH  18  21
ATOM     21  C8  BDI d          16.342  18.373  16.158  0.00  0.00    -0.068 C 
ATOM     22  H6  BDI d          16.804  17.555  15.585  0.00  0.00     0.032 H 
ATOM     23  H7  BDI d          17.120  19.082  16.477  0.00  0.00     0.032 H 
BRANCH  21  24
ATOM     24  C9  BDI d          15.343  19.117  15.238  0.00  0.00    -0.077 C 
ATOM     25  H8  BDI d          15.878  19.517  14.364  0.00  0.00     0.027 H 
ATOM     26  H9  BDI d          14.879  19.945  15.794  0.00  0.00     0.027 H 
ATOM     27  H10 BDI d          14.563  18.418  14.902  0.00  0.00     0.027 H 
ENDBRANCH  21  24
ENDBRANCH  18  21
ENDBRANCH  15  18
ENDBRANCH   2  15
TORSDOF 4
