MODEL 1
REMARK VINA RESULT:      -6.7      0.000      0.000
REMARK  4 active torsions:
REMARK  status: ('A' for Active; 'I' for Inactive)
REMARK    1  A    between atoms: C1_2  and  C6_3 
REMARK    2  A    between atoms: C6_3  and  C7_4 
REMARK    3  A    between atoms: C7_4  and  C8_5 
REMARK    4  A    between atoms: C8_5  and  C9_6 
ROOT
ATOM      1  N1  BDI d          17.456  17.552  20.534  0.00  0.00    -0.338 N 
ATOM      2  C1  BDI d          16.480  17.289  19.681  0.00  0.00     0.105 A 
ATOM      3  N2  BDI d          15.435  16.986  20.252  0.00  0.00    -0.227 NA
ATOM      4  C2  BDI d          15.567  17.001  21.673  0.00  0.00     0.160 A 
ATOM      5  C4  BDI d          14.632  16.719  22.804  0.00  0.00     0.291 A 
ATOM      6  N5  BDI d          15.176  16.852  24.088  0.00  0.00    -0.262 N 
ATOM      7  N4  BDI d          16.602  17.251  24.340  0.00  0.00    -0.262 N 
ATOM      8  C5  BDI d          17.521  17.528  23.310  0.00  0.00     0.289 A 
ATOM      9  O1  BDI d          18.726  17.866  23.507  0.00  0.00    -0.264 OA
ATOM     10  C3  BDI d          16.932  17.385  21.877  0.00  0.00     0.138 A 
ATOM     11  O3  BDI d          13.468  16.395  22.581  0.00  0.00    -0.264 OA
ATOM     12  H1  BDI d          18.417  17.828  20.288  0.00  0.00     0.167 HD
ATOM     13  H11 BDI d          14.585  16.672  24.875  0.00  0.00     0.190 HD
ATOM     14  H12 BDI d          16.914  17.323  25.287  0.00  0.00     0.190 HD
ENDROOT
BRANCH   2  15
ATOM     15  C6  BDI d          16.674  17.361  18.165  0.00  0.00    -0.010 C 
ATOM     16  H2  BDI d          16.980  16.362  17.822  0.00  0.00     0.044 H 
ATOM     17  H3  BDI d          17.482  18.080  17.969  0.00  0.00     0.044 H 
BRANCH  15  18
ATOM     18  C7  BDI d          15.441  17.795  17.307  0.00  0.00    -0.059 C 
ATOM     19  H4  BDI d          15.753  18.548  16.569  0.00  0.00     0.033 H 
ATOM     20  H5  BDI d          14.669  18.223  17.963  0.00  0.00     0.033 H 
BRANCH  18  21
ATOM     21  C8  BDI d          14.864  16.544  16.567  0.00  0.00    -0.068 C 
ATOM     22  H6  BDI d          15.648  15.773  16.517  0.00  0.00     0.032 H 
ATOM     23  H7  BDI d          14.575  16.841  15.548  0.00  0.00     0.032 H 
BRANCH  21  24
ATOM     24  C9  BDI d          13.625  15.941  17.275  0.00  0.00    -0.077 C 
ATOM     25  H8  BDI d          13.565  14.865  17.056  0.00  0.00     0.027 H 
ATOM     26  H9  BDI d          12.715  16.441  16.911  0.00  0.00     0.027 H 
ATOM     27  H10 BDI d          13.715  16.089  18.361  0.00  0.00     0.027 H 
ENDBRANCH  21  24
ENDBRANCH  18  21
ENDBRANCH  15  18
ENDBRANCH   2  15
TORSDOF 4
ENDMDL
MODEL 2
REMARK VINA RESULT:      -6.7      0.151      2.552
REMARK  4 active torsions:
REMARK  status: ('A' for Active; 'I' for Inactive)
REMARK    1  A    between atoms: C1_2  and  C6_3 
REMARK    2  A    between atoms: C6_3  and  C7_4 
REMARK    3  A    between atoms: C7_4  and  C8_5 
REMARK    4  A    between atoms: C8_5  and  C9_6 
ROOT
ATOM      1  N1  BDI d          15.412  16.958  20.241  0.00  0.00    -0.338 N 
ATOM      2  C1  BDI d          16.577  17.284  19.708  0.00  0.00     0.105 A 
ATOM      3  N2  BDI d          17.430  17.512  20.562  0.00  0.00    -0.227 NA
ATOM      4  C2  BDI d          16.926  17.365  21.888  0.00  0.00     0.160 A 
ATOM      5  C4  BDI d          17.523  17.521  23.248  0.00  0.00     0.291 A 
ATOM      6  N5  BDI d          16.659  17.277  24.323  0.00  0.00    -0.262 N 
ATOM      7  N4  BDI d          15.221  16.881  24.148  0.00  0.00    -0.262 N 
ATOM      8  C5  BDI d          14.611  16.720  22.889  0.00  0.00     0.289 A 
ATOM      9  O1  BDI d          13.400  16.386  22.726  0.00  0.00    -0.264 OA
ATOM     10  C3  BDI d          15.559  16.988  21.684  0.00  0.00     0.138 A 
ATOM     11  O3  BDI d          18.702  17.845  23.375  0.00  0.00    -0.264 OA
ATOM     12  H1  BDI d          14.553  16.725  19.723  0.00  0.00     0.167 HD
ATOM     13  H11 BDI d          17.017  17.371  25.252  0.00  0.00     0.190 HD
ATOM     14  H12 BDI d          14.668  16.725  24.967  0.00  0.00     0.190 HD
ENDROOT
BRANCH   2  15
ATOM     15  C6  BDI d          16.795  17.359  18.194  0.00  0.00    -0.010 C 
ATOM     16  H2  BDI d          17.012  16.341  17.841  0.00  0.00     0.044 H 
ATOM     17  H3  BDI d          17.669  18.003  18.018  0.00  0.00     0.044 H 
BRANCH  15  18
ATOM     18  C7  BDI d          15.618  17.917  17.330  0.00  0.00    -0.059 C 
ATOM     19  H4  BDI d          15.985  18.733  16.691  0.00  0.00     0.033 H 
ATOM     20  H5  BDI d          14.824  18.297  17.990  0.00  0.00     0.033 H 
BRANCH  18  21
ATOM     21  C8  BDI d          15.047  16.768  16.436  0.00  0.00    -0.068 C 
ATOM     22  H6  BDI d          15.853  16.044  16.238  0.00  0.00     0.032 H 
ATOM     23  H7  BDI d          14.703  17.201  15.485  0.00  0.00     0.032 H 
BRANCH  21  24
ATOM     24  C9  BDI d          13.863  16.020  17.095  0.00  0.00    -0.077 C 
ATOM     25  H8  BDI d          13.551  16.556  18.004  0.00  0.00     0.027 H 
ATOM     26  H9  BDI d          14.176  15.000  17.362  0.00  0.00     0.027 H 
ATOM     27  H10 BDI d          13.020  15.973  16.390  0.00  0.00     0.027 H 
ENDBRANCH  21  24
ENDBRANCH  18  21
ENDBRANCH  15  18
ENDBRANCH   2  15
TORSDOF 4
ENDMDL
MODEL 3
REMARK VINA RESULT:      -6.2      1.198      1.603
REMARK  4 active torsions:
REMARK  status: ('A' for Active; 'I' for Inactive)
REMARK    1  A    between atoms: C1_2  and  C6_3 
REMARK    2  A    between atoms: C6_3  and  C7_4 
REMARK    3  A    between atoms: C7_4  and  C8_5 
REMARK    4  A    between atoms: C8_5  and  C9_6 
ROOT
ATOM      1  N1  BDI d          16.411  16.916  19.968  0.00  0.00    -0.338 N 
ATOM      2  C1  BDI d          15.149  16.631  19.696  0.00  0.00     0.105 A 
ATOM      3  N2  BDI d          14.459  16.571  20.710  0.00  0.00    -0.227 NA
ATOM      4  C2  BDI d          15.210  16.822  21.896  0.00  0.00     0.160 A 
ATOM      5  C4  BDI d          14.870  16.868  23.350  0.00  0.00     0.291 A 
ATOM      6  N5  BDI d          15.933  17.157  24.214  0.00  0.00    -0.262 N 
ATOM      7  N4  BDI d          17.335  17.409  23.737  0.00  0.00    -0.262 N 
ATOM      8  C5  BDI d          17.707  17.379  22.380  0.00  0.00     0.289 A 
ATOM      9  O1  BDI d          18.884  17.590  21.963  0.00  0.00    -0.264 OA
ATOM     10  C3  BDI d          16.536  17.059  21.406  0.00  0.00     0.138 A 
ATOM     11  O3  BDI d          13.718  16.660  23.725  0.00  0.00    -0.264 OA
ATOM     12  H1  BDI d          17.171  17.018  19.280  0.00  0.00     0.167 HD
ATOM     13  H11 BDI d          15.750  17.197  25.197  0.00  0.00     0.190 HD
ATOM     14  H12 BDI d          18.040  17.609  24.418  0.00  0.00     0.190 HD
ENDROOT
BRANCH   2  15
ATOM     15  C6  BDI d          14.647  16.407  18.267  0.00  0.00    -0.010 C 
ATOM     16  H2  BDI d          13.664  15.920  18.334  0.00  0.00     0.044 H 
ATOM     17  H3  BDI d          15.358  15.731  17.770  0.00  0.00     0.044 H 
BRANCH  15  18
ATOM     18  C7  BDI d          14.486  17.669  17.360  0.00  0.00    -0.059 C 
ATOM     19  H4  BDI d          14.437  18.570  17.990  0.00  0.00     0.033 H 
ATOM     20  H5  BDI d          13.562  17.584  16.770  0.00  0.00     0.033 H 
BRANCH  18  21
ATOM     21  C8  BDI d          15.714  17.771  16.397  0.00  0.00    -0.068 C 
ATOM     22  H6  BDI d          15.646  16.960  15.656  0.00  0.00     0.032 H 
ATOM     23  H7  BDI d          16.634  17.652  16.987  0.00  0.00     0.032 H 
BRANCH  21  24
ATOM     24  C9  BDI d          15.782  19.122  15.644  0.00  0.00    -0.077 C 
ATOM     25  H8  BDI d          14.834  19.664  15.778  0.00  0.00     0.027 H 
ATOM     26  H9  BDI d          15.950  18.938  14.573  0.00  0.00     0.027 H 
ATOM     27  H10 BDI d          16.609  19.726  16.047  0.00  0.00     0.027 H 
ENDBRANCH  21  24
ENDBRANCH  18  21
ENDBRANCH  15  18
ENDBRANCH   2  15
TORSDOF 4
ENDMDL
MODEL 4
REMARK VINA RESULT:      -5.4      2.922      5.863
REMARK  4 active torsions:
REMARK  status: ('A' for Active; 'I' for Inactive)
REMARK    1  A    between atoms: C1_2  and  C6_3 
REMARK    2  A    between atoms: C6_3  and  C7_4 
REMARK    3  A    between atoms: C7_4  and  C8_5 
REMARK    4  A    between atoms: C8_5  and  C9_6 
ROOT
ATOM      1  N1  BDI d          16.150  17.025  19.997  0.00  0.00    -0.338 N 
ATOM      2  C1  BDI d          17.331  17.604  19.864  0.00  0.00     0.105 A 
ATOM      3  N2  BDI d          17.520  18.016  18.722  0.00  0.00    -0.227 NA
ATOM      4  C2  BDI d          16.415  17.753  17.859  0.00  0.00     0.160 A 
ATOM      5  C4  BDI d          16.135  18.032  16.418  0.00  0.00     0.291 A 
ATOM      6  N5  BDI d          14.891  17.594  15.946  0.00  0.00    -0.262 N 
ATOM      7  N4  BDI d          13.885  16.888  16.809  0.00  0.00    -0.262 N 
ATOM      8  C5  BDI d          14.100  16.602  18.171  0.00  0.00     0.289 A 
ATOM      9  O1  BDI d          13.262  16.008  18.911  0.00  0.00    -0.264 OA
ATOM     10  C3  BDI d          15.478  17.083  18.711  0.00  0.00     0.138 A 
ATOM     11  O3  BDI d          16.967  18.612  15.725  0.00  0.00    -0.264 OA
ATOM     12  H1  BDI d          15.773  16.608  20.860  0.00  0.00     0.167 HD
ATOM     13  H11 BDI d          14.662  17.760  14.986  0.00  0.00     0.190 HD
ATOM     14  H12 BDI d          13.019  16.606  16.396  0.00  0.00     0.190 HD
ENDROOT
BRANCH   2  15
ATOM     15  C6  BDI d          18.321  17.724  21.025  0.00  0.00    -0.010 C 
ATOM     16  H2  BDI d          18.382  18.786  21.300  0.00  0.00     0.044 H 
ATOM     17  H3  BDI d          19.301  17.383  20.661  0.00  0.00     0.044 H 
BRANCH  15  18
ATOM     18  C7  BDI d          17.998  16.919  22.325  0.00  0.00    -0.059 C 
ATOM     19  H4  BDI d          18.934  16.569  22.784  0.00  0.00     0.033 H 
ATOM     20  H5  BDI d          17.366  16.054  22.076  0.00  0.00     0.033 H 
BRANCH  18  21
ATOM     21  C8  BDI d          17.239  17.848  23.329  0.00  0.00    -0.068 C 
ATOM     22  H6  BDI d          17.225  18.870  22.920  0.00  0.00     0.032 H 
ATOM     23  H7  BDI d          17.779  17.845  24.287  0.00  0.00     0.032 H 
BRANCH  21  24
ATOM     24  C9  BDI d          15.779  17.398  23.584  0.00  0.00    -0.077 C 
ATOM     25  H8  BDI d          15.568  17.433  24.663  0.00  0.00     0.027 H 
ATOM     26  H9  BDI d          15.643  16.370  23.216  0.00  0.00     0.027 H 
ATOM     27  H10 BDI d          15.090  18.071  23.053  0.00  0.00     0.027 H 
ENDBRANCH  21  24
ENDBRANCH  18  21
ENDBRANCH  15  18
ENDBRANCH   2  15
TORSDOF 4
ENDMDL
MODEL 5
REMARK VINA RESULT:      -5.3      2.772      5.386
REMARK  4 active torsions:
REMARK  status: ('A' for Active; 'I' for Inactive)
REMARK    1  A    between atoms: C1_2  and  C6_3 
REMARK    2  A    between atoms: C6_3  and  C7_4 
REMARK    3  A    between atoms: C7_4  and  C8_5 
REMARK    4  A    between atoms: C8_5  and  C9_6 
ROOT
ATOM      1  N1  BDI d          17.411  17.852  18.868  0.00  0.00    -0.338 N 
ATOM      2  C1  BDI d          17.148  17.485  20.111  0.00  0.00     0.105 A 
ATOM      3  N2  BDI d          16.042  16.961  20.215  0.00  0.00    -0.227 NA
ATOM      4  C2  BDI d          15.350  16.896  18.969  0.00  0.00     0.160 A 
ATOM      5  C4  BDI d          14.014  16.375  18.550  0.00  0.00     0.291 A 
ATOM      6  N5  BDI d          13.710  16.509  17.190  0.00  0.00    -0.262 N 
ATOM      7  N4  BDI d          14.646  17.133  16.195  0.00  0.00    -0.262 N 
ATOM      8  C5  BDI d          15.915  17.638  16.538  0.00  0.00     0.289 A 
ATOM      9  O1  BDI d          16.715  18.166  15.710  0.00  0.00    -0.264 OA
ATOM     10  C3  BDI d          16.268  17.496  18.047  0.00  0.00     0.138 A 
ATOM     11  O3  BDI d          13.260  15.866  19.376  0.00  0.00    -0.264 OA
ATOM     12  H1  BDI d          18.274  18.309  18.541  0.00  0.00     0.167 HD
ATOM     13  H11 BDI d          12.825  16.174  16.865  0.00  0.00     0.190 HD
ATOM     14  H12 BDI d          14.354  17.193  15.240  0.00  0.00     0.190 HD
ENDROOT
BRANCH   2  15
ATOM     15  C6  BDI d          18.135  17.709  21.259  0.00  0.00    -0.010 C 
ATOM     16  H2  BDI d          18.189  18.792  21.442  0.00  0.00     0.044 H 
ATOM     17  H3  BDI d          19.117  17.344  20.926  0.00  0.00     0.044 H 
BRANCH  15  18
ATOM     18  C7  BDI d          17.814  17.018  22.623  0.00  0.00    -0.059 C 
ATOM     19  H4  BDI d          18.744  16.879  23.194  0.00  0.00     0.033 H 
ATOM     20  H5  BDI d          17.348  16.038  22.438  0.00  0.00     0.033 H 
BRANCH  18  21
ATOM     21  C8  BDI d          16.828  17.919  23.437  0.00  0.00    -0.068 C 
ATOM     22  H6  BDI d          16.624  18.830  22.855  0.00  0.00     0.032 H 
ATOM     23  H7  BDI d          17.308  18.192  24.389  0.00  0.00     0.032 H 
BRANCH  21  24
ATOM     24  C9  BDI d          15.483  17.218  23.746  0.00  0.00    -0.077 C 
ATOM     25  H8  BDI d          14.945  17.026  22.805  0.00  0.00     0.027 H 
ATOM     26  H9  BDI d          14.871  17.866  24.391  0.00  0.00     0.027 H 
ATOM     27  H10 BDI d          15.675  16.264  24.259  0.00  0.00     0.027 H 
ENDBRANCH  21  24
ENDBRANCH  18  21
ENDBRANCH  15  18
ENDBRANCH   2  15
TORSDOF 4
ENDMDL
MODEL 6
REMARK VINA RESULT:      -5.3      3.614      6.173
REMARK  4 active torsions:
REMARK  status: ('A' for Active; 'I' for Inactive)
REMARK    1  A    between atoms: C1_2  and  C6_3 
REMARK    2  A    between atoms: C6_3  and  C7_4 
REMARK    3  A    between atoms: C7_4  and  C8_5 
REMARK    4  A    between atoms: C8_5  and  C9_6 
ROOT
ATOM      1  N1  BDI d          16.171  17.796  18.555  0.00  0.00    -0.338 N 
ATOM      2  C1  BDI d          15.416  16.901  19.168  0.00  0.00     0.105 A 
ATOM      3  N2  BDI d          14.656  16.326  18.392  0.00  0.00    -0.227 NA
ATOM      4  C2  BDI d          14.798  16.786  17.049  0.00  0.00     0.160 A 
ATOM      5  C4  BDI d          14.137  16.434  15.757  0.00  0.00     0.291 A 
ATOM      6  N5  BDI d          14.582  17.143  14.634  0.00  0.00    -0.262 N 
ATOM      7  N4  BDI d          15.653  18.195  14.697  0.00  0.00    -0.262 N 
ATOM      8  C5  BDI d          16.308  18.562  15.889  0.00  0.00     0.289 A 
ATOM      9  O1  BDI d          17.213  19.445  15.957  0.00  0.00    -0.264 OA
ATOM     10  C3  BDI d          15.824  17.782  17.146  0.00  0.00     0.138 A 
ATOM     11  O3  BDI d          13.263  15.571  15.722  0.00  0.00    -0.264 OA
ATOM     12  H1  BDI d          16.880  18.396  18.998  0.00  0.00     0.167 HD
ATOM     13  H11 BDI d          14.166  16.941  13.748  0.00  0.00     0.190 HD
ATOM     14  H12 BDI d          15.915  18.657  13.850  0.00  0.00     0.190 HD
ENDROOT
BRANCH   2  15
ATOM     15  C6  BDI d          15.507  16.643  20.674  0.00  0.00    -0.010 C 
ATOM     16  H2  BDI d          15.371  15.564  20.834  0.00  0.00     0.044 H 
ATOM     17  H3  BDI d          14.684  17.191  21.154  0.00  0.00     0.044 H 
BRANCH  15  18
ATOM     18  C7  BDI d          16.832  17.061  21.391  0.00  0.00    -0.059 C 
ATOM     19  H4  BDI d          17.405  17.737  20.739  0.00  0.00     0.033 H 
ATOM     20  H5  BDI d          17.431  16.166  21.609  0.00  0.00     0.033 H 
BRANCH  18  21
ATOM     21  C8  BDI d          16.483  17.795  22.727  0.00  0.00    -0.068 C 
ATOM     22  H6  BDI d          16.205  18.834  22.495  0.00  0.00     0.032 H 
ATOM     23  H7  BDI d          17.374  17.790  23.373  0.00  0.00     0.032 H 
BRANCH  21  24
ATOM     24  C9  BDI d          15.313  17.131  23.494  0.00  0.00    -0.077 C 
ATOM     25  H8  BDI d          15.004  16.215  22.969  0.00  0.00     0.027 H 
ATOM     26  H9  BDI d          14.465  17.829  23.545  0.00  0.00     0.027 H 
ATOM     27  H10 BDI d          15.640  16.876  24.513  0.00  0.00     0.027 H 
ENDBRANCH  21  24
ENDBRANCH  18  21
ENDBRANCH  15  18
ENDBRANCH   2  15
TORSDOF 4
ENDMDL
MODEL 7
REMARK VINA RESULT:      -5.3      3.859      6.906
REMARK  4 active torsions:
REMARK  status: ('A' for Active; 'I' for Inactive)
REMARK    1  A    between atoms: C1_2  and  C6_3 
REMARK    2  A    between atoms: C6_3  and  C7_4 
REMARK    3  A    between atoms: C7_4  and  C8_5 
REMARK    4  A    between atoms: C8_5  and  C9_6 
ROOT
ATOM      1  N1  BDI d          14.495  16.285  17.918  0.00  0.00    -0.338 N 
ATOM      2  C1  BDI d          15.266  16.962  18.752  0.00  0.00     0.105 A 
ATOM      3  N2  BDI d          15.938  17.813  18.175  0.00  0.00    -0.227 NA
ATOM      4  C2  BDI d          15.702  17.832  16.768  0.00  0.00     0.160 A 
ATOM      5  C4  BDI d          16.242  18.645  15.637  0.00  0.00     0.291 A 
ATOM      6  N5  BDI d          15.732  18.336  14.370  0.00  0.00    -0.262 N 
ATOM      7  N4  BDI d          14.708  17.262  14.135  0.00  0.00    -0.262 N 
ATOM      8  C5  BDI d          14.167  16.470  15.166  0.00  0.00     0.289 A 
ATOM      9  O1  BDI d          13.303  15.562  14.983  0.00  0.00    -0.264 OA
ATOM     10  C3  BDI d          14.725  16.801  16.581  0.00  0.00     0.138 A 
ATOM     11  O3  BDI d          17.079  19.520  15.846  0.00  0.00    -0.264 OA
ATOM     12  H1  BDI d          13.847  15.526  18.171  0.00  0.00     0.167 HD
ATOM     13  H11 BDI d          16.066  18.855  13.583  0.00  0.00     0.190 HD
ATOM     14  H12 BDI d          14.394  17.102  13.199  0.00  0.00     0.190 HD
ENDROOT
BRANCH   2  15
ATOM     15  C6  BDI d          15.289  16.683  20.257  0.00  0.00    -0.010 C 
ATOM     16  H2  BDI d          15.158  15.600  20.394  0.00  0.00     0.044 H 
ATOM     17  H3  BDI d          14.438  17.215  20.705  0.00  0.00     0.044 H 
BRANCH  15  18
ATOM     18  C7  BDI d          16.573  17.104  21.042  0.00  0.00    -0.059 C 
ATOM     19  H4  BDI d          16.939  18.068  20.658  0.00  0.00     0.033 H 
ATOM     20  H5  BDI d          17.352  16.338  20.912  0.00  0.00     0.033 H 
BRANCH  18  21
ATOM     21  C8  BDI d          16.225  17.243  22.560  0.00  0.00    -0.068 C 
ATOM     22  H6  BDI d          15.919  16.257  22.941  0.00  0.00     0.032 H 
ATOM     23  H7  BDI d          15.391  17.952  22.665  0.00  0.00     0.032 H 
BRANCH  21  24
ATOM     24  C9  BDI d          17.417  17.751  23.409  0.00  0.00    -0.077 C 
ATOM     25  H8  BDI d          18.337  17.240  23.092  0.00  0.00     0.027 H 
ATOM     26  H9  BDI d          17.227  17.539  24.471  0.00  0.00     0.027 H 
ATOM     27  H10 BDI d          17.532  18.836  23.266  0.00  0.00     0.027 H 
ENDBRANCH  21  24
ENDBRANCH  18  21
ENDBRANCH  15  18
ENDBRANCH   2  15
TORSDOF 4
ENDMDL
MODEL 8
REMARK VINA RESULT:      -5.2      2.664      5.350
REMARK  4 active torsions:
REMARK  status: ('A' for Active; 'I' for Inactive)
REMARK    1  A    between atoms: C1_2  and  C6_3 
REMARK    2  A    between atoms: C6_3  and  C7_4 
REMARK    3  A    between atoms: C7_4  and  C8_5 
REMARK    4  A    between atoms: C8_5  and  C9_6 
ROOT
ATOM      1  N1  BDI d          15.511  16.964  20.615  0.00  0.00    -0.338 N 
ATOM      2  C1  BDI d          14.221  16.685  20.686  0.00  0.00     0.105 A 
ATOM      3  N2  BDI d          13.652  16.844  19.609  0.00  0.00    -0.227 NA
ATOM      4  C2  BDI d          14.540  17.286  18.584  0.00  0.00     0.160 A 
ATOM      5  C4  BDI d          14.370  17.621  17.138  0.00  0.00     0.291 A 
ATOM      6  N5  BDI d          15.530  18.029  16.469  0.00  0.00    -0.262 N 
ATOM      7  N4  BDI d          16.872  18.130  17.137  0.00  0.00    -0.262 N 
ATOM      8  C5  BDI d          17.085  17.824  18.495  0.00  0.00     0.289 A 
ATOM      9  O1  BDI d          18.210  17.905  19.071  0.00  0.00    -0.264 OA
ATOM     10  C3  BDI d          15.804  17.370  19.252  0.00  0.00     0.138 A 
ATOM     11  O3  BDI d          13.265  17.532  16.606  0.00  0.00    -0.264 OA
ATOM     12  H1  BDI d          16.188  16.904  21.388  0.00  0.00     0.167 HD
ATOM     13  H11 BDI d          15.462  18.264  15.499  0.00  0.00     0.190 HD
ATOM     14  H12 BDI d          17.654  18.430  16.589  0.00  0.00     0.190 HD
ENDROOT
BRANCH   2  15
ATOM     15  C6  BDI d          13.552  16.224  21.984  0.00  0.00    -0.010 C 
ATOM     16  H2  BDI d          13.885  15.194  22.179  0.00  0.00     0.044 H 
ATOM     17  H3  BDI d          12.466  16.232  21.817  0.00  0.00     0.044 H 
BRANCH  15  18
ATOM     18  C7  BDI d          13.837  17.062  23.271  0.00  0.00    -0.059 C 
ATOM     19  H4  BDI d          13.072  16.841  24.031  0.00  0.00     0.033 H 
ATOM     20  H5  BDI d          13.810  18.134  23.027  0.00  0.00     0.033 H 
BRANCH  18  21
ATOM     21  C8  BDI d          15.250  16.688  23.827  0.00  0.00    -0.068 C 
ATOM     22  H6  BDI d          15.669  15.881  23.207  0.00  0.00     0.032 H 
ATOM     23  H7  BDI d          15.138  16.334  24.862  0.00  0.00     0.032 H 
BRANCH  21  24
ATOM     24  C9  BDI d          16.238  17.881  23.817  0.00  0.00    -0.077 C 
ATOM     25  H8  BDI d          16.687  17.992  24.815  0.00  0.00     0.027 H 
ATOM     26  H9  BDI d          15.698  18.802  23.554  0.00  0.00     0.027 H 
ATOM     27  H10 BDI d          17.030  17.695  23.077  0.00  0.00     0.027 H 
ENDBRANCH  21  24
ENDBRANCH  18  21
ENDBRANCH  15  18
ENDBRANCH   2  15
TORSDOF 4
ENDMDL
MODEL 9
REMARK VINA RESULT:      -5.2      0.879      1.222
REMARK  4 active torsions:
REMARK  status: ('A' for Active; 'I' for Inactive)
REMARK    1  A    between atoms: C1_2  and  C6_3 
REMARK    2  A    between atoms: C6_3  and  C7_4 
REMARK    3  A    between atoms: C7_4  and  C8_5 
REMARK    4  A    between atoms: C8_5  and  C9_6 
ROOT
ATOM      1  N1  BDI d          16.788  17.684  20.586  0.00  0.00    -0.338 N 
ATOM      2  C1  BDI d          15.670  17.500  19.905  0.00  0.00     0.105 A 
ATOM      3  N2  BDI d          14.753  17.101  20.618  0.00  0.00    -0.227 NA
ATOM      4  C2  BDI d          15.150  16.945  21.979  0.00  0.00     0.160 A 
ATOM      5  C4  BDI d          14.446  16.501  23.220  0.00  0.00     0.291 A 
ATOM      6  N5  BDI d          15.221  16.490  24.386  0.00  0.00    -0.262 N 
ATOM      7  N4  BDI d          16.668  16.894  24.416  0.00  0.00    -0.262 N 
ATOM      8  C5  BDI d          17.376  17.321  23.276  0.00  0.00     0.289 A 
ATOM      9  O1  BDI d          18.595  17.664  23.286  0.00  0.00    -0.264 OA
ATOM     10  C3  BDI d          16.528  17.338  21.971  0.00  0.00     0.138 A 
ATOM     11  O3  BDI d          13.262  16.175  23.179  0.00  0.00    -0.264 OA
ATOM     12  H1  BDI d          17.685  18.013  20.202  0.00  0.00     0.167 HD
ATOM     13  H11 BDI d          14.791  16.199  25.241  0.00  0.00     0.190 HD
ATOM     14  H12 BDI d          17.154  16.858  25.290  0.00  0.00     0.190 HD
ENDROOT
BRANCH   2  15
ATOM     15  C6  BDI d          15.574  17.764  18.400  0.00  0.00    -0.010 C 
ATOM     16  H2  BDI d          16.440  18.379  18.116  0.00  0.00     0.044 H 
ATOM     17  H3  BDI d          14.648  18.329  18.222  0.00  0.00     0.044 H 
BRANCH  15  18
ATOM     18  C7  BDI d          15.553  16.518  17.456  0.00  0.00    -0.059 C 
ATOM     19  H4  BDI d          14.755  15.831  17.772  0.00  0.00     0.033 H 
ATOM     20  H5  BDI d          16.523  16.001  17.507  0.00  0.00     0.033 H 
BRANCH  18  21
ATOM     21  C8  BDI d          15.288  16.989  15.989  0.00  0.00    -0.068 C 
ATOM     22  H6  BDI d          14.423  17.671  15.990  0.00  0.00     0.032 H 
ATOM     23  H7  BDI d          15.058  16.107  15.373  0.00  0.00     0.032 H 
BRANCH  21  24
ATOM     24  C9  BDI d          16.497  17.727  15.363  0.00  0.00    -0.077 C 
ATOM     25  H8  BDI d          17.095  18.192  16.161  0.00  0.00     0.027 H 
ATOM     26  H9  BDI d          16.135  18.506  14.675  0.00  0.00     0.027 H 
ATOM     27  H10 BDI d          17.119  17.009  14.810  0.00  0.00     0.027 H 
ENDBRANCH  21  24
ENDBRANCH  18  21
ENDBRANCH  15  18
ENDBRANCH   2  15
TORSDOF 4
ENDMDL
MODEL 10
REMARK VINA RESULT:      -5.1      1.633      3.040
REMARK  4 active torsions:
REMARK  status: ('A' for Active; 'I' for Inactive)
REMARK    1  A    between atoms: C1_2  and  C6_3 
REMARK    2  A    between atoms: C6_3  and  C7_4 
REMARK    3  A    between atoms: C7_4  and  C8_5 
REMARK    4  A    between atoms: C8_5  and  C9_6 
ROOT
ATOM      1  N1  BDI d          14.360  16.779  20.137  0.00  0.00    -0.338 N 
ATOM      2  C1  BDI d          14.866  16.876  18.920  0.00  0.00     0.105 A 
ATOM      3  N2  BDI d          16.067  17.135  18.937  0.00  0.00    -0.227 NA
ATOM      4  C2  BDI d          16.578  17.261  20.262  0.00  0.00     0.160 A 
ATOM      5  C4  BDI d          17.927  17.560  20.830  0.00  0.00     0.291 A 
ATOM      6  N5  BDI d          18.005  17.593  22.227  0.00  0.00    -0.262 N 
ATOM      7  N4  BDI d          16.823  17.348  23.123  0.00  0.00    -0.262 N 
ATOM      8  C5  BDI d          15.533  17.061  22.639  0.00  0.00     0.289 A 
ATOM      9  O1  BDI d          14.528  16.852  23.381  0.00  0.00    -0.264 OA
ATOM     10  C3  BDI d          15.431  17.021  21.086  0.00  0.00     0.138 A 
ATOM     11  O3  BDI d          18.884  17.757  20.084  0.00  0.00    -0.264 OA
ATOM     12  H1  BDI d          13.378  16.569  20.371  0.00  0.00     0.167 HD
ATOM     13  H11 BDI d          18.889  17.791  22.650  0.00  0.00     0.190 HD
ATOM     14  H12 BDI d          16.961  17.390  24.112  0.00  0.00     0.190 HD
ENDROOT
BRANCH   2  15
ATOM     15  C6  BDI d          14.017  16.683  17.661  0.00  0.00    -0.010 C 
ATOM     16  H2  BDI d          12.983  16.958  17.913  0.00  0.00     0.044 H 
ATOM     17  H3  BDI d          14.059  15.618  17.394  0.00  0.00     0.044 H 
BRANCH  15  18
ATOM     18  C7  BDI d          14.425  17.501  16.393  0.00  0.00    -0.059 C 
ATOM     19  H4  BDI d          15.314  18.108  16.616  0.00  0.00     0.033 H 
ATOM     20  H5  BDI d          13.596  18.162  16.098  0.00  0.00     0.033 H 
BRANCH  18  21
ATOM     21  C8  BDI d          14.746  16.513  15.224  0.00  0.00    -0.068 C 
ATOM     22  H6  BDI d          13.797  16.146  14.804  0.00  0.00     0.032 H 
ATOM     23  H7  BDI d          15.319  15.665  15.629  0.00  0.00     0.032 H 
BRANCH  21  24
ATOM     24  C9  BDI d          15.569  17.167  14.088  0.00  0.00    -0.077 C 
ATOM     25  H8  BDI d          15.011  17.095  13.143  0.00  0.00     0.027 H 
ATOM     26  H9  BDI d          16.532  16.646  13.985  0.00  0.00     0.027 H 
ATOM     27  H10 BDI d          15.749  18.226  14.328  0.00  0.00     0.027 H 
ENDBRANCH  21  24
ENDBRANCH  18  21
ENDBRANCH  15  18
ENDBRANCH   2  15
TORSDOF 4
ENDMDL
