MODEL 1
REMARK VINA RESULT:      -4.6      0.000      0.000
REMARK  6 active torsions:
REMARK  status: ('A' for Active; 'I' for Inactive)
REMARK    1  A    between atoms: N1_1  and  C1'_9 
REMARK    2  A    between atoms: C2'_10  and  O2'_11 
REMARK    3  A    between atoms: C3'_12  and  O3'_14 
REMARK    4  A    between atoms: C4'_13  and  C5'_16 
REMARK    5  A    between atoms: C5'_16  and  O5'_17 
REMARK    6  A    between atoms: O5'_17  and  P_18 
ROOT
ATOM      1  C1' U5P d          37.195  -0.779  11.877  0.00  0.00     0.141 C 
ATOM      2  C2' U5P d          36.790   0.305  12.847  0.00  0.00     0.105 C 
ATOM      3  C3' U5P d          38.029   0.487  13.691  0.00  0.00     0.091 C 
ATOM      4  C4' U5P d          39.155   0.159  12.725  0.00  0.00     0.089 C 
ATOM      5  O4' U5P d          38.617  -0.917  11.946  0.00  0.00    -0.353 OA
ATOM      6  H4  U5P d          36.907  -0.473  10.860  0.00  0.00     0.123 H 
ATOM      7  H5  U5P d          35.909   0.044  13.452  0.00  0.00     0.093 H 
ATOM      8  H7  U5P d          38.024  -0.236  14.520  0.00  0.00     0.091 H 
ATOM      9  H8  U5P d          39.371   1.027  12.085  0.00  0.00     0.090 H 
ENDROOT
BRANCH   1  10
ATOM     10  N1  U5P d          36.556  -2.049  12.174  0.00  0.00    -0.280 N 
ATOM     11  C2  U5P d          35.355  -2.328  11.521  0.00  0.00     0.331 A 
ATOM     12  N3  U5P d          34.753  -3.493  11.749  0.00  0.00    -0.275 N 
ATOM     13  O2  U5P d          34.854  -1.490  10.753  0.00  0.00    -0.246 OA
ATOM     14  C4  U5P d          35.257  -4.409  12.604  0.00  0.00     0.250 A 
ATOM     15  H1  U5P d          33.898  -3.696  11.272  0.00  0.00     0.173 HD
ATOM     16  C5  U5P d          36.460  -4.159  13.266  0.00  0.00    -0.002 A 
ATOM     17  O4  U5P d          34.637  -5.481  12.783  0.00  0.00    -0.268 OA
ATOM     18  C6  U5P d          37.097  -2.947  13.020  0.00  0.00    -0.008 A 
ATOM     19  H2  U5P d          36.886  -4.889  13.952  0.00  0.00     0.094 H 
ATOM     20  H3  U5P d          38.041  -2.722  13.515  0.00  0.00     0.112 H 
ENDBRANCH   1  10
BRANCH   2  21
ATOM     21  O2' U5P d          36.553   1.457  12.028  0.00  0.00    -0.388 OA
ATOM     22  H6  U5P d          36.291   2.187  12.578  0.00  0.00     0.210 HD
ENDBRANCH   2  21
BRANCH   3  23
ATOM     23  O3' U5P d          38.144   1.797  14.253  0.00  0.00    -0.390 OA
ATOM     24  H9  U5P d          38.126   2.441  13.556  0.00  0.00     0.210 HD
ENDBRANCH   3  23
BRANCH   4  25
ATOM     25  C5' U5P d          40.438  -0.251  13.438  0.00  0.00     0.059 C 
ATOM     26  H10 U5P d          40.675   0.468  14.236  0.00  0.00     0.079 H 
ATOM     27  H11 U5P d          41.273  -0.294  12.722  0.00  0.00     0.079 H 
BRANCH  25  28
ATOM     28  O5' U5P d          40.200  -1.537  13.992  0.00  0.00    -0.280 OA
BRANCH  28  29
ATOM     29  P   U5P d          41.264  -2.283  14.940  0.00  0.00     0.422 P 
ATOM     30  O1P U5P d          41.647  -1.256  15.987  0.00  0.00    -0.617 OA
ATOM     31  O2P U5P d          42.391  -2.682  14.011  0.00  0.00    -0.617 OA
ATOM     32  O3P U5P d          40.458  -3.458  15.445  0.00  0.00    -0.617 OA
ENDBRANCH  28  29
ENDBRANCH  25  28
ENDBRANCH   4  25
TORSDOF 6
ENDMDL
