MODEL 1
REMARK VINA RESULT:      -5.8      0.000      0.000
REMARK  6 active torsions:
REMARK  status: ('A' for Active; 'I' for Inactive)
REMARK    1  A    between atoms: N1_1  and  C1'_9 
REMARK    2  A    between atoms: C2'_10  and  O2'_11 
REMARK    3  A    between atoms: C3'_12  and  O3'_14 
REMARK    4  A    between atoms: C4'_13  and  C5'_16 
REMARK    5  A    between atoms: C5'_16  and  O5'_17 
REMARK    6  A    between atoms: O5'_17  and  P_18 
ROOT
ATOM      1  C1' U5P d          36.217   0.126  12.198  0.00  0.00     0.141 C 
ATOM      2  C2' U5P d          36.609   0.827  13.476  0.00  0.00     0.105 C 
ATOM      3  C3' U5P d          37.967   1.400  13.147  0.00  0.00     0.091 C 
ATOM      4  C4' U5P d          37.872   1.677  11.656  0.00  0.00     0.089 C 
ATOM      5  O4' U5P d          37.099   0.574  11.165  0.00  0.00    -0.353 OA
ATOM      6  H4  U5P d          35.184   0.403  11.941  0.00  0.00     0.123 H 
ATOM      7  H5  U5P d          36.639   0.161  14.350  0.00  0.00     0.093 H 
ATOM      8  H7  U5P d          38.745   0.647  13.340  0.00  0.00     0.091 H 
ATOM      9  H8  U5P d          37.344   2.626  11.478  0.00  0.00     0.090 H 
ENDROOT
BRANCH   1  10
ATOM     10  N1  U5P d          36.288  -1.320  12.321  0.00  0.00    -0.280 N 
ATOM     11  C2  U5P d          35.339  -2.069  11.623  0.00  0.00     0.331 A 
ATOM     12  N3  U5P d          35.387  -3.396  11.692  0.00  0.00    -0.275 N 
ATOM     13  O2  U5P d          34.457  -1.496  10.962  0.00  0.00    -0.246 OA
ATOM     14  C4  U5P d          36.315  -4.046  12.429  0.00  0.00     0.250 A 
ATOM     15  H1  U5P d          34.714  -3.931  11.182  0.00  0.00     0.173 HD
ATOM     16  C5  U5P d          37.279  -3.323  13.133  0.00  0.00    -0.002 A 
ATOM     17  O4  U5P d          36.300  -5.296  12.462  0.00  0.00    -0.268 OA
ATOM     18  C6  U5P d          37.238  -1.935  13.052  0.00  0.00    -0.008 A 
ATOM     19  H2  U5P d          38.039  -3.830  13.725  0.00  0.00     0.094 H 
ATOM     20  H3  U5P d          37.979  -1.340  13.584  0.00  0.00     0.112 H 
ENDBRANCH   1  10
BRANCH   2  21
ATOM     21  O2' U5P d          35.638   1.869  13.632  0.00  0.00    -0.388 OA
ATOM     22  H6  U5P d          35.855   2.593  13.057  0.00  0.00     0.210 HD
ENDBRANCH   2  21
BRANCH   3  23
ATOM     23  O3' U5P d          38.289   2.567  13.907  0.00  0.00    -0.390 OA
ATOM     24  H9  U5P d          38.237   3.332  13.347  0.00  0.00     0.210 HD
ENDBRANCH   3  23
BRANCH   4  25
ATOM     25  C5' U5P d          39.238   1.747  10.984  0.00  0.00     0.059 C 
ATOM     26  H10 U5P d          39.982   2.165  11.679  0.00  0.00     0.079 H 
ATOM     27  H11 U5P d          39.186   2.374  10.082  0.00  0.00     0.079 H 
BRANCH  25  28
ATOM     28  O5' U5P d          39.588   0.414  10.636  0.00  0.00    -0.280 OA
BRANCH  28  29
ATOM     29  P   U5P d          41.012  -0.234  11.008  0.00  0.00     0.422 P 
ATOM     30  O1P U5P d          42.038   0.793  10.572  0.00  0.00    -0.617 OA
ATOM     31  O2P U5P d          41.056  -1.534  10.233  0.00  0.00    -0.617 OA
ATOM     32  O3P U5P d          40.882  -0.431  12.501  0.00  0.00    -0.617 OA
ENDBRANCH  28  29
ENDBRANCH  25  28
ENDBRANCH   4  25
TORSDOF 6
ENDMDL
MODEL 2
REMARK VINA RESULT:      -5.1      2.616      5.396
REMARK  6 active torsions:
REMARK  status: ('A' for Active; 'I' for Inactive)
REMARK    1  A    between atoms: N1_1  and  C1'_9 
REMARK    2  A    between atoms: C2'_10  and  O2'_11 
REMARK    3  A    between atoms: C3'_12  and  O3'_14 
REMARK    4  A    between atoms: C4'_13  and  C5'_16 
REMARK    5  A    between atoms: C5'_16  and  O5'_17 
REMARK    6  A    between atoms: O5'_17  and  P_18 
ROOT
ATOM      1  C1' U5P d          36.490  -1.144  12.124  0.00  0.00     0.141 C 
ATOM      2  C2' U5P d          35.867  -2.013  11.059  0.00  0.00     0.105 C 
ATOM      3  C3' U5P d          35.942  -3.396  11.661  0.00  0.00     0.091 C 
ATOM      4  C4' U5P d          35.825  -3.128  13.152  0.00  0.00     0.089 C 
ATOM      5  O4' U5P d          36.564  -1.913  13.328  0.00  0.00    -0.353 OA
ATOM      6  H4  U5P d          35.846  -0.267  12.290  0.00  0.00     0.123 H 
ATOM      7  H5  U5P d          36.382  -1.954  10.088  0.00  0.00     0.093 H 
ATOM      8  H7  U5P d          36.919  -3.848  11.437  0.00  0.00     0.091 H 
ATOM      9  H8  U5P d          34.771  -2.981  13.431  0.00  0.00     0.090 H 
ENDROOT
BRANCH   1  10
ATOM     10  N1  U5P d          37.814  -0.677  11.748  0.00  0.00    -0.280 N 
ATOM     11  C2  U5P d          37.924   0.639  11.298  0.00  0.00     0.331 A 
ATOM     12  N3  U5P d          39.124   1.109  10.967  0.00  0.00    -0.275 N 
ATOM     13  O2  U5P d          36.910   1.349  11.194  0.00  0.00    -0.246 OA
ATOM     14  C4  U5P d          40.239   0.350  11.039  0.00  0.00     0.250 A 
ATOM     15  H1  U5P d          39.202   2.056  10.655  0.00  0.00     0.173 HD
ATOM     16  C5  U5P d          40.160  -0.967  11.493  0.00  0.00    -0.002 A 
ATOM     17  O4  U5P d          41.337   0.848  10.705  0.00  0.00    -0.268 OA
ATOM     18  C6  U5P d          38.907  -1.457  11.849  0.00  0.00    -0.008 A 
ATOM     19  H2  U5P d          41.049  -1.591  11.565  0.00  0.00     0.094 H 
ATOM     20  H3  U5P d          38.810  -2.479  12.212  0.00  0.00     0.112 H 
ENDBRANCH   1  10
BRANCH   2  21
ATOM     21  O2' U5P d          34.509  -1.565  10.970  0.00  0.00    -0.388 OA
ATOM     22  H6  U5P d          34.357  -1.186  10.112  0.00  0.00     0.210 HD
ENDBRANCH   2  21
BRANCH   3  23
ATOM     23  O3' U5P d          34.929  -4.281  11.176  0.00  0.00    -0.390 OA
ATOM     24  H9  U5P d          34.104  -4.076  11.598  0.00  0.00     0.210 HD
ENDBRANCH   3  23
BRANCH   4  25
ATOM     25  C5' U5P d          36.397  -4.260  13.998  0.00  0.00     0.059 C 
ATOM     26  H10 U5P d          36.766  -5.068  13.350  0.00  0.00     0.079 H 
ATOM     27  H11 U5P d          35.626  -4.655  14.675  0.00  0.00     0.079 H 
BRANCH  25  28
ATOM     28  O5' U5P d          37.470  -3.703  14.746  0.00  0.00    -0.280 OA
BRANCH  28  29
ATOM     29  P   U5P d          38.960  -4.306  14.704  0.00  0.00     0.422 P 
ATOM     30  O1P U5P d          39.021  -5.288  15.857  0.00  0.00    -0.617 OA
ATOM     31  O2P U5P d          39.865  -3.101  14.858  0.00  0.00    -0.617 OA
ATOM     32  O3P U5P d          39.008  -4.919  13.324  0.00  0.00    -0.617 OA
ENDBRANCH  28  29
ENDBRANCH  25  28
ENDBRANCH   4  25
TORSDOF 6
ENDMDL
MODEL 3
REMARK VINA RESULT:      -5.0      1.998      2.633
REMARK  6 active torsions:
REMARK  status: ('A' for Active; 'I' for Inactive)
REMARK    1  A    between atoms: N1_1  and  C1'_9 
REMARK    2  A    between atoms: C2'_10  and  O2'_11 
REMARK    3  A    between atoms: C3'_12  and  O3'_14 
REMARK    4  A    between atoms: C4'_13  and  C5'_16 
REMARK    5  A    between atoms: C5'_16  and  O5'_17 
REMARK    6  A    between atoms: O5'_17  and  P_18 
ROOT
ATOM      1  C1' U5P d          37.178  -0.360  11.791  0.00  0.00     0.141 C 
ATOM      2  C2' U5P d          36.756   0.550  12.920  0.00  0.00     0.105 C 
ATOM      3  C3' U5P d          38.020   0.688  13.736  0.00  0.00     0.091 C 
ATOM      4  C4' U5P d          39.118   0.569  12.692  0.00  0.00     0.089 C 
ATOM      5  O4' U5P d          38.607  -0.418  11.787  0.00  0.00    -0.353 OA
ATOM      6  H4  U5P d          36.828   0.067  10.839  0.00  0.00     0.123 H 
ATOM      7  H5  U5P d          35.919   0.153  13.513  0.00  0.00     0.093 H 
ATOM      8  H7  U5P d          38.092  -0.144  14.452  0.00  0.00     0.091 H 
ATOM      9  H8  U5P d          39.256   1.530  12.175  0.00  0.00     0.090 H 
ENDROOT
BRANCH   1  10
ATOM     10  N1  U5P d          36.624  -1.696  11.926  0.00  0.00    -0.280 N 
ATOM     11  C2  U5P d          35.417  -1.957  11.277  0.00  0.00     0.331 A 
ATOM     12  N3  U5P d          34.892  -3.177  11.358  0.00  0.00    -0.275 N 
ATOM     13  O2  U5P d          34.839  -1.054  10.649  0.00  0.00    -0.246 OA
ATOM     14  C4  U5P d          35.481  -4.169  12.061  0.00  0.00     0.250 A 
ATOM     15  H1  U5P d          34.032  -3.365  10.883  0.00  0.00     0.173 HD
ATOM     16  C5  U5P d          36.692  -3.938  12.714  0.00  0.00    -0.002 A 
ATOM     17  O4  U5P d          34.931  -5.292  12.107  0.00  0.00    -0.268 OA
ATOM     18  C6  U5P d          37.248  -2.666  12.622  0.00  0.00    -0.008 A 
ATOM     19  H2  U5P d          37.185  -4.728  13.279  0.00  0.00     0.094 H 
ATOM     20  H3  U5P d          38.196  -2.454  13.115  0.00  0.00     0.112 H 
ENDBRANCH   1  10
BRANCH   2  21
ATOM     21  O2' U5P d          36.419   1.789  12.284  0.00  0.00    -0.388 OA
ATOM     22  H6  U5P d          37.202   2.319  12.190  0.00  0.00     0.210 HD
ENDBRANCH   2  21
BRANCH   3  23
ATOM     23  O3' U5P d          38.087   1.910  14.474  0.00  0.00    -0.390 OA
ATOM     24  H9  U5P d          38.826   2.422  14.169  0.00  0.00     0.210 HD
ENDBRANCH   3  23
BRANCH   4  25
ATOM     25  C5' U5P d          40.452   0.142  13.292  0.00  0.00     0.059 C 
ATOM     26  H10 U5P d          41.122   1.010  13.383  0.00  0.00     0.079 H 
ATOM     27  H11 U5P d          40.927  -0.621  12.658  0.00  0.00     0.079 H 
BRANCH  25  28
ATOM     28  O5' U5P d          40.167  -0.394  14.576  0.00  0.00    -0.280 OA
BRANCH  28  29
ATOM     29  P   U5P d          40.417  -1.940  14.945  0.00  0.00     0.422 P 
ATOM     30  O1P U5P d          39.137  -2.398  15.614  0.00  0.00    -0.617 OA
ATOM     31  O2P U5P d          41.629  -1.925  15.853  0.00  0.00    -0.617 OA
ATOM     32  O3P U5P d          40.694  -2.541  13.587  0.00  0.00    -0.617 OA
ENDBRANCH  28  29
ENDBRANCH  25  28
ENDBRANCH   4  25
TORSDOF 6
ENDMDL
MODEL 4
REMARK VINA RESULT:      -5.0      2.088      2.377
REMARK  6 active torsions:
REMARK  status: ('A' for Active; 'I' for Inactive)
REMARK    1  A    between atoms: N1_1  and  C1'_9 
REMARK    2  A    between atoms: C2'_10  and  O2'_11 
REMARK    3  A    between atoms: C3'_12  and  O3'_14 
REMARK    4  A    between atoms: C4'_13  and  C5'_16 
REMARK    5  A    between atoms: C5'_16  and  O5'_17 
REMARK    6  A    between atoms: O5'_17  and  P_18 
ROOT
ATOM      1  C1' U5P d          37.035  -0.618  12.667  0.00  0.00     0.141 C 
ATOM      2  C2' U5P d          37.473  -0.338  14.084  0.00  0.00     0.105 C 
ATOM      3  C3' U5P d          38.969  -0.540  14.025  0.00  0.00     0.091 C 
ATOM      4  C4' U5P d          39.315  -0.130  12.604  0.00  0.00     0.089 C 
ATOM      5  O4' U5P d          38.202  -0.614  11.841  0.00  0.00    -0.353 OA
ATOM      6  H4  U5P d          36.355   0.183  12.340  0.00  0.00     0.123 H 
ATOM      7  H5  U5P d          36.994  -0.993  14.828  0.00  0.00     0.093 H 
ATOM      8  H7  U5P d          39.207  -1.603  14.176  0.00  0.00     0.091 H 
ATOM      9  H8  U5P d          39.383   0.966  12.530  0.00  0.00     0.090 H 
ENDROOT
BRANCH   1  10
ATOM     10  N1  U5P d          36.342  -1.889  12.546  0.00  0.00    -0.280 N 
ATOM     11  C2  U5P d          35.507  -2.059  11.441  0.00  0.00     0.331 A 
ATOM     12  N3  U5P d          34.874  -3.218  11.284  0.00  0.00    -0.275 N 
ATOM     13  O2  U5P d          35.349  -1.131  10.631  0.00  0.00    -0.246 OA
ATOM     14  C4  U5P d          35.000  -4.233  12.167  0.00  0.00     0.250 A 
ATOM     15  H1  U5P d          34.284  -3.343  10.486  0.00  0.00     0.173 HD
ATOM     16  C5  U5P d          35.834  -4.093  13.277  0.00  0.00    -0.002 A 
ATOM     17  O4  U5P d          34.370  -5.295  11.968  0.00  0.00    -0.268 OA
ATOM     18  C6  U5P d          36.505  -2.885  13.438  0.00  0.00    -0.008 A 
ATOM     19  H2  U5P d          35.954  -4.903  13.995  0.00  0.00     0.094 H 
ATOM     20  H3  U5P d          37.168  -2.744  14.290  0.00  0.00     0.112 H 
ENDBRANCH   1  10
BRANCH   2  21
ATOM     21  O2' U5P d          37.150   1.041  14.301  0.00  0.00    -0.388 OA
ATOM     22  H6  U5P d          36.209   1.158  14.242  0.00  0.00     0.210 HD
ENDBRANCH   2  21
BRANCH   3  23
ATOM     23  O3' U5P d          39.682   0.213  15.009  0.00  0.00    -0.390 OA
ATOM     24  H9  U5P d          40.605   0.229  14.785  0.00  0.00     0.210 HD
ENDBRANCH   3  23
BRANCH   4  25
ATOM     25  C5' U5P d          40.630  -0.732  12.123  0.00  0.00     0.059 C 
ATOM     26  H10 U5P d          41.443   0.002  12.224  0.00  0.00     0.079 H 
ATOM     27  H11 U5P d          40.544  -1.041  11.071  0.00  0.00     0.079 H 
BRANCH  25  28
ATOM     28  O5' U5P d          40.883  -1.861  12.947  0.00  0.00    -0.280 OA
BRANCH  28  29
ATOM     29  P   U5P d          41.071  -3.344  12.352  0.00  0.00     0.422 P 
ATOM     30  O1P U5P d          41.629  -3.142  10.958  0.00  0.00    -0.617 OA
ATOM     31  O2P U5P d          39.684  -3.951  12.391  0.00  0.00    -0.617 OA
ATOM     32  O3P U5P d          42.023  -3.960  13.351  0.00  0.00    -0.617 OA
ENDBRANCH  28  29
ENDBRANCH  25  28
ENDBRANCH   4  25
TORSDOF 6
ENDMDL
MODEL 5
REMARK VINA RESULT:      -5.0      2.254      4.086
REMARK  6 active torsions:
REMARK  status: ('A' for Active; 'I' for Inactive)
REMARK    1  A    between atoms: N1_1  and  C1'_9 
REMARK    2  A    between atoms: C2'_10  and  O2'_11 
REMARK    3  A    between atoms: C3'_12  and  O3'_14 
REMARK    4  A    between atoms: C4'_13  and  C5'_16 
REMARK    5  A    between atoms: C5'_16  and  O5'_17 
REMARK    6  A    between atoms: O5'_17  and  P_18 
ROOT
ATOM      1  C1' U5P d          39.031  -2.779  13.390  0.00  0.00     0.141 C 
ATOM      2  C2' U5P d          39.830  -2.698  12.112  0.00  0.00     0.105 C 
ATOM      3  C3' U5P d          39.845  -1.218  11.812  0.00  0.00     0.091 C 
ATOM      4  C4' U5P d          39.803  -0.587  13.193  0.00  0.00     0.089 C 
ATOM      5  O4' U5P d          38.931  -1.457  13.927  0.00  0.00    -0.353 OA
ATOM      6  H4  U5P d          39.565  -3.423  14.104  0.00  0.00     0.123 H 
ATOM      7  H5  U5P d          39.398  -3.285  11.288  0.00  0.00     0.093 H 
ATOM      8  H7  U5P d          38.942  -0.944  11.247  0.00  0.00     0.091 H 
ATOM      9  H8  U5P d          40.808  -0.584  13.641  0.00  0.00     0.090 H 
ENDROOT
BRANCH   1  10
ATOM     10  N1  U5P d          37.704  -3.331  13.175  0.00  0.00    -0.280 N 
ATOM     11  C2  U5P d          37.213  -4.209  14.142  0.00  0.00     0.331 A 
ATOM     12  N3  U5P d          35.992  -4.716  13.991  0.00  0.00    -0.275 N 
ATOM     13  O2  U5P d          37.918  -4.520  15.116  0.00  0.00    -0.246 OA
ATOM     14  C4  U5P d          35.217  -4.422  12.926  0.00  0.00     0.250 A 
ATOM     15  H1  U5P d          35.637  -5.337  14.691  0.00  0.00     0.173 HD
ATOM     16  C5  U5P d          35.679  -3.542  11.947  0.00  0.00    -0.002 A 
ATOM     17  O4  U5P d          34.081  -4.940  12.837  0.00  0.00    -0.268 OA
ATOM     18  C6  U5P d          36.952  -3.001  12.108  0.00  0.00    -0.008 A 
ATOM     19  H2  U5P d          35.065  -3.286  11.085  0.00  0.00     0.094 H 
ATOM     20  H3  U5P d          37.341  -2.306  11.366  0.00  0.00     0.112 H 
ENDBRANCH   1  10
BRANCH   2  21
ATOM     21  O2' U5P d          41.138  -3.162  12.469  0.00  0.00    -0.388 OA
ATOM     22  H6  U5P d          41.278  -4.027  12.101  0.00  0.00     0.210 HD
ENDBRANCH   2  21
BRANCH   3  23
ATOM     23  O3' U5P d          40.981  -0.806  11.048  0.00  0.00    -0.390 OA
ATOM     24  H9  U5P d          41.655  -0.485  11.635  0.00  0.00     0.210 HD
ENDBRANCH   3  23
BRANCH   4  25
ATOM     25  C5' U5P d          39.278   0.843  13.169  0.00  0.00     0.059 C 
ATOM     26  H10 U5P d          40.076   1.546  13.451  0.00  0.00     0.079 H 
ATOM     27  H11 U5P d          38.432   0.949  13.865  0.00  0.00     0.079 H 
BRANCH  25  28
ATOM     28  O5' U5P d          38.851   1.095  11.837  0.00  0.00    -0.280 OA
BRANCH  28  29
ATOM     29  P   U5P d          37.345   1.530  11.477  0.00  0.00     0.422 P 
ATOM     30  O1P U5P d          37.486   2.579  10.391  0.00  0.00    -0.617 OA
ATOM     31  O2P U5P d          36.774   2.049  12.780  0.00  0.00    -0.617 OA
ATOM     32  O3P U5P d          36.740   0.216  11.038  0.00  0.00    -0.617 OA
ENDBRANCH  28  29
ENDBRANCH  25  28
ENDBRANCH   4  25
TORSDOF 6
ENDMDL
MODEL 6
REMARK VINA RESULT:      -4.7      3.014      4.711
REMARK  6 active torsions:
REMARK  status: ('A' for Active; 'I' for Inactive)
REMARK    1  A    between atoms: N1_1  and  C1'_9 
REMARK    2  A    between atoms: C2'_10  and  O2'_11 
REMARK    3  A    between atoms: C3'_12  and  O3'_14 
REMARK    4  A    between atoms: C4'_13  and  C5'_16 
REMARK    5  A    between atoms: C5'_16  and  O5'_17 
REMARK    6  A    between atoms: O5'_17  and  P_18 
ROOT
ATOM      1  C1' U5P d          39.673   0.484  12.334  0.00  0.00     0.141 C 
ATOM      2  C2' U5P d          39.316   1.189  11.048  0.00  0.00     0.105 C 
ATOM      3  C3' U5P d          37.815   1.032  10.978  0.00  0.00     0.091 C 
ATOM      4  C4' U5P d          37.404   1.011  12.441  0.00  0.00     0.089 C 
ATOM      5  O4' U5P d          38.465   0.282  13.071  0.00  0.00    -0.353 OA
ATOM      6  H4  U5P d          40.352   1.126  12.915  0.00  0.00     0.123 H 
ATOM      7  H5  U5P d          39.819   0.770  10.164  0.00  0.00     0.093 H 
ATOM      8  H7  U5P d          37.563   0.072  10.505  0.00  0.00     0.091 H 
ATOM      9  H8  U5P d          37.355   2.037  12.837  0.00  0.00     0.090 H 
ENDROOT
BRANCH   1  10
ATOM     10  N1  U5P d          40.333  -0.789  12.098  0.00  0.00    -0.280 N 
ATOM     11  C2  U5P d          40.354  -1.703  13.152  0.00  0.00     0.331 A 
ATOM     12  N3  U5P d          40.929  -2.888  12.966  0.00  0.00    -0.275 N 
ATOM     13  O2  U5P d          39.857  -1.400  14.250  0.00  0.00    -0.246 OA
ATOM     14  C4  U5P d          41.506  -3.233  11.794  0.00  0.00     0.250 A 
ATOM     15  H1  U5P d          40.933  -3.546  13.719  0.00  0.00     0.173 HD
ATOM     16  C5  U5P d          41.493  -2.341  10.721  0.00  0.00    -0.002 A 
ATOM     17  O4  U5P d          42.038  -4.359  11.686  0.00  0.00    -0.268 OA
ATOM     18  C6  U5P d          40.883  -1.105  10.910  0.00  0.00    -0.008 A 
ATOM     19  H2  U5P d          41.946  -2.604   9.767  0.00  0.00     0.094 H 
ATOM     20  H3  U5P d          40.851  -0.387  10.092  0.00  0.00     0.112 H 
ENDBRANCH   1  10
BRANCH   2  21
ATOM     21  O2' U5P d          39.678   2.558  11.269  0.00  0.00    -0.388 OA
ATOM     22  H6  U5P d          40.091   2.642  12.121  0.00  0.00     0.210 HD
ENDBRANCH   2  21
BRANCH   3  23
ATOM     23  O3' U5P d          37.171   2.069  10.236  0.00  0.00    -0.390 OA
ATOM     24  H9  U5P d          36.657   2.607  10.826  0.00  0.00     0.210 HD
ENDBRANCH   3  23
BRANCH   4  25
ATOM     25  C5' U5P d          36.054   0.340  12.661  0.00  0.00     0.059 C 
ATOM     26  H10 U5P d          35.246   1.085  12.604  0.00  0.00     0.079 H 
ATOM     27  H11 U5P d          36.030  -0.153  13.644  0.00  0.00     0.079 H 
BRANCH  25  28
ATOM     28  O5' U5P d          35.906  -0.622  11.626  0.00  0.00    -0.280 OA
BRANCH  28  29
ATOM     29  P   U5P d          35.925  -2.206  11.906  0.00  0.00     0.422 P 
ATOM     30  O1P U5P d          37.355  -2.636  11.647  0.00  0.00    -0.617 OA
ATOM     31  O2P U5P d          34.913  -2.778  10.935  0.00  0.00    -0.617 OA
ATOM     32  O3P U5P d          35.476  -2.271  13.347  0.00  0.00    -0.617 OA
ENDBRANCH  28  29
ENDBRANCH  25  28
ENDBRANCH   4  25
TORSDOF 6
ENDMDL
MODEL 7
REMARK VINA RESULT:      -4.4      2.221      4.087
REMARK  6 active torsions:
REMARK  status: ('A' for Active; 'I' for Inactive)
REMARK    1  A    between atoms: N1_1  and  C1'_9 
REMARK    2  A    between atoms: C2'_10  and  O2'_11 
REMARK    3  A    between atoms: C3'_12  and  O3'_14 
REMARK    4  A    between atoms: C4'_13  and  C5'_16 
REMARK    5  A    between atoms: C5'_16  and  O5'_17 
REMARK    6  A    between atoms: O5'_17  and  P_18 
ROOT
ATOM      1  C1' U5P d          38.828  -2.800  13.847  0.00  0.00     0.141 C 
ATOM      2  C2' U5P d          39.657  -3.922  13.270  0.00  0.00     0.105 C 
ATOM      3  C3' U5P d          40.867  -3.204  12.721  0.00  0.00     0.091 C 
ATOM      4  C4' U5P d          41.017  -2.018  13.658  0.00  0.00     0.089 C 
ATOM      5  O4' U5P d          39.661  -1.641  13.932  0.00  0.00    -0.353 OA
ATOM      6  H4  U5P d          38.497  -3.085  14.857  0.00  0.00     0.123 H 
ATOM      7  H5  U5P d          39.131  -4.501  12.496  0.00  0.00     0.093 H 
ATOM      8  H7  U5P d          40.659  -2.851  11.700  0.00  0.00     0.091 H 
ATOM      9  H8  U5P d          41.525  -2.326  14.584  0.00  0.00     0.090 H 
ENDROOT
BRANCH   1  10
ATOM     10  N1  U5P d          37.654  -2.513  13.042  0.00  0.00    -0.280 N 
ATOM     11  C2  U5P d          36.565  -3.376  13.167  0.00  0.00     0.331 A 
ATOM     12  N3  U5P d          35.463  -3.131  12.463  0.00  0.00    -0.275 N 
ATOM     13  O2  U5P d          36.638  -4.366  13.915  0.00  0.00    -0.246 OA
ATOM     14  C4  U5P d          35.367  -2.082  11.618  0.00  0.00     0.250 A 
ATOM     15  H1  U5P d          34.680  -3.745  12.563  0.00  0.00     0.173 HD
ATOM     16  C5  U5P d          36.438  -1.198  11.477  0.00  0.00    -0.002 A 
ATOM     17  O4  U5P d          34.307  -1.911  10.977  0.00  0.00    -0.268 OA
ATOM     18  C6  U5P d          37.588  -1.446  12.221  0.00  0.00    -0.008 A 
ATOM     19  H2  U5P d          36.376  -0.342  10.807  0.00  0.00     0.094 H 
ATOM     20  H3  U5P d          38.440  -0.774  12.140  0.00  0.00     0.112 H 
ENDBRANCH   1  10
BRANCH   2  21
ATOM     21  O2' U5P d          40.009  -4.733  14.397  0.00  0.00    -0.388 OA
ATOM     22  H6  U5P d          40.279  -5.593  14.095  0.00  0.00     0.210 HD
ENDBRANCH   2  21
BRANCH   3  23
ATOM     23  O3' U5P d          42.038  -4.023  12.672  0.00  0.00    -0.390 OA
ATOM     24  H9  U5P d          41.821  -4.860  12.278  0.00  0.00     0.210 HD
ENDBRANCH   3  23
BRANCH   4  25
ATOM     25  C5' U5P d          41.802  -0.871  13.032  0.00  0.00     0.059 C 
ATOM     26  H10 U5P d          42.472  -1.254  12.248  0.00  0.00     0.079 H 
ATOM     27  H11 U5P d          42.395  -0.352  13.800  0.00  0.00     0.079 H 
BRANCH  25  28
ATOM     28  O5' U5P d          40.845   0.015  12.469  0.00  0.00    -0.280 OA
BRANCH  28  29
ATOM     29  P   U5P d          40.851   0.424  10.913  0.00  0.00     0.422 P 
ATOM     30  O1P U5P d          41.998   1.405  10.768  0.00  0.00    -0.617 OA
ATOM     31  O2P U5P d          39.481   1.021  10.669  0.00  0.00    -0.617 OA
ATOM     32  O3P U5P d          41.051  -0.915  10.242  0.00  0.00    -0.617 OA
ENDBRANCH  28  29
ENDBRANCH  25  28
ENDBRANCH   4  25
TORSDOF 6
ENDMDL
MODEL 8
REMARK VINA RESULT:      -4.4      2.634      4.550
REMARK  6 active torsions:
REMARK  status: ('A' for Active; 'I' for Inactive)
REMARK    1  A    between atoms: N1_1  and  C1'_9 
REMARK    2  A    between atoms: C2'_10  and  O2'_11 
REMARK    3  A    between atoms: C3'_12  and  O3'_14 
REMARK    4  A    between atoms: C4'_13  and  C5'_16 
REMARK    5  A    between atoms: C5'_16  and  O5'_17 
REMARK    6  A    between atoms: O5'_17  and  P_18 
ROOT
ATOM      1  C1' U5P d          37.797  -3.413  14.996  0.00  0.00     0.141 C 
ATOM      2  C2' U5P d          38.975  -4.267  14.596  0.00  0.00     0.105 C 
ATOM      3  C3' U5P d          40.144  -3.319  14.730  0.00  0.00     0.091 C 
ATOM      4  C4' U5P d          39.711  -2.397  15.857  0.00  0.00     0.089 C 
ATOM      5  O4' U5P d          38.305  -2.236  15.630  0.00  0.00    -0.353 OA
ATOM      6  H4  U5P d          37.177  -3.973  15.711  0.00  0.00     0.123 H 
ATOM      7  H5  U5P d          38.891  -4.682  13.581  0.00  0.00     0.093 H 
ATOM      8  H7  U5P d          40.265  -2.744  13.801  0.00  0.00     0.091 H 
ATOM      9  H8  U5P d          39.890  -2.877  16.832  0.00  0.00     0.090 H 
ENDROOT
BRANCH   1  10
ATOM     10  N1  U5P d          36.971  -3.049  13.857  0.00  0.00    -0.280 N 
ATOM     11  C2  U5P d          36.028  -3.983  13.427  0.00  0.00     0.331 A 
ATOM     12  N3  U5P d          35.237  -3.675  12.402  0.00  0.00    -0.275 N 
ATOM     13  O2  U5P d          35.947  -5.089  13.986  0.00  0.00    -0.246 OA
ATOM     14  C4  U5P d          35.325  -2.493  11.754  0.00  0.00     0.250 A 
ATOM     15  H1  U5P d          34.554  -4.341  12.102  0.00  0.00     0.173 HD
ATOM     16  C5  U5P d          36.254  -1.537  12.167  0.00  0.00    -0.002 A 
ATOM     17  O4  U5P d          34.559  -2.268  10.791  0.00  0.00    -0.268 OA
ATOM     18  C6  U5P d          37.075  -1.853  13.246  0.00  0.00    -0.008 A 
ATOM     19  H2  U5P d          36.334  -0.576  11.662  0.00  0.00     0.094 H 
ATOM     20  H3  U5P d          37.807  -1.128  13.598  0.00  0.00     0.112 H 
ENDBRANCH   1  10
BRANCH   2  21
ATOM     21  O2' U5P d          39.034  -5.296  15.591  0.00  0.00    -0.388 OA
ATOM     22  H6  U5P d          39.936  -5.425  15.860  0.00  0.00     0.210 HD
ENDBRANCH   2  21
BRANCH   3  23
ATOM     23  O3' U5P d          41.382  -3.981  15.000  0.00  0.00    -0.390 OA
ATOM     24  H9  U5P d          41.220  -4.904  15.150  0.00  0.00     0.210 HD
ENDBRANCH   3  23
BRANCH   4  25
ATOM     25  C5' U5P d          40.440  -1.059  15.833  0.00  0.00     0.059 C 
ATOM     26  H10 U5P d          41.395  -1.137  16.373  0.00  0.00     0.079 H 
ATOM     27  H11 U5P d          39.819  -0.279  16.298  0.00  0.00     0.079 H 
BRANCH  25  28
ATOM     28  O5' U5P d          40.674  -0.750  14.466  0.00  0.00    -0.280 OA
BRANCH  28  29
ATOM     29  P   U5P d          40.178   0.624  13.791  0.00  0.00     0.422 P 
ATOM     30  O1P U5P d          38.986   1.062  14.618  0.00  0.00    -0.617 OA
ATOM     31  O2P U5P d          39.847   0.251  12.361  0.00  0.00    -0.617 OA
ATOM     32  O3P U5P d          41.409   1.491  13.915  0.00  0.00    -0.617 OA
ENDBRANCH  28  29
ENDBRANCH  25  28
ENDBRANCH   4  25
TORSDOF 6
ENDMDL
MODEL 9
REMARK VINA RESULT:      -4.3      2.559      5.310
REMARK  6 active torsions:
REMARK  status: ('A' for Active; 'I' for Inactive)
REMARK    1  A    between atoms: N1_1  and  C1'_9 
REMARK    2  A    between atoms: C2'_10  and  O2'_11 
REMARK    3  A    between atoms: C3'_12  and  O3'_14 
REMARK    4  A    between atoms: C4'_13  and  C5'_16 
REMARK    5  A    between atoms: C5'_16  and  O5'_17 
REMARK    6  A    between atoms: O5'_17  and  P_18 
ROOT
ATOM      1  C1' U5P d          39.402  -0.424  11.977  0.00  0.00     0.141 C 
ATOM      2  C2' U5P d          40.584  -0.536  12.908  0.00  0.00     0.105 C 
ATOM      3  C3' U5P d          40.461  -1.942  13.447  0.00  0.00     0.091 C 
ATOM      4  C4' U5P d          39.818  -2.696  12.296  0.00  0.00     0.089 C 
ATOM      5  O4' U5P d          38.897  -1.743  11.750  0.00  0.00    -0.353 OA
ATOM      6  H4  U5P d          39.740   0.006  11.022  0.00  0.00     0.123 H 
ATOM      7  H5  U5P d          40.584   0.218  13.709  0.00  0.00     0.093 H 
ATOM      8  H7  U5P d          39.792  -1.948  14.320  0.00  0.00     0.091 H 
ATOM      9  H8  U5P d          40.578  -2.968  11.548  0.00  0.00     0.090 H 
ENDROOT
BRANCH   1  10
ATOM     10  N1  U5P d          38.355   0.426  12.517  0.00  0.00    -0.280 N 
ATOM     11  C2  U5P d          37.042   0.139  12.142  0.00  0.00     0.331 A 
ATOM     12  N3  U5P d          36.054   0.881  12.637  0.00  0.00    -0.275 N 
ATOM     13  O2  U5P d          36.809  -0.785  11.346  0.00  0.00    -0.246 OA
ATOM     14  C4  U5P d          36.279   1.912  13.479  0.00  0.00     0.250 A 
ATOM     15  H1  U5P d          35.112   0.667  12.375  0.00  0.00     0.173 HD
ATOM     16  C5  U5P d          37.582   2.218  13.876  0.00  0.00    -0.002 A 
ATOM     17  O4  U5P d          35.308   2.578  13.901  0.00  0.00    -0.268 OA
ATOM     18  C6  U5P d          38.616   1.436  13.369  0.00  0.00    -0.008 A 
ATOM     19  H2  U5P d          37.782   3.040  14.560  0.00  0.00     0.094 H 
ATOM     20  H3  U5P d          39.644   1.643  13.663  0.00  0.00     0.112 H 
ENDBRANCH   1  10
BRANCH   2  21
ATOM     21  O2' U5P d          41.732  -0.412  12.059  0.00  0.00    -0.388 OA
ATOM     22  H6  U5P d          42.512  -0.321  12.593  0.00  0.00     0.210 HD
ENDBRANCH   2  21
BRANCH   3  23
ATOM     23  O3' U5P d          41.711  -2.506  13.850  0.00  0.00    -0.390 OA
ATOM     24  H9  U5P d          42.028  -2.051  14.622  0.00  0.00     0.210 HD
ENDBRANCH   3  23
BRANCH   4  25
ATOM     25  C5' U5P d          39.108  -3.965  12.750  0.00  0.00     0.059 C 
ATOM     26  H10 U5P d          39.247  -4.112  13.832  0.00  0.00     0.079 H 
ATOM     27  H11 U5P d          39.504  -4.837  12.208  0.00  0.00     0.079 H 
BRANCH  25  28
ATOM     28  O5' U5P d          37.730  -3.787  12.454  0.00  0.00    -0.280 OA
BRANCH  28  29
ATOM     29  P   U5P d          36.590  -3.798  13.588  0.00  0.00     0.422 P 
ATOM     30  O1P U5P d          36.762  -5.121  14.308  0.00  0.00    -0.617 OA
ATOM     31  O2P U5P d          35.289  -3.663  12.825  0.00  0.00    -0.617 OA
ATOM     32  O3P U5P d          36.943  -2.569  14.393  0.00  0.00    -0.617 OA
ENDBRANCH  28  29
ENDBRANCH  25  28
ENDBRANCH   4  25
TORSDOF 6
ENDMDL
MODEL 10
REMARK VINA RESULT:      -4.3      2.585      5.105
REMARK  6 active torsions:
REMARK  status: ('A' for Active; 'I' for Inactive)
REMARK    1  A    between atoms: N1_1  and  C1'_9 
REMARK    2  A    between atoms: C2'_10  and  O2'_11 
REMARK    3  A    between atoms: C3'_12  and  O3'_14 
REMARK    4  A    between atoms: C4'_13  and  C5'_16 
REMARK    5  A    between atoms: C5'_16  and  O5'_17 
REMARK    6  A    between atoms: O5'_17  and  P_18 
ROOT
ATOM      1  C1' U5P d          36.344  -1.943  13.080  0.00  0.00     0.141 C 
ATOM      2  C2' U5P d          36.586  -3.162  12.223  0.00  0.00     0.105 C 
ATOM      3  C3' U5P d          37.686  -3.886  12.964  0.00  0.00     0.091 C 
ATOM      4  C4' U5P d          37.419  -3.524  14.415  0.00  0.00     0.089 C 
ATOM      5  O4' U5P d          36.983  -2.161  14.341  0.00  0.00    -0.353 OA
ATOM      6  H4  U5P d          35.261  -1.826  13.236  0.00  0.00     0.123 H 
ATOM      7  H5  U5P d          36.871  -2.920  11.188  0.00  0.00     0.093 H 
ATOM      8  H7  U5P d          38.665  -3.491  12.654  0.00  0.00     0.091 H 
ATOM      9  H8  U5P d          36.620  -4.161  14.825  0.00  0.00     0.090 H 
ENDROOT
BRANCH   1  10
ATOM     10  N1  U5P d          36.853  -0.729  12.466  0.00  0.00    -0.280 N 
ATOM     11  C2  U5P d          36.387  -0.414  11.189  0.00  0.00     0.331 A 
ATOM     12  N3  U5P d          36.813   0.703  10.604  0.00  0.00    -0.275 N 
ATOM     13  O2  U5P d          35.599  -1.178  10.607  0.00  0.00    -0.246 OA
ATOM     14  C4  U5P d          37.694   1.536  11.199  0.00  0.00     0.250 A 
ATOM     15  H1  U5P d          36.468   0.933   9.694  0.00  0.00     0.173 HD
ATOM     16  C5  U5P d          38.172   1.249  12.478  0.00  0.00    -0.002 A 
ATOM     17  O4  U5P d          38.064   2.566  10.592  0.00  0.00    -0.268 OA
ATOM     18  C6  U5P d          37.720   0.087  13.096  0.00  0.00    -0.008 A 
ATOM     19  H2  U5P d          38.877   1.913  12.976  0.00  0.00     0.094 H 
ATOM     20  H3  U5P d          38.069  -0.164  14.096  0.00  0.00     0.112 H 
ENDBRANCH   1  10
BRANCH   2  21
ATOM     21  O2' U5P d          35.359  -3.899  12.281  0.00  0.00    -0.388 OA
ATOM     22  H6  U5P d          35.147  -4.229  11.416  0.00  0.00     0.210 HD
ENDBRANCH   2  21
BRANCH   3  23
ATOM     23  O3' U5P d          37.690  -5.296  12.735  0.00  0.00    -0.390 OA
ATOM     24  H9  U5P d          37.963  -5.743  13.527  0.00  0.00     0.210 HD
ENDBRANCH   3  23
BRANCH   4  25
ATOM     25  C5' U5P d          38.655  -3.671  15.293  0.00  0.00     0.059 C 
ATOM     26  H10 U5P d          38.840  -4.733  15.515  0.00  0.00     0.079 H 
ATOM     27  H11 U5P d          38.521  -3.118  16.235  0.00  0.00     0.079 H 
BRANCH  25  28
ATOM     28  O5' U5P d          39.742  -3.129  14.556  0.00  0.00    -0.280 OA
BRANCH  28  29
ATOM     29  P   U5P d          41.151  -3.891  14.401  0.00  0.00     0.422 P 
ATOM     30  O1P U5P d          41.679  -4.034  15.814  0.00  0.00    -0.617 OA
ATOM     31  O2P U5P d          41.978  -2.988  13.510  0.00  0.00    -0.617 OA
ATOM     32  O3P U5P d          40.733  -5.178  13.728  0.00  0.00    -0.617 OA
ENDBRANCH  28  29
ENDBRANCH  25  28
ENDBRANCH   4  25
TORSDOF 6
ENDMDL
