MODEL 1
REMARK VINA RESULT:      -8.2      0.000      0.000
REMARK  13 active torsions:
REMARK  status: ('A' for Active; 'I' for Inactive)
REMARK    1  A    between atoms: C6_6  and  O25_25 
REMARK    2  A    between atoms: C8_8  and  C27_27 
REMARK    3  A    between atoms: C10_10  and  O28_28 
REMARK    4  A    between atoms: C11_11  and  O30_30 
REMARK    5  A    between atoms: C12_12  and  C31_31 
REMARK    6  A    between atoms: C14_14  and  C32_32 
REMARK    7  A    between atoms: C15_15  and  O33_33 
REMARK    8  A    between atoms: C16_16  and  O37_37 
REMARK    9  A    between atoms: C20_20  and  C39_39 
REMARK   10  A    between atoms: O25_25  and  C26_26 
REMARK   11  A    between atoms: O28_28  and  C29_29 
REMARK   12  A    between atoms: O33_33  and  C34_34 
REMARK       I    between atoms: C34_34  and  N36_36 
REMARK   13  A    between atoms: O37_37  and  C38_38 
ROOT
ATOM      1  C1  GMY d          26.012 -34.215  -5.224  0.00  0.00     0.032 A 
ATOM      2  C2  GMY d          26.071 -33.997  -3.713  0.00  0.00     0.207 A 
ATOM      3  C3  GMY d          25.566 -32.682  -3.104  0.00  0.00     0.090 A 
ATOM      4  C4  GMY d          25.014 -31.638  -3.968  0.00  0.00    -0.002 A 
ATOM      5  C5  GMY d          24.967 -31.847  -5.486  0.00  0.00     0.208 A 
ATOM      6  C6  GMY d          25.462 -33.166  -6.086  0.00  0.00     0.128 A 
ATOM      7  C7  GMY d          25.959 -35.675  -5.707  0.00  0.00    -0.031 C 
ATOM      8  C8  GMY d          24.465 -36.006  -5.568  0.00  0.00    -0.051 C 
ATOM      9  C9  GMY d          23.856 -36.158  -6.969  0.00  0.00    -0.035 C 
ATOM     10  C10 GMY d          22.542 -36.947  -6.903  0.00  0.00     0.063 C 
ATOM     11  C11 GMY d          21.511 -36.336  -7.875  0.00  0.00     0.067 C 
ATOM     12  C12 GMY d          21.250 -34.861  -7.496  0.00  0.00    -0.014 C 
ATOM     13  C13 GMY d          20.361 -34.813  -6.249  0.00  0.00    -0.092 C 
ATOM     14  C14 GMY d          20.485 -33.725  -5.280  0.00  0.00    -0.055 C 
ATOM     15  C15 GMY d          19.554 -33.719  -4.073  0.00  0.00     0.099 C 
ATOM     16  C16 GMY d          20.400 -33.910  -2.806  0.00  0.00     0.083 C 
ATOM     17  C17 GMY d          20.908 -35.363  -2.766  0.00  0.00    -0.073 C 
ATOM     18  C18 GMY d          22.202 -35.619  -2.117  0.00  0.00    -0.083 C 
ATOM     19  C19 GMY d          23.180 -34.453  -1.923  0.00  0.00    -0.072 C 
ATOM     20  C20 GMY d          24.444 -34.714  -1.220  0.00  0.00     0.006 C 
ATOM     21  C21 GMY d          25.218 -33.497  -0.720  0.00  0.00     0.251 C 
ATOM     22  N22 GMY d          25.624 -32.469  -1.659  0.00  0.00    -0.320 N 
ATOM     23  O23 GMY d          26.515 -34.872  -3.019  0.00  0.00    -0.285 OA
ATOM     24  O24 GMY d          24.526 -31.005  -6.210  0.00  0.00    -0.285 OA
ATOM     25  O40 GMY d          25.485 -33.402   0.441  0.00  0.00    -0.268 OA
ATOM     26  H1  GMY d          24.638 -30.713  -3.533  0.00  0.00     0.093 H 
ATOM     27  H2  GMY d          26.573 -36.329  -5.071  0.00  0.00     0.041 H 
ATOM     28  H3  GMY d          26.292 -35.761  -6.752  0.00  0.00     0.041 H 
ATOM     29  H4  GMY d          23.964 -35.157  -5.079  0.00  0.00     0.040 H 
ATOM     30  H5  GMY d          24.567 -36.693  -7.616  0.00  0.00     0.037 H 
ATOM     31  H6  GMY d          23.658 -35.160  -7.388  0.00  0.00     0.037 H 
ATOM     32  H7  GMY d          22.140 -36.912  -5.879  0.00  0.00     0.087 H 
ATOM     33  H8  GMY d          20.570 -36.902  -7.813  0.00  0.00     0.087 H 
ATOM     34  H9  GMY d          22.202 -34.340  -7.318  0.00  0.00     0.049 H 
ATOM     35  H10 GMY d          19.626 -35.599  -6.083  0.00  0.00     0.078 H 
ATOM     36  H11 GMY d          18.783 -34.499  -4.154  0.00  0.00     0.096 H 
ATOM     37  H12 GMY d          21.257 -33.220  -2.827  0.00  0.00     0.094 H 
ATOM     38  H13 GMY d          20.328 -36.174  -3.204  0.00  0.00     0.081 H 
ATOM     39  H14 GMY d          22.462 -36.621  -1.780  0.00  0.00     0.083 H 
ATOM     40  H15 GMY d          22.943 -33.457  -2.297  0.00  0.00     0.084 H 
ATOM     41  H16 GMY d          25.952 -31.592  -1.309  0.00  0.00     0.169 HD
ENDROOT
BRANCH  15  42
ATOM     42  O33 GMY d          18.981 -32.423  -4.031  0.00  0.00    -0.291 OA
BRANCH  42  43
ATOM     43  C34 GMY d          17.577 -32.392  -4.311  0.00  0.00     0.359 C 
ATOM     44  O35 GMY d          17.005 -33.289  -4.876  0.00  0.00    -0.239 OA
ATOM     45  N36 GMY d          16.853 -31.189  -3.909  0.00  0.00    -0.346 N 
ATOM     46  H33 GMY d          15.871 -31.115  -4.081  0.00  0.00     0.161 HD
ATOM     47  H34 GMY d          17.340 -30.439  -3.461  0.00  0.00     0.161 HD
ENDBRANCH  42  43
ENDBRANCH  15  42
BRANCH  14  48
ATOM     48  C32 GMY d          21.512 -32.593  -5.462  0.00  0.00    -0.052 C 
ATOM     49  H30 GMY d          22.089 -32.767  -6.383  0.00  0.00     0.033 H 
ATOM     50  H31 GMY d          22.194 -32.575  -4.600  0.00  0.00     0.033 H 
ATOM     51  H32 GMY d          20.987 -31.630  -5.536  0.00  0.00     0.033 H 
ENDBRANCH  14  48
BRANCH  16  52
ATOM     52  O37 GMY d          19.603 -33.642  -1.648  0.00  0.00    -0.384 OA
BRANCH  52  53
ATOM     53  C38 GMY d          18.701 -34.721  -1.389  0.00  0.00     0.005 C 
ATOM     54  H35 GMY d          18.101 -34.491  -0.497  0.00  0.00     0.066 H 
ATOM     55  H36 GMY d          19.274 -35.644  -1.219  0.00  0.00     0.066 H 
ATOM     56  H37 GMY d          18.034 -34.857  -2.253  0.00  0.00     0.066 H 
ENDBRANCH  52  53
ENDBRANCH  16  52
BRANCH  12  57
ATOM     57  C31 GMY d          20.458 -34.177  -8.624  0.00  0.00    -0.067 C 
ATOM     58  H27 GMY d          20.272 -33.127  -8.355  0.00  0.00     0.028 H 
ATOM     59  H28 GMY d          19.498 -34.696  -8.764  0.00  0.00     0.028 H 
ATOM     60  H29 GMY d          21.038 -34.220  -9.557  0.00  0.00     0.028 H 
ENDBRANCH  12  57
BRANCH  11  61
ATOM     61  O30 GMY d          22.016 -36.394  -9.210  0.00  0.00    -0.392 OA
ATOM     62  H26 GMY d          22.178 -37.300  -9.446  0.00  0.00     0.210 HD
ENDBRANCH  11  61
BRANCH  10  63
ATOM     63  O28 GMY d          22.819 -38.303  -7.263  0.00  0.00    -0.388 OA
BRANCH  63  64
ATOM     64  C29 GMY d          24.054 -38.390  -7.992  0.00  0.00     0.005 C 
ATOM     65  H23 GMY d          24.249 -39.439  -8.259  0.00  0.00     0.066 H 
ATOM     66  H24 GMY d          24.875 -38.013  -7.366  0.00  0.00     0.066 H 
ATOM     67  H25 GMY d          23.982 -37.785  -8.908  0.00  0.00     0.066 H 
ENDBRANCH  63  64
ENDBRANCH  10  63
BRANCH  20  68
ATOM     68  C39 GMY d          24.633 -36.031  -0.450  0.00  0.00    -0.046 C 
ATOM     69  H38 GMY d          24.022 -36.819  -0.915  0.00  0.00     0.033 H 
ATOM     70  H39 GMY d          24.320 -35.892   0.595  0.00  0.00     0.033 H 
ATOM     71  H40 GMY d          25.693 -36.324  -0.479  0.00  0.00     0.033 H 
ENDBRANCH  20  68
BRANCH   8  72
ATOM     72  C27 GMY d          24.283 -37.232  -4.657  0.00  0.00    -0.073 C 
ATOM     73  H20 GMY d          24.746 -37.035  -3.679  0.00  0.00     0.028 H 
ATOM     74  H21 GMY d          24.761 -38.108  -5.120  0.00  0.00     0.028 H 
ATOM     75  H22 GMY d          23.209 -37.431  -4.520  0.00  0.00     0.028 H 
ENDBRANCH   8  72
BRANCH   6  76
ATOM     76  O25 GMY d          25.404 -33.341  -7.500  0.00  0.00    -0.351 OA
BRANCH  76  77
ATOM     77  C26 GMY d          26.666 -32.949  -8.058  0.00  0.00     0.011 C 
ATOM     78  H17 GMY d          26.640 -33.078  -9.150  0.00  0.00     0.067 H 
ATOM     79  H18 GMY d          27.465 -33.575  -7.634  0.00  0.00     0.067 H 
ATOM     80  H19 GMY d          26.861 -31.893  -7.818  0.00  0.00     0.067 H 
ENDBRANCH  76  77
ENDBRANCH   6  76
TORSDOF 13
ENDMDL
