MODEL 1
REMARK VINA RESULT:      -8.3      0.000      0.000
REMARK  13 active torsions:
REMARK  status: ('A' for Active; 'I' for Inactive)
REMARK    1  A    between atoms: C6_6  and  O25_25 
REMARK    2  A    between atoms: C8_8  and  C27_27 
REMARK    3  A    between atoms: C10_10  and  O28_28 
REMARK    4  A    between atoms: C11_11  and  O30_30 
REMARK    5  A    between atoms: C12_12  and  C31_31 
REMARK    6  A    between atoms: C14_14  and  C32_32 
REMARK    7  A    between atoms: C15_15  and  O33_33 
REMARK    8  A    between atoms: C16_16  and  O37_37 
REMARK    9  A    between atoms: C20_20  and  C39_39 
REMARK   10  A    between atoms: O25_25  and  C26_26 
REMARK   11  A    between atoms: O28_28  and  C29_29 
REMARK   12  A    between atoms: O33_33  and  C34_34 
REMARK       I    between atoms: C34_34  and  N36_36 
REMARK   13  A    between atoms: O37_37  and  C38_38 
ROOT
ATOM      1  C1  GMY d          26.056 -34.230  -5.337  0.00  0.00     0.032 A 
ATOM      2  C2  GMY d          26.114 -33.943  -3.837  0.00  0.00     0.207 A 
ATOM      3  C3  GMY d          25.623 -32.596  -3.290  0.00  0.00     0.090 A 
ATOM      4  C4  GMY d          25.086 -31.586  -4.203  0.00  0.00    -0.002 A 
ATOM      5  C5  GMY d          25.039 -31.864  -5.710  0.00  0.00     0.208 A 
ATOM      6  C6  GMY d          25.521 -33.214  -6.247  0.00  0.00     0.128 A 
ATOM      7  C7  GMY d          25.987 -35.709  -5.753  0.00  0.00    -0.031 C 
ATOM      8  C8  GMY d          24.489 -36.016  -5.603  0.00  0.00    -0.051 C 
ATOM      9  C9  GMY d          23.882 -36.225  -6.997  0.00  0.00    -0.035 C 
ATOM     10  C10 GMY d          22.558 -36.995  -6.899  0.00  0.00     0.063 C 
ATOM     11  C11 GMY d          21.537 -36.417  -7.901  0.00  0.00     0.067 C 
ATOM     12  C12 GMY d          21.293 -34.924  -7.591  0.00  0.00    -0.014 C 
ATOM     13  C13 GMY d          20.401 -34.808  -6.350  0.00  0.00    -0.092 C 
ATOM     14  C14 GMY d          20.535 -33.679  -5.431  0.00  0.00    -0.055 C 
ATOM     15  C15 GMY d          19.601 -33.607  -4.228  0.00  0.00     0.099 C 
ATOM     16  C16 GMY d          20.442 -33.749  -2.951  0.00  0.00     0.083 C 
ATOM     17  C17 GMY d          20.933 -35.205  -2.844  0.00  0.00    -0.073 C 
ATOM     18  C18 GMY d          22.223 -35.446  -2.180  0.00  0.00    -0.083 C 
ATOM     19  C19 GMY d          23.214 -34.283  -2.037  0.00  0.00    -0.072 C 
ATOM     20  C20 GMY d          24.473 -34.527  -1.319  0.00  0.00     0.006 C 
ATOM     21  C21 GMY d          25.260 -33.297  -0.872  0.00  0.00     0.251 C 
ATOM     22  N22 GMY d          25.680 -32.318  -1.857  0.00  0.00    -0.320 N 
ATOM     23  O23 GMY d          26.546 -34.791  -3.102  0.00  0.00    -0.285 OA
ATOM     24  O24 GMY d          24.610 -31.051  -6.473  0.00  0.00    -0.285 OA
ATOM     25  O40 GMY d          25.525 -33.151   0.284  0.00  0.00    -0.268 OA
ATOM     26  H1  GMY d          24.719 -30.638  -3.812  0.00  0.00     0.093 H 
ATOM     27  H2  GMY d          26.593 -36.340  -5.086  0.00  0.00     0.041 H 
ATOM     28  H3  GMY d          26.321 -35.847  -6.792  0.00  0.00     0.041 H 
ATOM     29  H4  GMY d          23.997 -35.140  -5.155  0.00  0.00     0.040 H 
ATOM     30  H5  GMY d          24.588 -36.798  -7.617  0.00  0.00     0.037 H 
ATOM     31  H6  GMY d          23.697 -35.245  -7.463  0.00  0.00     0.037 H 
ATOM     32  H7  GMY d          22.154 -36.909  -5.879  0.00  0.00     0.087 H 
ATOM     33  H8  GMY d          20.590 -36.970  -7.816  0.00  0.00     0.087 H 
ATOM     34  H9  GMY d          22.250 -34.406  -7.434  0.00  0.00     0.049 H 
ATOM     35  H10 GMY d          19.656 -35.578  -6.150  0.00  0.00     0.078 H 
ATOM     36  H11 GMY d          18.822 -34.381  -4.276  0.00  0.00     0.096 H 
ATOM     37  H12 GMY d          21.307 -33.071  -3.001  0.00  0.00     0.094 H 
ATOM     38  H13 GMY d          20.345 -36.028  -3.246  0.00  0.00     0.081 H 
ATOM     39  H14 GMY d          22.471 -36.434  -1.796  0.00  0.00     0.083 H 
ATOM     40  H15 GMY d          22.990 -33.303  -2.456  0.00  0.00     0.084 H 
ATOM     41  H16 GMY d          26.018 -31.429  -1.546  0.00  0.00     0.169 HD
ENDROOT
BRANCH  15  42
ATOM     42  O33 GMY d          19.044 -32.304  -4.247  0.00  0.00    -0.291 OA
BRANCH  42  43
ATOM     43  C34 GMY d          17.625 -32.275  -4.443  0.00  0.00     0.359 C 
ATOM     44  O35 GMY d          17.040 -33.101  -5.095  0.00  0.00    -0.239 OA
ATOM     45  N36 GMY d          16.901 -31.160  -3.837  0.00  0.00    -0.346 N 
ATOM     46  H33 GMY d          15.909 -31.091  -3.944  0.00  0.00     0.161 HD
ATOM     47  H34 GMY d          17.398 -30.465  -3.317  0.00  0.00     0.161 HD
ENDBRANCH  42  43
ENDBRANCH  15  42
BRANCH  14  48
ATOM     48  C32 GMY d          21.576 -32.569  -5.662  0.00  0.00    -0.052 C 
ATOM     49  H30 GMY d          22.107 -32.361  -4.721  0.00  0.00     0.033 H 
ATOM     50  H31 GMY d          21.068 -31.656  -6.006  0.00  0.00     0.033 H 
ATOM     51  H32 GMY d          22.298 -32.896  -6.425  0.00  0.00     0.033 H 
ENDBRANCH  14  48
BRANCH  16  52
ATOM     52  O37 GMY d          19.645 -33.419  -1.809  0.00  0.00    -0.384 OA
BRANCH  52  53
ATOM     53  C38 GMY d          18.686 -34.445  -1.544  0.00  0.00     0.005 C 
ATOM     54  H35 GMY d          18.182 -34.727  -2.481  0.00  0.00     0.066 H 
ATOM     55  H36 GMY d          17.941 -34.073  -0.825  0.00  0.00     0.066 H 
ATOM     56  H37 GMY d          19.195 -35.324  -1.123  0.00  0.00     0.066 H 
ENDBRANCH  52  53
ENDBRANCH  16  52
BRANCH  12  57
ATOM     57  C31 GMY d          20.511 -34.283  -8.751  0.00  0.00    -0.067 C 
ATOM     58  H27 GMY d          20.704 -33.200  -8.768  0.00  0.00     0.028 H 
ATOM     59  H28 GMY d          19.435 -34.463  -8.611  0.00  0.00     0.028 H 
ATOM     60  H29 GMY d          20.837 -34.729  -9.702  0.00  0.00     0.028 H 
ENDBRANCH  12  57
BRANCH  11  61
ATOM     61  O30 GMY d          22.044 -36.543  -9.231  0.00  0.00    -0.392 OA
ATOM     62  H26 GMY d          22.708 -35.880  -9.379  0.00  0.00     0.210 HD
ENDBRANCH  11  61
BRANCH  10  63
ATOM     63  O28 GMY d          22.820 -38.370  -7.196  0.00  0.00    -0.388 OA
BRANCH  63  64
ATOM     64  C29 GMY d          21.681 -39.182  -6.871  0.00  0.00     0.005 C 
ATOM     65  H23 GMY d          21.681 -39.400  -5.793  0.00  0.00     0.066 H 
ATOM     66  H24 GMY d          21.731 -40.125  -7.435  0.00  0.00     0.066 H 
ATOM     67  H25 GMY d          20.759 -38.644  -7.136  0.00  0.00     0.066 H 
ENDBRANCH  63  64
ENDBRANCH  10  63
BRANCH  20  68
ATOM     68  C39 GMY d          24.645 -35.809  -0.489  0.00  0.00    -0.046 C 
ATOM     69  H38 GMY d          25.435 -35.656   0.262  0.00  0.00     0.033 H 
ATOM     70  H39 GMY d          24.925 -36.640  -1.152  0.00  0.00     0.033 H 
ATOM     71  H40 GMY d          23.699 -36.047   0.019  0.00  0.00     0.033 H 
ENDBRANCH  20  68
BRANCH   8  72
ATOM     72  C27 GMY d          24.290 -37.197  -4.637  0.00  0.00    -0.073 C 
ATOM     73  H20 GMY d          24.962 -38.021  -4.922  0.00  0.00     0.028 H 
ATOM     74  H21 GMY d          23.247 -37.541  -4.687  0.00  0.00     0.028 H 
ATOM     75  H22 GMY d          24.521 -36.875  -3.611  0.00  0.00     0.028 H 
ENDBRANCH   8  72
BRANCH   6  76
ATOM     76  O25 GMY d          25.464 -33.454  -7.652  0.00  0.00    -0.351 OA
BRANCH  76  77
ATOM     77  C26 GMY d          26.739 -33.125  -8.220  0.00  0.00     0.011 C 
ATOM     78  H17 GMY d          26.900 -32.039  -8.156  0.00  0.00     0.067 H 
ATOM     79  H18 GMY d          26.762 -33.437  -9.275  0.00  0.00     0.067 H 
ATOM     80  H19 GMY d          27.534 -33.647  -7.666  0.00  0.00     0.067 H 
ENDBRANCH  76  77
ENDBRANCH   6  76
TORSDOF 13
ENDMDL
MODEL 2
REMARK VINA RESULT:      -5.9      2.320      6.147
REMARK  13 active torsions:
REMARK  status: ('A' for Active; 'I' for Inactive)
REMARK    1  A    between atoms: C6_6  and  O25_25 
REMARK    2  A    between atoms: C8_8  and  C27_27 
REMARK    3  A    between atoms: C10_10  and  O28_28 
REMARK    4  A    between atoms: C11_11  and  O30_30 
REMARK    5  A    between atoms: C12_12  and  C31_31 
REMARK    6  A    between atoms: C14_14  and  C32_32 
REMARK    7  A    between atoms: C15_15  and  O33_33 
REMARK    8  A    between atoms: C16_16  and  O37_37 
REMARK    9  A    between atoms: C20_20  and  C39_39 
REMARK   10  A    between atoms: O25_25  and  C26_26 
REMARK   11  A    between atoms: O28_28  and  C29_29 
REMARK   12  A    between atoms: O33_33  and  C34_34 
REMARK       I    between atoms: C34_34  and  N36_36 
REMARK   13  A    between atoms: O37_37  and  C38_38 
ROOT
ATOM      1  C1  GMY d          24.682 -37.108  -6.531  0.00  0.00     0.032 A 
ATOM      2  C2  GMY d          23.502 -37.626  -7.351  0.00  0.00     0.207 A 
ATOM      3  C3  GMY d          22.272 -38.216  -6.646  0.00  0.00     0.090 A 
ATOM      4  C4  GMY d          22.222 -38.272  -5.185  0.00  0.00    -0.002 A 
ATOM      5  C5  GMY d          23.410 -37.767  -4.358  0.00  0.00     0.208 A 
ATOM      6  C6  GMY d          24.628 -37.170  -5.067  0.00  0.00     0.128 A 
ATOM      7  C7  GMY d          25.567 -36.041  -7.196  0.00  0.00    -0.031 C 
ATOM      8  C8  GMY d          24.773 -34.752  -6.928  0.00  0.00    -0.051 C 
ATOM      9  C9  GMY d          25.547 -33.892  -5.919  0.00  0.00    -0.035 C 
ATOM     10  C10 GMY d          25.079 -32.432  -5.986  0.00  0.00     0.063 C 
ATOM     11  C11 GMY d          25.012 -31.835  -4.564  0.00  0.00     0.067 C 
ATOM     12  C12 GMY d          24.028 -32.656  -3.701  0.00  0.00    -0.014 C 
ATOM     13  C13 GMY d          22.592 -32.302  -4.105  0.00  0.00    -0.092 C 
ATOM     14  C14 GMY d          21.523 -33.297  -4.023  0.00  0.00    -0.055 C 
ATOM     15  C15 GMY d          20.110 -32.877  -4.414  0.00  0.00     0.099 C 
ATOM     16  C16 GMY d          19.697 -33.668  -5.663  0.00  0.00     0.083 C 
ATOM     17  C17 GMY d          20.495 -33.137  -6.869  0.00  0.00    -0.073 C 
ATOM     18  C18 GMY d          20.813 -34.082  -7.950  0.00  0.00    -0.083 C 
ATOM     19  C19 GMY d          20.759 -35.588  -7.660  0.00  0.00    -0.072 C 
ATOM     20  C20 GMY d          21.022 -36.519  -8.766  0.00  0.00     0.006 C 
ATOM     21  C21 GMY d          20.609 -37.974  -8.555  0.00  0.00     0.251 C 
ATOM     22  N22 GMY d          21.143 -38.714  -7.428  0.00  0.00    -0.320 N 
ATOM     23  O23 GMY d          23.556 -37.559  -8.550  0.00  0.00    -0.285 OA
ATOM     24  O24 GMY d          23.392 -37.810  -3.164  0.00  0.00    -0.285 OA
ATOM     25  O40 GMY d          19.851 -38.491  -9.320  0.00  0.00    -0.268 OA
ATOM     26  H1  GMY d          21.341 -38.673  -4.685  0.00  0.00     0.093 H 
ATOM     27  H2  GMY d          25.675 -36.226  -8.274  0.00  0.00     0.041 H 
ATOM     28  H3  GMY d          26.562 -36.001  -6.729  0.00  0.00     0.041 H 
ATOM     29  H4  GMY d          23.813 -35.024  -6.466  0.00  0.00     0.040 H 
ATOM     30  H5  GMY d          26.621 -33.939  -6.152  0.00  0.00     0.037 H 
ATOM     31  H6  GMY d          25.374 -34.281  -4.904  0.00  0.00     0.037 H 
ATOM     32  H7  GMY d          24.081 -32.383  -6.447  0.00  0.00     0.087 H 
ATOM     33  H8  GMY d          24.667 -30.792  -4.622  0.00  0.00     0.087 H 
ATOM     34  H9  GMY d          24.216 -33.732  -3.829  0.00  0.00     0.049 H 
ATOM     35  H10 GMY d          22.365 -31.297  -4.457  0.00  0.00     0.078 H 
ATOM     36  H11 GMY d          20.046 -31.794  -4.593  0.00  0.00     0.096 H 
ATOM     37  H12 GMY d          19.918 -34.735  -5.515  0.00  0.00     0.094 H 
ATOM     38  H13 GMY d          20.813 -32.097  -6.919  0.00  0.00     0.081 H 
ATOM     39  H14 GMY d          21.082 -33.719  -8.940  0.00  0.00     0.083 H 
ATOM     40  H15 GMY d          20.532 -35.957  -6.660  0.00  0.00     0.084 H 
ATOM     41  H16 GMY d          20.728 -39.590  -7.180  0.00  0.00     0.169 HD
ENDROOT
BRANCH  15  42
ATOM     42  O33 GMY d          19.276 -33.278  -3.341  0.00  0.00    -0.291 OA
BRANCH  42  43
ATOM     43  C34 GMY d          18.532 -32.210  -2.744  0.00  0.00     0.359 C 
ATOM     44  O35 GMY d          18.738 -31.817  -1.624  0.00  0.00    -0.239 OA
ATOM     45  N36 GMY d          17.464 -31.623  -3.550  0.00  0.00    -0.346 N 
ATOM     46  H33 GMY d          16.914 -30.873  -3.182  0.00  0.00     0.161 HD
ATOM     47  H34 GMY d          17.284 -31.970  -4.470  0.00  0.00     0.161 HD
ENDBRANCH  42  43
ENDBRANCH  15  42
BRANCH  14  48
ATOM     48  C32 GMY d          21.791 -34.733  -3.540  0.00  0.00    -0.052 C 
ATOM     49  H30 GMY d          21.483 -34.831  -2.488  0.00  0.00     0.033 H 
ATOM     50  H31 GMY d          22.864 -34.957  -3.630  0.00  0.00     0.033 H 
ATOM     51  H32 GMY d          21.217 -35.440  -4.157  0.00  0.00     0.033 H 
ENDBRANCH  14  48
BRANCH  16  52
ATOM     52  O37 GMY d          18.295 -33.502  -5.898  0.00  0.00    -0.384 OA
BRANCH  52  53
ATOM     53  C38 GMY d          17.648 -34.769  -6.037  0.00  0.00     0.005 C 
ATOM     54  H35 GMY d          18.303 -35.456  -6.593  0.00  0.00     0.066 H 
ATOM     55  H36 GMY d          16.703 -34.639  -6.585  0.00  0.00     0.066 H 
ATOM     56  H37 GMY d          17.440 -35.186  -5.041  0.00  0.00     0.066 H 
ENDBRANCH  52  53
ENDBRANCH  16  52
BRANCH  12  57
ATOM     57  C31 GMY d          24.179 -32.247  -2.227  0.00  0.00    -0.067 C 
ATOM     58  H27 GMY d          23.320 -32.623  -1.652  0.00  0.00     0.028 H 
ATOM     59  H28 GMY d          24.219 -31.150  -2.152  0.00  0.00     0.028 H 
ATOM     60  H29 GMY d          25.108 -32.676  -1.821  0.00  0.00     0.028 H 
ENDBRANCH  12  57
BRANCH  11  61
ATOM     61  O30 GMY d          26.308 -31.876  -3.964  0.00  0.00    -0.392 OA
ATOM     62  H26 GMY d          26.898 -32.370  -4.521  0.00  0.00     0.210 HD
ENDBRANCH  11  61
BRANCH  10  63
ATOM     63  O28 GMY d          26.013 -31.702  -6.786  0.00  0.00    -0.388 OA
BRANCH  63  64
ATOM     64  C29 GMY d          25.640 -30.316  -6.860  0.00  0.00     0.005 C 
ATOM     65  H23 GMY d          24.940 -30.170  -7.696  0.00  0.00     0.066 H 
ATOM     66  H24 GMY d          26.538 -29.703  -7.023  0.00  0.00     0.066 H 
ATOM     67  H25 GMY d          25.155 -30.016  -5.919  0.00  0.00     0.066 H 
ENDBRANCH  63  64
ENDBRANCH  10  63
BRANCH  20  68
ATOM     68  C39 GMY d          21.049 -36.001 -10.213  0.00  0.00    -0.046 C 
ATOM     69  H38 GMY d          21.198 -36.845 -10.902  0.00  0.00     0.033 H 
ATOM     70  H39 GMY d          21.873 -35.282 -10.330  0.00  0.00     0.033 H 
ATOM     71  H40 GMY d          20.094 -35.505 -10.442  0.00  0.00     0.033 H 
ENDBRANCH  20  68
BRANCH   8  72
ATOM     72  C27 GMY d          24.458 -34.046  -8.258  0.00  0.00    -0.073 C 
ATOM     73  H20 GMY d          23.552 -33.432  -8.142  0.00  0.00     0.028 H 
ATOM     74  H21 GMY d          24.293 -34.798  -9.043  0.00  0.00     0.028 H 
ATOM     75  H22 GMY d          25.303 -33.401  -8.540  0.00  0.00     0.028 H 
ENDBRANCH   8  72
BRANCH   6  76
ATOM     76  O25 GMY d          25.720 -36.702  -4.279  0.00  0.00    -0.351 OA
BRANCH  76  77
ATOM     77  C26 GMY d          26.750 -37.700  -4.290  0.00  0.00     0.011 C 
ATOM     78  H17 GMY d          26.313 -38.679  -4.043  0.00  0.00     0.067 H 
ATOM     79  H18 GMY d          27.518 -37.443  -3.545  0.00  0.00     0.067 H 
ATOM     80  H19 GMY d          27.208 -37.744  -5.290  0.00  0.00     0.067 H 
ENDBRANCH  76  77
ENDBRANCH   6  76
TORSDOF 13
ENDMDL
MODEL 3
REMARK VINA RESULT:      -5.6      2.204      7.456
REMARK  13 active torsions:
REMARK  status: ('A' for Active; 'I' for Inactive)
REMARK    1  A    between atoms: C6_6  and  O25_25 
REMARK    2  A    between atoms: C8_8  and  C27_27 
REMARK    3  A    between atoms: C10_10  and  O28_28 
REMARK    4  A    between atoms: C11_11  and  O30_30 
REMARK    5  A    between atoms: C12_12  and  C31_31 
REMARK    6  A    between atoms: C14_14  and  C32_32 
REMARK    7  A    between atoms: C15_15  and  O33_33 
REMARK    8  A    between atoms: C16_16  and  O37_37 
REMARK    9  A    between atoms: C20_20  and  C39_39 
REMARK   10  A    between atoms: O25_25  and  C26_26 
REMARK   11  A    between atoms: O28_28  and  C29_29 
REMARK   12  A    between atoms: O33_33  and  C34_34 
REMARK       I    between atoms: C34_34  and  N36_36 
REMARK   13  A    between atoms: O37_37  and  C38_38 
ROOT
ATOM      1  C1  GMY d          21.316 -35.466  -3.949  0.00  0.00     0.032 A 
ATOM      2  C2  GMY d          21.335 -36.248  -5.261  0.00  0.00     0.207 A 
ATOM      3  C3  GMY d          21.056 -35.531  -6.590  0.00  0.00     0.090 A 
ATOM      4  C4  GMY d          20.782 -34.094  -6.604  0.00  0.00    -0.002 A 
ATOM      5  C5  GMY d          20.747 -33.308  -5.288  0.00  0.00     0.208 A 
ATOM      6  C6  GMY d          21.038 -34.027  -3.968  0.00  0.00     0.128 A 
ATOM      7  C7  GMY d          22.144 -36.046  -2.790  0.00  0.00    -0.031 C 
ATOM      8  C8  GMY d          23.556 -35.531  -3.114  0.00  0.00    -0.051 C 
ATOM      9  C9  GMY d          23.954 -34.480  -2.069  0.00  0.00    -0.035 C 
ATOM     10  C10 GMY d          25.478 -34.298  -2.040  0.00  0.00     0.063 C 
ATOM     11  C11 GMY d          25.826 -32.806  -1.860  0.00  0.00     0.067 C 
ATOM     12  C12 GMY d          25.228 -31.987  -3.026  0.00  0.00    -0.014 C 
ATOM     13  C13 GMY d          26.075 -32.212  -4.283  0.00  0.00    -0.092 C 
ATOM     14  C14 GMY d          25.467 -32.181  -5.613  0.00  0.00    -0.055 C 
ATOM     15  C15 GMY d          26.367 -32.386  -6.827  0.00  0.00     0.099 C 
ATOM     16  C16 GMY d          25.960 -33.695  -7.518  0.00  0.00     0.083 C 
ATOM     17  C17 GMY d          26.401 -34.877  -6.635  0.00  0.00    -0.073 C 
ATOM     18  C18 GMY d          25.592 -36.104  -6.678  0.00  0.00    -0.083 C 
ATOM     19  C19 GMY d          24.154 -36.028  -7.206  0.00  0.00    -0.072 C 
ATOM     20  C20 GMY d          23.379 -37.273  -7.298  0.00  0.00     0.006 C 
ATOM     21  C21 GMY d          22.114 -37.236  -8.152  0.00  0.00     0.251 C 
ATOM     22  N22 GMY d          21.071 -36.276  -7.847  0.00  0.00    -0.320 N 
ATOM     23  O23 GMY d          21.575 -37.425  -5.231  0.00  0.00    -0.285 OA
ATOM     24  O24 GMY d          20.520 -32.135  -5.277  0.00  0.00    -0.285 OA
ATOM     25  O40 GMY d          21.993 -38.000  -9.064  0.00  0.00    -0.268 OA
ATOM     26  H1  GMY d          20.603 -33.582  -7.549  0.00  0.00     0.093 H 
ATOM     27  H2  GMY d          22.112 -37.145  -2.787  0.00  0.00     0.041 H 
ATOM     28  H3  GMY d          21.793 -35.665  -1.820  0.00  0.00     0.041 H 
ATOM     29  H4  GMY d          23.528 -35.031  -4.094  0.00  0.00     0.040 H 
ATOM     30  H5  GMY d          23.610 -34.808  -1.076  0.00  0.00     0.037 H 
ATOM     31  H6  GMY d          23.480 -33.520  -2.322  0.00  0.00     0.037 H 
ATOM     32  H7  GMY d          25.911 -34.660  -2.984  0.00  0.00     0.087 H 
ATOM     33  H8  GMY d          26.920 -32.685  -1.850  0.00  0.00     0.087 H 
ATOM     34  H9  GMY d          24.183 -32.282  -3.201  0.00  0.00     0.049 H 
ATOM     35  H10 GMY d          27.144 -32.397  -4.185  0.00  0.00     0.078 H 
ATOM     36  H11 GMY d          27.429 -32.403  -6.543  0.00  0.00     0.096 H 
ATOM     37  H12 GMY d          24.868 -33.719  -7.649  0.00  0.00     0.094 H 
ATOM     38  H13 GMY d          27.282 -34.806  -5.998  0.00  0.00     0.081 H 
ATOM     39  H14 GMY d          26.008 -37.052  -6.341  0.00  0.00     0.083 H 
ATOM     40  H15 GMY d          23.718 -35.075  -7.505  0.00  0.00     0.084 H 
ATOM     41  H16 GMY d          20.342 -36.121  -8.514  0.00  0.00     0.169 HD
ENDROOT
BRANCH  15  42
ATOM     42  O33 GMY d          26.081 -31.313  -7.708  0.00  0.00    -0.291 OA
BRANCH  42  43
ATOM     43  C34 GMY d          27.240 -30.687  -8.268  0.00  0.00     0.359 C 
ATOM     44  O35 GMY d          27.340 -30.429  -9.440  0.00  0.00    -0.239 OA
ATOM     45  N36 GMY d          28.339 -30.397  -7.349  0.00  0.00    -0.346 N 
ATOM     46  H33 GMY d          29.172 -29.961  -7.688  0.00  0.00     0.161 HD
ATOM     47  H34 GMY d          28.257 -30.636  -6.381  0.00  0.00     0.161 HD
ENDBRANCH  42  43
ENDBRANCH  15  42
BRANCH  14  48
ATOM     48  C32 GMY d          23.961 -31.932  -5.808  0.00  0.00    -0.052 C 
ATOM     49  H30 GMY d          23.392 -32.764  -5.368  0.00  0.00     0.033 H 
ATOM     50  H31 GMY d          23.737 -31.861  -6.882  0.00  0.00     0.033 H 
ATOM     51  H32 GMY d          23.678 -30.992  -5.311  0.00  0.00     0.033 H 
ENDBRANCH  14  48
BRANCH  16  52
ATOM     52  O37 GMY d          26.594 -33.783  -8.798  0.00  0.00    -0.384 OA
BRANCH  52  53
ATOM     53  C38 GMY d          27.954 -34.203  -8.666  0.00  0.00     0.005 C 
ATOM     54  H35 GMY d          27.985 -35.215  -8.238  0.00  0.00     0.066 H 
ATOM     55  H36 GMY d          28.489 -33.507  -8.002  0.00  0.00     0.066 H 
ATOM     56  H37 GMY d          28.434 -34.208  -9.655  0.00  0.00     0.066 H 
ENDBRANCH  52  53
ENDBRANCH  16  52
BRANCH  12  57
ATOM     57  C31 GMY d          25.323 -30.488  -2.698  0.00  0.00    -0.067 C 
ATOM     58  H27 GMY d          25.022 -29.900  -3.578  0.00  0.00     0.028 H 
ATOM     59  H28 GMY d          26.360 -30.237  -2.426  0.00  0.00     0.028 H 
ATOM     60  H29 GMY d          24.656 -30.254  -1.855  0.00  0.00     0.028 H 
ENDBRANCH  12  57
BRANCH  11  61
ATOM     61  O30 GMY d          25.284 -32.331  -0.627  0.00  0.00    -0.392 OA
ATOM     62  H26 GMY d          25.894 -32.516   0.078  0.00  0.00     0.210 HD
ENDBRANCH  11  61
BRANCH  10  63
ATOM     63  O28 GMY d          25.996 -35.063  -0.949  0.00  0.00    -0.388 OA
BRANCH  63  64
ATOM     64  C29 GMY d          24.966 -35.331   0.015  0.00  0.00     0.005 C 
ATOM     65  H23 GMY d          24.901 -36.415   0.192  0.00  0.00     0.066 H 
ATOM     66  H24 GMY d          24.002 -34.964  -0.368  0.00  0.00     0.066 H 
ATOM     67  H25 GMY d          25.205 -34.819   0.959  0.00  0.00     0.066 H 
ENDBRANCH  63  64
ENDBRANCH  10  63
BRANCH  20  68
ATOM     68  C39 GMY d          24.090 -38.629  -7.157  0.00  0.00    -0.046 C 
ATOM     69  H38 GMY d          23.677 -39.171  -6.293  0.00  0.00     0.033 H 
ATOM     70  H39 GMY d          25.167 -38.464  -7.004  0.00  0.00     0.033 H 
ATOM     71  H40 GMY d          23.936 -39.221  -8.070  0.00  0.00     0.033 H 
ENDBRANCH  20  68
BRANCH   8  72
ATOM     72  C27 GMY d          24.531 -36.715  -3.231  0.00  0.00    -0.073 C 
ATOM     73  H20 GMY d          24.362 -37.238  -4.184  0.00  0.00     0.028 H 
ATOM     74  H21 GMY d          24.364 -37.412  -2.396  0.00  0.00     0.028 H 
ATOM     75  H22 GMY d          25.566 -36.343  -3.196  0.00  0.00     0.028 H 
ENDBRANCH   8  72
BRANCH   6  76
ATOM     76  O25 GMY d          21.005 -33.277  -2.756  0.00  0.00    -0.351 OA
BRANCH  76  77
ATOM     77  C26 GMY d          19.695 -33.394  -2.184  0.00  0.00     0.011 C 
ATOM     78  H17 GMY d          19.631 -34.325  -1.602  0.00  0.00     0.067 H 
ATOM     79  H18 GMY d          18.944 -33.412  -2.988  0.00  0.00     0.067 H 
ATOM     80  H19 GMY d          19.505 -32.535  -1.524  0.00  0.00     0.067 H 
ENDBRANCH  76  77
ENDBRANCH   6  76
TORSDOF 13
ENDMDL
MODEL 4
REMARK VINA RESULT:      -5.6      1.250      1.407
REMARK  13 active torsions:
REMARK  status: ('A' for Active; 'I' for Inactive)
REMARK    1  A    between atoms: C6_6  and  O25_25 
REMARK    2  A    between atoms: C8_8  and  C27_27 
REMARK    3  A    between atoms: C10_10  and  O28_28 
REMARK    4  A    between atoms: C11_11  and  O30_30 
REMARK    5  A    between atoms: C12_12  and  C31_31 
REMARK    6  A    between atoms: C14_14  and  C32_32 
REMARK    7  A    between atoms: C15_15  and  O33_33 
REMARK    8  A    between atoms: C16_16  and  O37_37 
REMARK    9  A    between atoms: C20_20  and  C39_39 
REMARK   10  A    between atoms: O25_25  and  C26_26 
REMARK   11  A    between atoms: O28_28  and  C29_29 
REMARK   12  A    between atoms: O33_33  and  C34_34 
REMARK       I    between atoms: C34_34  and  N36_36 
REMARK   13  A    between atoms: O37_37  and  C38_38 
ROOT
ATOM      1  C1  GMY d          26.791 -34.232  -5.173  0.00  0.00     0.032 A 
ATOM      2  C2  GMY d          26.594 -33.919  -3.691  0.00  0.00     0.207 A 
ATOM      3  C3  GMY d          25.809 -32.670  -3.264  0.00  0.00     0.090 A 
ATOM      4  C4  GMY d          25.238 -31.782  -4.277  0.00  0.00    -0.002 A 
ATOM      5  C5  GMY d          25.447 -32.085  -5.765  0.00  0.00     0.208 A 
ATOM      6  C6  GMY d          26.221 -33.337  -6.183  0.00  0.00     0.128 A 
ATOM      7  C7  GMY d          27.033 -35.706  -5.539  0.00  0.00    -0.031 C 
ATOM      8  C8  GMY d          25.603 -36.267  -5.577  0.00  0.00    -0.051 C 
ATOM      9  C9  GMY d          25.237 -36.598  -7.031  0.00  0.00    -0.035 C 
ATOM     10  C10 GMY d          24.063 -37.585  -7.080  0.00  0.00     0.063 C 
ATOM     11  C11 GMY d          23.106 -37.207  -8.230  0.00  0.00     0.067 C 
ATOM     12  C12 GMY d          22.570 -35.774  -8.011  0.00  0.00    -0.014 C 
ATOM     13  C13 GMY d          21.510 -35.799  -6.904  0.00  0.00    -0.092 C 
ATOM     14  C14 GMY d          21.323 -34.651  -6.018  0.00  0.00    -0.055 C 
ATOM     15  C15 GMY d          20.235 -34.726  -4.953  0.00  0.00     0.099 C 
ATOM     16  C16 GMY d          20.904 -34.702  -3.572  0.00  0.00     0.083 C 
ATOM     17  C17 GMY d          21.617 -36.048  -3.346  0.00  0.00    -0.073 C 
ATOM     18  C18 GMY d          22.826 -36.052  -2.508  0.00  0.00    -0.083 C 
ATOM     19  C19 GMY d          23.575 -34.733  -2.279  0.00  0.00    -0.072 C 
ATOM     20  C20 GMY d          24.746 -34.744  -1.392  0.00  0.00     0.006 C 
ATOM     21  C21 GMY d          25.244 -33.390  -0.891  0.00  0.00     0.251 C 
ATOM     22  N22 GMY d          25.621 -32.367  -1.847  0.00  0.00    -0.320 N 
ATOM     23  O23 GMY d          27.059 -34.668  -2.874  0.00  0.00    -0.285 OA
ATOM     24  O24 GMY d          24.994 -31.369  -6.608  0.00  0.00    -0.285 OA
ATOM     25  O40 GMY d          25.320 -33.185   0.284  0.00  0.00    -0.268 OA
ATOM     26  H1  GMY d          24.666 -30.906  -3.974  0.00  0.00     0.093 H 
ATOM     27  H2  GMY d          27.640 -36.213  -4.774  0.00  0.00     0.041 H 
ATOM     28  H3  GMY d          27.525 -35.798  -6.518  0.00  0.00     0.041 H 
ATOM     29  H4  GMY d          24.912 -35.484  -5.231  0.00  0.00     0.040 H 
ATOM     30  H5  GMY d          26.109 -37.047  -7.530  0.00  0.00     0.037 H 
ATOM     31  H6  GMY d          24.953 -35.671  -7.553  0.00  0.00     0.037 H 
ATOM     32  H7  GMY d          23.515 -37.555  -6.127  0.00  0.00     0.087 H 
ATOM     33  H8  GMY d          22.264 -37.915  -8.251  0.00  0.00     0.087 H 
ATOM     34  H9  GMY d          23.395 -35.096  -7.747  0.00  0.00     0.049 H 
ATOM     35  H10 GMY d          20.887 -36.683  -6.776  0.00  0.00     0.078 H 
ATOM     36  H11 GMY d          19.612 -35.624  -5.075  0.00  0.00     0.096 H 
ATOM     37  H12 GMY d          21.640 -33.885  -3.532  0.00  0.00     0.094 H 
ATOM     38  H13 GMY d          21.238 -36.967  -3.792  0.00  0.00     0.081 H 
ATOM     39  H14 GMY d          23.183 -36.977  -2.059  0.00  0.00     0.083 H 
ATOM     40  H15 GMY d          23.246 -33.813  -2.760  0.00  0.00     0.084 H 
ATOM     41  H16 GMY d          25.757 -31.429  -1.528  0.00  0.00     0.169 HD
ENDROOT
BRANCH  15  42
ATOM     42  O33 GMY d          19.471 -33.540  -5.095  0.00  0.00    -0.291 OA
BRANCH  42  43
ATOM     43  C34 GMY d          18.054 -33.749  -5.082  0.00  0.00     0.359 C 
ATOM     44  O35 GMY d          17.474 -34.342  -5.955  0.00  0.00    -0.239 OA
ATOM     45  N36 GMY d          17.315 -33.172  -3.961  0.00  0.00    -0.346 N 
ATOM     46  H33 GMY d          16.324 -33.288  -3.904  0.00  0.00     0.161 HD
ATOM     47  H34 GMY d          17.801 -32.661  -3.252  0.00  0.00     0.161 HD
ENDBRANCH  42  43
ENDBRANCH  15  42
BRANCH  14  48
ATOM     48  C32 GMY d          22.181 -33.380  -6.151  0.00  0.00    -0.052 C 
ATOM     49  H30 GMY d          23.243 -33.638  -6.022  0.00  0.00     0.033 H 
ATOM     50  H31 GMY d          21.884 -32.655  -5.379  0.00  0.00     0.033 H 
ATOM     51  H32 GMY d          22.030 -32.938  -7.146  0.00  0.00     0.033 H 
ENDBRANCH  14  48
BRANCH  16  52
ATOM     52  O37 GMY d          19.914 -34.500  -2.558  0.00  0.00    -0.384 OA
BRANCH  52  53
ATOM     53  C38 GMY d          20.233 -33.363  -1.753  0.00  0.00     0.005 C 
ATOM     54  H35 GMY d          19.324 -32.768  -1.583  0.00  0.00     0.066 H 
ATOM     55  H36 GMY d          20.984 -32.747  -2.270  0.00  0.00     0.066 H 
ATOM     56  H37 GMY d          20.637 -33.700  -0.787  0.00  0.00     0.066 H 
ENDBRANCH  52  53
ENDBRANCH  16  52
BRANCH  12  57
ATOM     57  C31 GMY d          21.857 -35.296  -9.287  0.00  0.00    -0.067 C 
ATOM     58  H27 GMY d          22.246 -35.851 -10.154  0.00  0.00     0.028 H 
ATOM     59  H28 GMY d          22.041 -34.220  -9.428  0.00  0.00     0.028 H 
ATOM     60  H29 GMY d          20.776 -35.475  -9.192  0.00  0.00     0.028 H 
ENDBRANCH  12  57
BRANCH  11  61
ATOM     61  O30 GMY d          23.804 -37.261  -9.475  0.00  0.00    -0.392 OA
ATOM     62  H26 GMY d          23.376 -36.690 -10.102  0.00  0.00     0.210 HD
ENDBRANCH  11  61
BRANCH  10  63
ATOM     63  O28 GMY d          24.594 -38.897  -7.289  0.00  0.00    -0.388 OA
BRANCH  63  64
ATOM     64  C29 GMY d          25.909 -38.824  -7.863  0.00  0.00     0.005 C 
ATOM     65  H23 GMY d          26.275 -37.788  -7.812  0.00  0.00     0.066 H 
ATOM     66  H24 GMY d          25.868 -39.147  -8.913  0.00  0.00     0.066 H 
ATOM     67  H25 GMY d          26.590 -39.481  -7.303  0.00  0.00     0.066 H 
ENDBRANCH  63  64
ENDBRANCH  10  63
BRANCH  20  68
ATOM     68  C39 GMY d          25.019 -35.965  -0.499  0.00  0.00    -0.046 C 
ATOM     69  H38 GMY d          25.917 -36.489  -0.859  0.00  0.00     0.033 H 
ATOM     70  H39 GMY d          24.157 -36.647  -0.537  0.00  0.00     0.033 H 
ATOM     71  H40 GMY d          25.179 -35.633   0.537  0.00  0.00     0.033 H 
ENDBRANCH  20  68
BRANCH   8  72
ATOM     72  C27 GMY d          25.478 -37.451  -4.603  0.00  0.00    -0.073 C 
ATOM     73  H20 GMY d          26.430 -37.588  -4.069  0.00  0.00     0.028 H 
ATOM     74  H21 GMY d          25.239 -38.365  -5.166  0.00  0.00     0.028 H 
ATOM     75  H22 GMY d          24.677 -37.247  -3.878  0.00  0.00     0.028 H 
ENDBRANCH   8  72
BRANCH   6  76
ATOM     76  O25 GMY d          26.398 -33.602  -7.573  0.00  0.00    -0.351 OA
BRANCH  76  77
ATOM     77  C26 GMY d          25.112 -33.582  -8.208  0.00  0.00     0.011 C 
ATOM     78  H17 GMY d          25.236 -33.725  -9.291  0.00  0.00     0.067 H 
ATOM     79  H18 GMY d          24.626 -32.613  -8.019  0.00  0.00     0.067 H 
ATOM     80  H19 GMY d          24.489 -34.392  -7.799  0.00  0.00     0.067 H 
ENDBRANCH  76  77
ENDBRANCH   6  76
TORSDOF 13
ENDMDL
