MODEL 1
REMARK VINA RESULT:      -7.9      0.000      0.000
REMARK  16 active torsions:
REMARK  status: ('A' for Active; 'I' for Inactive)
REMARK    1  A    between atoms: C2_1  and  O2_7 
REMARK    2  A    between atoms: C3_2  and  O3_8 
REMARK    3  A    between atoms: C4_3  and  O4_9 
REMARK    4  A    between atoms: C5_4  and  C6_5 
REMARK    5  A    between atoms: C6_5  and  O6_11 
REMARK    6  A    between atoms: O4_20  and  C1_6 
REMARK    7  A    between atoms: C2_12  and  O2_18 
REMARK    8  A    between atoms: C3_13  and  O3_19 
REMARK    9  A    between atoms: C4_14  and  O4_20 
REMARK   10  A    between atoms: C5_15  and  C6_16 
REMARK   11  A    between atoms: C6_16  and  O6_22 
REMARK   12  A    between atoms: O4_30  and  C1_17 
REMARK   13  A    between atoms: C5_24  and  C6_23 
REMARK   14  A    between atoms: C6_23  and  O6_28 
REMARK   15  A    between atoms: C4_25  and  O4_30 
REMARK   16  A    between atoms: C3_26  and  O3_31 
ROOT
ATOM      1  C2  MOL d          61.548  47.710  36.349  0.00  0.00     0.110 C 
ATOM      2  C3  MOL d          60.869  48.683  37.307  0.00  0.00     0.092 C 
ATOM      3  C4  MOL d          59.364  48.477  37.239  0.00  0.00     0.096 C 
ATOM      4  C5  MOL d          59.080  47.017  37.588  0.00  0.00     0.089 C 
ATOM      5  C1  MOL d          61.115  46.282  36.655  0.00  0.00     0.159 C 
ATOM      6  O5  MOL d          59.702  46.187  36.617  0.00  0.00    -0.348 OA
ATOM      7  H12 MOL d          61.243  47.963  35.323  0.00  0.00     0.094 H 
ATOM      8  H13 MOL d          61.219  48.490  38.332  0.00  0.00     0.091 H 
ATOM      9  H14 MOL d          59.001  48.692  36.224  0.00  0.00     0.091 H 
ATOM     10  H15 MOL d          59.513  46.815  38.579  0.00  0.00     0.090 H 
ATOM     11  H18 MOL d          61.497  45.967  37.637  0.00  0.00     0.133 H 
ENDROOT
BRANCH   3  12
ATOM     12  O4  MOL d          58.728  49.351  38.164  0.00  0.00    -0.348 OA
BRANCH  12  13
ATOM     13  C1  MOL d          57.697  50.175  37.624  0.00  0.00     0.159 C 
ATOM     14  C2  MOL d          56.919  50.725  38.805  0.00  0.00     0.110 C 
ATOM     15  C3  MOL d          55.904  51.751  38.335  0.00  0.00     0.092 C 
ATOM     16  H1  MOL d          57.622  51.222  39.490  0.00  0.00     0.094 H 
ATOM     17  C4  MOL d          56.531  52.796  37.434  0.00  0.00     0.090 C 
ATOM     18  H2  MOL d          55.122  51.232  37.761  0.00  0.00     0.091 H 
ATOM     19  C5  MOL d          57.337  52.116  36.345  0.00  0.00     0.089 C 
ATOM     20  H3  MOL d          57.200  53.432  38.032  0.00  0.00     0.091 H 
ATOM     21  O5  MOL d          58.295  51.227  36.900  0.00  0.00    -0.348 OA
ATOM     22  H4  MOL d          56.637  51.535  35.725  0.00  0.00     0.090 H 
ATOM     23  H7  MOL d          57.035  49.593  36.966  0.00  0.00     0.133 H 
BRANCH  14  24
ATOM     24  O2  MOL d          56.294  49.655  39.498  0.00  0.00    -0.388 OA
ATOM     25  H8  MOL d          55.740  49.170  38.898  0.00  0.00     0.210 HD
ENDBRANCH  14  24
BRANCH  15  26
ATOM     26  O3  MOL d          55.312  52.339  39.474  0.00  0.00    -0.390 OA
ATOM     27  H9  MOL d          54.371  52.214  39.441  0.00  0.00     0.210 HD
ENDBRANCH  15  26
BRANCH  17  28
ATOM     28  O4  MOL d          55.524  53.600  36.861  0.00  0.00    -0.390 OA
ATOM     29  H10 MOL d          55.557  53.521  35.915  0.00  0.00     0.210 HD
ENDBRANCH  17  28
BRANCH  19  30
ATOM     30  C6  MOL d          58.064  53.088  35.449  0.00  0.00     0.043 C 
ATOM     31  H5  MOL d          57.401  53.398  34.628  0.00  0.00     0.078 H 
ATOM     32  H6  MOL d          58.961  52.605  35.034  0.00  0.00     0.078 H 
BRANCH  30  33
ATOM     33  O6  MOL d          58.444  54.220  36.202  0.00  0.00    -0.398 OA
ATOM     34  H11 MOL d          59.387  54.221  36.318  0.00  0.00     0.209 HD
ENDBRANCH  30  33
ENDBRANCH  19  30
ENDBRANCH  12  13
ENDBRANCH   3  12
BRANCH   2  35
ATOM     35  O3  MOL d          61.193  50.014  36.947  0.00  0.00    -0.390 OA
ATOM     36  H20 MOL d          60.566  50.329  36.306  0.00  0.00     0.210 HD
ENDBRANCH   2  35
BRANCH   4  37
ATOM     37  C6  MOL d          57.625  46.638  37.620  0.00  0.00     0.043 C 
ATOM     38  H16 MOL d          57.523  45.558  37.440  0.00  0.00     0.078 H 
ATOM     39  H17 MOL d          57.085  47.193  36.838  0.00  0.00     0.078 H 
BRANCH  37  40
ATOM     40  O6  MOL d          57.080  46.959  38.891  0.00  0.00    -0.398 OA
ATOM     41  H21 MOL d          57.785  47.146  39.498  0.00  0.00     0.209 HD
ENDBRANCH  37  40
ENDBRANCH   4  37
BRANCH   1  42
ATOM     42  O2  MOL d          62.955  47.795  36.437  0.00  0.00    -0.388 OA
ATOM     43  H19 MOL d          63.316  46.926  36.564  0.00  0.00     0.210 HD
ENDBRANCH   1  42
BRANCH   5  44
ATOM     44  O4  MOL d          61.605  45.472  35.652  0.00  0.00    -0.348 OA
BRANCH  44  45
ATOM     45  C4  MOL d          61.515  44.079  35.849  0.00  0.00     0.097 C 
ATOM     46  C5  MOL d          62.913  43.466  35.915  0.00  0.00     0.119 C 
ATOM     47  O5  MOL d          62.811  42.051  36.057  0.00  0.00    -0.195 OA
ATOM     48  H24 MOL d          63.453  43.722  34.991  0.00  0.00     0.094 H 
ATOM     49  N1  MOL d          62.206  41.484  34.887  0.00  0.00     0.042 N 
ATOM     50  C2  MOL d          60.827  41.929  34.782  0.00  0.00     0.135 C 
ATOM     51  H31 MOL d          62.716  41.780  34.069  0.00  0.00     0.315 HD
ATOM     52  H32 MOL d          62.229  40.478  34.952  0.00  0.00     0.315 HD
ATOM     53  C3  MOL d          60.791  43.456  34.654  0.00  0.00     0.088 C 
ATOM     54  H27 MOL d          60.361  41.475  33.895  0.00  0.00     0.084 H 
ATOM     55  H28 MOL d          60.273  41.623  35.683  0.00  0.00     0.084 H 
ATOM     56  H26 MOL d          61.283  43.777  33.724  0.00  0.00     0.089 H 
ATOM     57  H25 MOL d          60.967  43.868  36.779  0.00  0.00     0.091 H 
BRANCH  46  58
ATOM     58  C6  MOL d          63.721  43.912  37.118  0.00  0.00     0.045 C 
ATOM     59  H22 MOL d          64.428  43.116  37.394  0.00  0.00     0.078 H 
ATOM     60  H23 MOL d          63.040  44.105  37.960  0.00  0.00     0.078 H 
BRANCH  58  61
ATOM     61  O6  MOL d          64.449  45.106  36.820  0.00  0.00    -0.398 OA
ATOM     62  H29 MOL d          64.115  45.487  36.017  0.00  0.00     0.209 HD
ENDBRANCH  58  61
ENDBRANCH  46  58
BRANCH  53  63
ATOM     63  O3  MOL d          59.413  43.814  34.622  0.00  0.00    -0.391 OA
ATOM     64  H30 MOL d          58.933  43.173  34.111  0.00  0.00     0.210 HD
ENDBRANCH  53  63
ENDBRANCH  44  45
ENDBRANCH   5  44
TORSDOF 16
ENDMDL
MODEL 2
REMARK VINA RESULT:      -5.6      2.813      9.011
REMARK  16 active torsions:
REMARK  status: ('A' for Active; 'I' for Inactive)
REMARK    1  A    between atoms: C2_1  and  O2_7 
REMARK    2  A    between atoms: C3_2  and  O3_8 
REMARK    3  A    between atoms: C4_3  and  O4_9 
REMARK    4  A    between atoms: C5_4  and  C6_5 
REMARK    5  A    between atoms: C6_5  and  O6_11 
REMARK    6  A    between atoms: O4_20  and  C1_6 
REMARK    7  A    between atoms: C2_12  and  O2_18 
REMARK    8  A    between atoms: C3_13  and  O3_19 
REMARK    9  A    between atoms: C4_14  and  O4_20 
REMARK   10  A    between atoms: C5_15  and  C6_16 
REMARK   11  A    between atoms: C6_16  and  O6_22 
REMARK   12  A    between atoms: O4_30  and  C1_17 
REMARK   13  A    between atoms: C5_24  and  C6_23 
REMARK   14  A    between atoms: C6_23  and  O6_28 
REMARK   15  A    between atoms: C4_25  and  O4_30 
REMARK   16  A    between atoms: C3_26  and  O3_31 
ROOT
ATOM      1  C2  MOL d          57.904  47.025  38.462  0.00  0.00     0.110 C 
ATOM      2  C3  MOL d          59.126  46.162  38.759  0.00  0.00     0.092 C 
ATOM      3  C4  MOL d          60.190  46.432  37.707  0.00  0.00     0.096 C 
ATOM      4  C5  MOL d          60.507  47.925  37.740  0.00  0.00     0.089 C 
ATOM      5  C1  MOL d          58.306  48.491  38.365  0.00  0.00     0.159 C 
ATOM      6  O5  MOL d          59.331  48.648  37.400  0.00  0.00    -0.348 OA
ATOM      7  H12 MOL d          57.480  46.706  37.498  0.00  0.00     0.094 H 
ATOM      8  H13 MOL d          59.521  46.419  39.753  0.00  0.00     0.091 H 
ATOM      9  H14 MOL d          59.814  46.154  36.712  0.00  0.00     0.091 H 
ATOM     10  H15 MOL d          60.816  48.185  38.763  0.00  0.00     0.090 H 
ATOM     11  H18 MOL d          58.639  48.864  39.345  0.00  0.00     0.133 H 
ENDROOT
BRANCH   3  12
ATOM     12  O4  MOL d          61.350  45.663  38.005  0.00  0.00    -0.348 OA
BRANCH  12  13
ATOM     13  C1  MOL d          61.800  44.798  36.964  0.00  0.00     0.159 C 
ATOM     14  C2  MOL d          62.582  43.683  37.634  0.00  0.00     0.110 C 
ATOM     15  C3  MOL d          62.958  42.619  36.620  0.00  0.00     0.092 C 
ATOM     16  H1  MOL d          61.946  43.219  38.403  0.00  0.00     0.094 H 
ATOM     17  C4  MOL d          61.763  42.168  35.803  0.00  0.00     0.090 C 
ATOM     18  H2  MOL d          63.700  43.043  35.927  0.00  0.00     0.091 H 
ATOM     19  C5  MOL d          61.031  43.377  35.254  0.00  0.00     0.089 C 
ATOM     20  H3  MOL d          61.080  41.598  36.451  0.00  0.00     0.091 H 
ATOM     21  O5  MOL d          60.674  44.273  36.297  0.00  0.00    -0.348 OA
ATOM     22  H4  MOL d          61.715  43.895  34.565  0.00  0.00     0.090 H 
ATOM     23  H7  MOL d          62.440  45.341  36.253  0.00  0.00     0.133 H 
BRANCH  14  24
ATOM     24  O2  MOL d          63.730  44.227  38.268  0.00  0.00    -0.388 OA
ATOM     25  H8  MOL d          64.250  43.522  38.637  0.00  0.00     0.210 HD
ENDBRANCH  14  24
BRANCH  15  26
ATOM     26  O3  MOL d          63.548  41.539  37.311  0.00  0.00    -0.390 OA
ATOM     27  H9  MOL d          63.564  41.731  38.241  0.00  0.00     0.210 HD
ENDBRANCH  15  26
BRANCH  17  28
ATOM     28  O4  MOL d          62.191  41.339  34.746  0.00  0.00    -0.390 OA
ATOM     29  H10 MOL d          63.071  41.588  34.486  0.00  0.00     0.210 HD
ENDBRANCH  17  28
BRANCH  19  30
ATOM     30  C6  MOL d          59.777  43.019  34.496  0.00  0.00     0.043 C 
ATOM     31  H5  MOL d          59.858  43.381  33.460  0.00  0.00     0.078 H 
ATOM     32  H6  MOL d          58.908  43.486  34.981  0.00  0.00     0.078 H 
BRANCH  30  33
ATOM     33  O6  MOL d          59.619  41.616  34.494  0.00  0.00    -0.398 OA
ATOM     34  H11 MOL d          58.704  41.402  34.353  0.00  0.00     0.209 HD
ENDBRANCH  30  33
ENDBRANCH  19  30
ENDBRANCH  12  13
ENDBRANCH   3  12
BRANCH   2  35
ATOM     35  O3  MOL d          58.762  44.793  38.741  0.00  0.00    -0.390 OA
ATOM     36  H20 MOL d          59.396  44.291  39.240  0.00  0.00     0.210 HD
ENDBRANCH   2  35
BRANCH   4  37
ATOM     37  C6  MOL d          61.585  48.372  36.791  0.00  0.00     0.043 C 
ATOM     38  H16 MOL d          61.520  49.461  36.649  0.00  0.00     0.078 H 
ATOM     39  H17 MOL d          61.453  47.867  35.822  0.00  0.00     0.078 H 
BRANCH  37  40
ATOM     40  O6  MOL d          62.856  48.041  37.328  0.00  0.00    -0.398 OA
ATOM     41  H21 MOL d          62.770  47.288  37.902  0.00  0.00     0.209 HD
ENDBRANCH  37  40
ENDBRANCH   4  37
BRANCH   1  42
ATOM     42  O2  MOL d          56.916  46.882  39.461  0.00  0.00    -0.388 OA
ATOM     43  H19 MOL d          56.156  47.404  39.229  0.00  0.00     0.210 HD
ENDBRANCH   1  42
BRANCH   5  44
ATOM     44  O4  MOL d          57.211  49.196  37.914  0.00  0.00    -0.348 OA
BRANCH  44  45
ATOM     45  C4  MOL d          57.126  50.556  38.280  0.00  0.00     0.097 C 
ATOM     46  C5  MOL d          55.786  50.834  38.959  0.00  0.00     0.119 C 
ATOM     47  O5  MOL d          55.686  52.221  39.275  0.00  0.00    -0.195 OA
ATOM     48  H24 MOL d          54.977  50.535  38.276  0.00  0.00     0.094 H 
ATOM     49  N1  MOL d          55.665  52.997  38.069  0.00  0.00     0.042 N 
ATOM     50  C2  MOL d          56.943  52.880  37.388  0.00  0.00     0.135 C 
ATOM     51  H31 MOL d          54.932  52.658  37.465  0.00  0.00     0.315 HD
ATOM     52  H32 MOL d          55.494  53.964  38.296  0.00  0.00     0.315 HD
ATOM     53  C3  MOL d          57.193  51.414  37.016  0.00  0.00     0.088 C 
ATOM     54  H27 MOL d          56.930  53.493  36.474  0.00  0.00     0.084 H 
ATOM     55  H28 MOL d          57.747  53.231  38.052  0.00  0.00     0.084 H 
ATOM     56  H26 MOL d          56.435  51.064  36.299  0.00  0.00     0.089 H 
ATOM     57  H25 MOL d          57.953  50.811  38.959  0.00  0.00     0.091 H 
BRANCH  46  58
ATOM     58  C6  MOL d          55.616  50.127  40.291  0.00  0.00     0.045 C 
ATOM     59  H22 MOL d          54.935  50.712  40.926  0.00  0.00     0.078 H 
ATOM     60  H23 MOL d          56.596  50.044  40.783  0.00  0.00     0.078 H 
BRANCH  58  61
ATOM     61  O6  MOL d          55.074  48.819  40.100  0.00  0.00    -0.398 OA
ATOM     62  H29 MOL d          54.449  48.633  40.790  0.00  0.00     0.209 HD
ENDBRANCH  58  61
ENDBRANCH  46  58
BRANCH  53  63
ATOM     63  O3  MOL d          58.483  51.376  36.415  0.00  0.00    -0.391 OA
ATOM     64  H30 MOL d          58.404  51.071  35.518  0.00  0.00     0.210 HD
ENDBRANCH  53  63
ENDBRANCH  44  45
ENDBRANCH   5  44
TORSDOF 16
ENDMDL
MODEL 3
REMARK VINA RESULT:      -5.4      2.969      8.690
REMARK  16 active torsions:
REMARK  status: ('A' for Active; 'I' for Inactive)
REMARK    1  A    between atoms: C2_1  and  O2_7 
REMARK    2  A    between atoms: C3_2  and  O3_8 
REMARK    3  A    between atoms: C4_3  and  O4_9 
REMARK    4  A    between atoms: C5_4  and  C6_5 
REMARK    5  A    between atoms: C6_5  and  O6_11 
REMARK    6  A    between atoms: O4_20  and  C1_6 
REMARK    7  A    between atoms: C2_12  and  O2_18 
REMARK    8  A    between atoms: C3_13  and  O3_19 
REMARK    9  A    between atoms: C4_14  and  O4_20 
REMARK   10  A    between atoms: C5_15  and  C6_16 
REMARK   11  A    between atoms: C6_16  and  O6_22 
REMARK   12  A    between atoms: O4_30  and  C1_17 
REMARK   13  A    between atoms: C5_24  and  C6_23 
REMARK   14  A    between atoms: C6_23  and  O6_28 
REMARK   15  A    between atoms: C4_25  and  O4_30 
REMARK   16  A    between atoms: C3_26  and  O3_31 
ROOT
ATOM      1  C2  MOL d          57.262  46.836  38.713  0.00  0.00     0.110 C 
ATOM      2  C3  MOL d          58.406  46.039  39.329  0.00  0.00     0.092 C 
ATOM      3  C4  MOL d          59.669  46.274  38.515  0.00  0.00     0.096 C 
ATOM      4  C5  MOL d          59.941  47.777  38.506  0.00  0.00     0.089 C 
ATOM      5  C1  MOL d          57.647  48.306  38.597  0.00  0.00     0.159 C 
ATOM      6  O5  MOL d          58.854  48.433  37.867  0.00  0.00    -0.348 OA
ATOM      7  H12 MOL d          57.064  46.439  37.706  0.00  0.00     0.094 H 
ATOM      8  H13 MOL d          58.571  46.376  40.364  0.00  0.00     0.091 H 
ATOM      9  H14 MOL d          59.524  45.917  37.485  0.00  0.00     0.091 H 
ATOM     10  H15 MOL d          60.015  48.116  39.550  0.00  0.00     0.090 H 
ATOM     11  H18 MOL d          57.750  48.755  39.596  0.00  0.00     0.133 H 
ENDROOT
BRANCH   3  12
ATOM     12  O4  MOL d          60.751  45.569  39.112  0.00  0.00    -0.348 OA
BRANCH  12  13
ATOM     13  C1  MOL d          61.455  44.676  38.251  0.00  0.00     0.159 C 
ATOM     14  C2  MOL d          61.247  43.280  38.809  0.00  0.00     0.110 C 
ATOM     15  C3  MOL d          61.820  42.243  37.861  0.00  0.00     0.092 C 
ATOM     16  H1  MOL d          60.167  43.098  38.910  0.00  0.00     0.094 H 
ATOM     17  C4  MOL d          61.336  42.447  36.439  0.00  0.00     0.090 C 
ATOM     18  H2  MOL d          62.916  42.335  37.862  0.00  0.00     0.091 H 
ATOM     19  C5  MOL d          61.532  43.895  36.034  0.00  0.00     0.089 C 
ATOM     20  H3  MOL d          60.264  42.201  36.385  0.00  0.00     0.091 H 
ATOM     21  O5  MOL d          60.904  44.772  36.956  0.00  0.00    -0.348 OA
ATOM     22  H4  MOL d          62.614  44.097  36.037  0.00  0.00     0.090 H 
ATOM     23  H7  MOL d          62.527  44.923  38.223  0.00  0.00     0.133 H 
BRANCH  14  24
ATOM     24  O2  MOL d          61.841  43.194  40.096  0.00  0.00    -0.388 OA
ATOM     25  H8  MOL d          61.303  43.661  40.724  0.00  0.00     0.210 HD
ENDBRANCH  14  24
BRANCH  15  26
ATOM     26  O3  MOL d          61.473  40.964  38.346  0.00  0.00    -0.390 OA
ATOM     27  H9  MOL d          61.839  40.846  39.215  0.00  0.00     0.210 HD
ENDBRANCH  15  26
BRANCH  17  28
ATOM     28  O4  MOL d          62.046  41.598  35.566  0.00  0.00    -0.390 OA
ATOM     29  H10 MOL d          62.704  41.119  36.056  0.00  0.00     0.210 HD
ENDBRANCH  17  28
BRANCH  19  30
ATOM     30  C6  MOL d          60.999  44.203  34.656  0.00  0.00     0.043 C 
ATOM     31  H5  MOL d          61.733  43.891  33.899  0.00  0.00     0.078 H 
ATOM     32  H6  MOL d          60.816  45.284  34.567  0.00  0.00     0.078 H 
BRANCH  30  33
ATOM     33  O6  MOL d          59.790  43.502  34.457  0.00  0.00    -0.398 OA
ATOM     34  H11 MOL d          59.286  43.930  33.775  0.00  0.00     0.209 HD
ENDBRANCH  30  33
ENDBRANCH  19  30
ENDBRANCH  12  13
ENDBRANCH   3  12
BRANCH   2  35
ATOM     35  O3  MOL d          58.082  44.660  39.334  0.00  0.00    -0.390 OA
ATOM     36  H20 MOL d          58.323  44.282  40.172  0.00  0.00     0.210 HD
ENDBRANCH   2  35
BRANCH   4  37
ATOM     37  C6  MOL d          61.191  48.197  37.781  0.00  0.00     0.043 C 
ATOM     38  H16 MOL d          61.415  47.472  36.985  0.00  0.00     0.078 H 
ATOM     39  H17 MOL d          62.031  48.234  38.491  0.00  0.00     0.078 H 
BRANCH  37  40
ATOM     40  O6  MOL d          60.997  49.482  37.210  0.00  0.00    -0.398 OA
ATOM     41  H21 MOL d          60.369  49.967  37.731  0.00  0.00     0.209 HD
ENDBRANCH  37  40
ENDBRANCH   4  37
BRANCH   1  42
ATOM     42  O2  MOL d          56.083  46.727  39.482  0.00  0.00    -0.388 OA
ATOM     43  H19 MOL d          56.281  46.911  40.392  0.00  0.00     0.210 HD
ENDBRANCH   1  42
BRANCH   5  44
ATOM     44  O4  MOL d          56.662  48.940  37.870  0.00  0.00    -0.348 OA
BRANCH  44  45
ATOM     45  C4  MOL d          56.177  50.164  38.375  0.00  0.00     0.097 C 
ATOM     46  C5  MOL d          57.221  51.263  38.178  0.00  0.00     0.119 C 
ATOM     47  O5  MOL d          56.745  52.484  38.741  0.00  0.00    -0.195 OA
ATOM     48  H24 MOL d          58.155  50.952  38.667  0.00  0.00     0.094 H 
ATOM     49  N1  MOL d          56.606  52.346  40.162  0.00  0.00     0.042 N 
ATOM     50  C2  MOL d          55.558  51.385  40.463  0.00  0.00     0.135 C 
ATOM     51  H31 MOL d          57.478  52.024  40.554  0.00  0.00     0.315 HD
ATOM     52  H32 MOL d          56.367  53.239  40.564  0.00  0.00     0.315 HD
ATOM     53  C3  MOL d          55.934  50.019  39.878  0.00  0.00     0.088 C 
ATOM     54  H27 MOL d          55.442  51.298  41.553  0.00  0.00     0.084 H 
ATOM     55  H28 MOL d          54.610  51.726  40.019  0.00  0.00     0.084 H 
ATOM     56  H26 MOL d          56.845  49.631  40.357  0.00  0.00     0.089 H 
ATOM     57  H25 MOL d          55.243  50.435  37.861  0.00  0.00     0.091 H 
BRANCH  46  58
ATOM     58  C6  MOL d          57.492  51.596  36.724  0.00  0.00     0.045 C 
ATOM     59  H22 MOL d          57.644  52.681  36.623  0.00  0.00     0.078 H 
ATOM     60  H23 MOL d          56.629  51.289  36.115  0.00  0.00     0.078 H 
BRANCH  58  61
ATOM     61  O6  MOL d          58.660  50.912  36.261  0.00  0.00    -0.398 OA
ATOM     62  H29 MOL d          59.237  51.531  35.829  0.00  0.00     0.209 HD
ENDBRANCH  58  61
ENDBRANCH  46  58
BRANCH  53  63
ATOM     63  O3  MOL d          54.836  49.158  40.158  0.00  0.00    -0.391 OA
ATOM     64  H30 MOL d          55.161  48.289  40.367  0.00  0.00     0.210 HD
ENDBRANCH  53  63
ENDBRANCH  44  45
ENDBRANCH   5  44
TORSDOF 16
ENDMDL
MODEL 4
REMARK VINA RESULT:      -4.9      2.844      8.909
REMARK  16 active torsions:
REMARK  status: ('A' for Active; 'I' for Inactive)
REMARK    1  A    between atoms: C2_1  and  O2_7 
REMARK    2  A    between atoms: C3_2  and  O3_8 
REMARK    3  A    between atoms: C4_3  and  O4_9 
REMARK    4  A    between atoms: C5_4  and  C6_5 
REMARK    5  A    between atoms: C6_5  and  O6_11 
REMARK    6  A    between atoms: O4_20  and  C1_6 
REMARK    7  A    between atoms: C2_12  and  O2_18 
REMARK    8  A    between atoms: C3_13  and  O3_19 
REMARK    9  A    between atoms: C4_14  and  O4_20 
REMARK   10  A    between atoms: C5_15  and  C6_16 
REMARK   11  A    between atoms: C6_16  and  O6_22 
REMARK   12  A    between atoms: O4_30  and  C1_17 
REMARK   13  A    between atoms: C5_24  and  C6_23 
REMARK   14  A    between atoms: C6_23  and  O6_28 
REMARK   15  A    between atoms: C4_25  and  O4_30 
REMARK   16  A    between atoms: C3_26  and  O3_31 
ROOT
ATOM      1  C2  MOL d          56.749  48.244  37.825  0.00  0.00     0.110 C 
ATOM      2  C3  MOL d          57.729  47.099  38.051  0.00  0.00     0.092 C 
ATOM      3  C4  MOL d          59.146  47.612  37.850  0.00  0.00     0.096 C 
ATOM      4  C5  MOL d          59.363  48.768  38.824  0.00  0.00     0.089 C 
ATOM      5  C1  MOL d          57.102  49.424  38.721  0.00  0.00     0.159 C 
ATOM      6  O5  MOL d          58.448  49.809  38.506  0.00  0.00    -0.348 OA
ATOM      7  H12 MOL d          56.822  48.560  36.773  0.00  0.00     0.094 H 
ATOM      8  H13 MOL d          57.620  46.722  39.079  0.00  0.00     0.091 H 
ATOM      9  H14 MOL d          59.274  47.968  36.818  0.00  0.00     0.091 H 
ATOM     10  H15 MOL d          59.163  48.399  39.840  0.00  0.00     0.090 H 
ATOM     11  H18 MOL d          56.939  49.165  39.778  0.00  0.00     0.133 H 
ENDROOT
BRANCH   3  12
ATOM     12  O4  MOL d          60.068  46.558  38.105  0.00  0.00    -0.348 OA
BRANCH  12  13
ATOM     13  C1  MOL d          60.789  46.082  36.970  0.00  0.00     0.159 C 
ATOM     14  C2  MOL d          62.251  46.035  37.373  0.00  0.00     0.110 C 
ATOM     15  C3  MOL d          63.077  45.379  36.283  0.00  0.00     0.092 C 
ATOM     16  H1  MOL d          62.345  45.433  38.289  0.00  0.00     0.094 H 
ATOM     17  C4  MOL d          62.487  44.053  35.846  0.00  0.00     0.090 C 
ATOM     18  H2  MOL d          63.097  46.046  35.409  0.00  0.00     0.091 H 
ATOM     19  C5  MOL d          61.011  44.224  35.545  0.00  0.00     0.089 C 
ATOM     20  H3  MOL d          62.606  43.321  36.658  0.00  0.00     0.091 H 
ATOM     21  O5  MOL d          60.327  44.788  36.654  0.00  0.00    -0.348 OA
ATOM     22  H4  MOL d          60.923  44.913  34.691  0.00  0.00     0.090 H 
ATOM     23  H7  MOL d          60.650  46.752  36.109  0.00  0.00     0.133 H 
BRANCH  14  24
ATOM     24  O2  MOL d          62.707  47.351  37.651  0.00  0.00    -0.388 OA
ATOM     25  H8  MOL d          63.228  47.344  38.445  0.00  0.00     0.210 HD
ENDBRANCH  14  24
BRANCH  15  26
ATOM     26  O3  MOL d          64.396  45.223  36.763  0.00  0.00    -0.390 OA
ATOM     27  H9  MOL d          64.782  46.079  36.908  0.00  0.00     0.210 HD
ENDBRANCH  15  26
BRANCH  17  28
ATOM     28  O4  MOL d          63.164  43.582  34.702  0.00  0.00    -0.390 OA
ATOM     29  H10 MOL d          62.668  43.813  33.924  0.00  0.00     0.210 HD
ENDBRANCH  17  28
BRANCH  19  30
ATOM     30  C6  MOL d          60.325  42.930  35.180  0.00  0.00     0.043 C 
ATOM     31  H5  MOL d          59.955  42.989  34.146  0.00  0.00     0.078 H 
ATOM     32  H6  MOL d          59.480  42.757  35.863  0.00  0.00     0.078 H 
BRANCH  30  33
ATOM     33  O6  MOL d          61.247  41.867  35.291  0.00  0.00    -0.398 OA
ATOM     34  H11 MOL d          62.024  42.169  35.749  0.00  0.00     0.209 HD
ENDBRANCH  30  33
ENDBRANCH  19  30
ENDBRANCH  12  13
ENDBRANCH   3  12
BRANCH   2  35
ATOM     35  O3  MOL d          57.460  46.049  37.138  0.00  0.00    -0.390 OA
ATOM     36  H20 MOL d          58.265  45.797  36.701  0.00  0.00     0.210 HD
ENDBRANCH   2  35
BRANCH   4  37
ATOM     37  C6  MOL d          60.739  49.375  38.801  0.00  0.00     0.043 C 
ATOM     38  H16 MOL d          61.481  48.613  39.080  0.00  0.00     0.078 H 
ATOM     39  H17 MOL d          60.783  50.210  39.517  0.00  0.00     0.078 H 
BRANCH  37  40
ATOM     40  O6  MOL d          61.023  49.856  37.496  0.00  0.00    -0.398 OA
ATOM     41  H21 MOL d          61.734  49.350  37.122  0.00  0.00     0.209 HD
ENDBRANCH  37  40
ENDBRANCH   4  37
BRANCH   1  42
ATOM     42  O2  MOL d          55.419  47.846  38.087  0.00  0.00    -0.388 OA
ATOM     43  H19 MOL d          54.978  48.526  38.581  0.00  0.00     0.210 HD
ENDBRANCH   1  42
BRANCH   5  44
ATOM     44  O4  MOL d          56.309  50.487  38.345  0.00  0.00    -0.348 OA
BRANCH  44  45
ATOM     45  C4  MOL d          56.943  51.736  38.181  0.00  0.00     0.097 C 
ATOM     46  C5  MOL d          56.023  52.859  38.656  0.00  0.00     0.119 C 
ATOM     47  O5  MOL d          56.650  54.120  38.435  0.00  0.00    -0.195 OA
ATOM     48  H24 MOL d          55.076  52.796  38.100  0.00  0.00     0.094 H 
ATOM     49  N1  MOL d          56.819  54.342  37.027  0.00  0.00     0.042 N 
ATOM     50  C2  MOL d          57.763  53.378  36.488  0.00  0.00     0.135 C 
ATOM     51  H31 MOL d          55.930  54.237  36.563  0.00  0.00     0.315 HD
ATOM     52  H32 MOL d          57.169  55.275  36.875  0.00  0.00     0.315 HD
ATOM     53  C3  MOL d          57.218  51.959  36.693  0.00  0.00     0.088 C 
ATOM     54  H27 MOL d          57.904  53.565  35.413  0.00  0.00     0.084 H 
ATOM     55  H28 MOL d          58.728  53.479  37.007  0.00  0.00     0.084 H 
ATOM     56  H26 MOL d          56.286  51.819  36.126  0.00  0.00     0.089 H 
ATOM     57  H25 MOL d          57.884  51.754  38.750  0.00  0.00     0.091 H 
BRANCH  46  58
ATOM     58  C6  MOL d          55.742  52.831  40.146  0.00  0.00     0.045 C 
ATOM     59  H22 MOL d          55.291  53.788  40.447  0.00  0.00     0.078 H 
ATOM     60  H23 MOL d          56.687  52.684  40.690  0.00  0.00     0.078 H 
BRANCH  58  61
ATOM     61  O6  MOL d          54.844  51.766  40.468  0.00  0.00    -0.398 OA
ATOM     62  H29 MOL d          54.055  52.125  40.855  0.00  0.00     0.209 HD
ENDBRANCH  58  61
ENDBRANCH  46  58
BRANCH  53  63
ATOM     63  O3  MOL d          58.223  51.080  36.199  0.00  0.00    -0.391 OA
ATOM     64  H30 MOL d          57.835  50.233  36.011  0.00  0.00     0.210 HD
ENDBRANCH  53  63
ENDBRANCH  44  45
ENDBRANCH   5  44
TORSDOF 16
ENDMDL
