MODEL 1
REMARK VINA RESULT:      -6.7      0.000      0.000
REMARK  6 active torsions:
REMARK  status: ('A' for Active; 'I' for Inactive)
REMARK    1  A    between atoms: N1_2  and  O7_5 
REMARK    2  A    between atoms: C2_3  and  O2_6 
REMARK    3  A    between atoms: C3_7  and  O3_8 
REMARK    4  A    between atoms: C4_9  and  O4_10 
REMARK    5  A    between atoms: C5_11  and  C6_12 
REMARK    6  A    between atoms: C6_12  and  O6_13 
ROOT
ATOM      1  C1  GOX d           0.116  11.146  10.263  0.00  0.00     0.159 C 
ATOM      2  N1  GOX d           0.437  10.875  11.513  0.00  0.00    -0.120 NA
ATOM      3  C2  GOX d           1.256  11.795   9.453  0.00  0.00     0.121 C 
ATOM      4  N5  GOX d          -1.167  10.837   9.770  0.00  0.00    -0.365 N 
ATOM      5  C3  GOX d           0.700  12.281   8.117  0.00  0.00     0.094 C 
ATOM      6  C4  GOX d          -0.197  11.208   7.492  0.00  0.00     0.084 C 
ATOM      7  C5  GOX d          -1.479  11.166   8.372  0.00  0.00     0.058 C 
ATOM      8  H1  GOX d           2.031  11.038   9.263  0.00  0.00     0.099 H 
ATOM      9  H2  GOX d          -1.871  10.390  10.375  0.00  0.00     0.161 HD
ATOM     10  H5  GOX d           0.119  13.203   8.263  0.00  0.00     0.091 H 
ATOM     11  H7  GOX d           0.307  10.232   7.520  0.00  0.00     0.090 H 
ATOM     12  H9  GOX d          -1.953  12.158   8.331  0.00  0.00     0.079 H 
ENDROOT
BRANCH   7  13
ATOM     13  C6  GOX d          -2.489  10.105   7.889  0.00  0.00     0.038 C 
ATOM     14  H10 GOX d          -2.464  10.060   6.790  0.00  0.00     0.077 H 
ATOM     15  H11 GOX d          -3.497  10.391   8.221  0.00  0.00     0.077 H 
BRANCH  13  16
ATOM     16  O6  GOX d          -2.177   8.828   8.410  0.00  0.00    -0.399 OA
ATOM     17  H12 GOX d          -1.416   8.481   7.959  0.00  0.00     0.209 HD
ENDBRANCH  13  16
ENDBRANCH   7  13
BRANCH   6  18
ATOM     18  O4  GOX d          -0.504  11.530   6.141  0.00  0.00    -0.391 OA
ATOM     19  H8  GOX d          -0.283  12.439   5.974  0.00  0.00     0.210 HD
ENDBRANCH   6  18
BRANCH   5  20
ATOM     20  O3  GOX d           1.824  12.536   7.277  0.00  0.00    -0.390 OA
ATOM     21  H6  GOX d           2.121  11.719   6.892  0.00  0.00     0.210 HD
ENDBRANCH   5  20
BRANCH   2  22
ATOM     22  O7  GOX d          -0.514  10.253  12.325  0.00  0.00    -0.265 OA
ATOM     23  H3  GOX d          -0.104   9.974  13.135  0.00  0.00     0.247 HD
ENDBRANCH   2  22
BRANCH   3  24
ATOM     24  O2  GOX d           1.840  12.863  10.158  0.00  0.00    -0.385 OA
ATOM     25  H4  GOX d           2.543  13.236   9.640  0.00  0.00     0.210 HD
ENDBRANCH   3  24
TORSDOF 6
ENDMDL
MODEL 2
REMARK VINA RESULT:      -5.8      1.536      3.069
REMARK  6 active torsions:
REMARK  status: ('A' for Active; 'I' for Inactive)
REMARK    1  A    between atoms: N1_2  and  O7_5 
REMARK    2  A    between atoms: C2_3  and  O2_6 
REMARK    3  A    between atoms: C3_7  and  O3_8 
REMARK    4  A    between atoms: C4_9  and  O4_10 
REMARK    5  A    between atoms: C5_11  and  C6_12 
REMARK    6  A    between atoms: C6_12  and  O6_13 
ROOT
ATOM      1  C1  GOX d           0.961  11.953   9.795  0.00  0.00     0.159 C 
ATOM      2  N1  GOX d           1.769  12.954  10.084  0.00  0.00    -0.120 NA
ATOM      3  C2  GOX d           1.023  11.508   8.321  0.00  0.00     0.121 C 
ATOM      4  N5  GOX d           0.146  11.381  10.792  0.00  0.00    -0.365 N 
ATOM      5  C3  GOX d          -0.115  10.526   8.052  0.00  0.00     0.094 C 
ATOM      6  C4  GOX d          -0.207   9.497   9.182  0.00  0.00     0.084 C 
ATOM      7  C5  GOX d          -0.745  10.274  10.418  0.00  0.00     0.058 C 
ATOM      8  H1  GOX d           1.982  11.000   8.145  0.00  0.00     0.099 H 
ATOM      9  H2  GOX d           0.173  11.730  11.761  0.00  0.00     0.161 HD
ATOM     10  H5  GOX d          -1.069  11.067   7.972  0.00  0.00     0.091 H 
ATOM     11  H7  GOX d           0.790   9.088   9.402  0.00  0.00     0.090 H 
ATOM     12  H9  GOX d          -1.735  10.676  10.162  0.00  0.00     0.079 H 
ENDROOT
BRANCH   7  13
ATOM     13  C6  GOX d          -0.873   9.376  11.666  0.00  0.00     0.038 C 
ATOM     14  H10 GOX d          -0.487   8.374  11.429  0.00  0.00     0.077 H 
ATOM     15  H11 GOX d          -1.933   9.304  11.948  0.00  0.00     0.077 H 
BRANCH  13  16
ATOM     16  O6  GOX d          -0.141   9.906  12.753  0.00  0.00    -0.399 OA
ATOM     17  H12 GOX d           0.654   9.401  12.874  0.00  0.00     0.209 HD
ENDBRANCH  13  16
ENDBRANCH   7  13
BRANCH   6  18
ATOM     18  O4  GOX d          -1.074   8.427   8.822  0.00  0.00    -0.391 OA
ATOM     19  H8  GOX d          -1.893   8.511   9.297  0.00  0.00     0.210 HD
ENDBRANCH   6  18
BRANCH   5  20
ATOM     20  O3  GOX d           0.189   9.880   6.818  0.00  0.00    -0.390 OA
ATOM     21  H6  GOX d          -0.619   9.676   6.361  0.00  0.00     0.210 HD
ENDBRANCH   5  20
BRANCH   2  22
ATOM     22  O7  GOX d           1.817  13.413  11.403  0.00  0.00    -0.265 OA
ATOM     23  H3  GOX d           2.282  14.241  11.433  0.00  0.00     0.247 HD
ENDBRANCH   2  22
BRANCH   3  24
ATOM     24  O2  GOX d           0.935  12.610   7.450  0.00  0.00    -0.385 OA
ATOM     25  H4  GOX d           0.043  12.936   7.442  0.00  0.00     0.210 HD
ENDBRANCH   3  24
TORSDOF 6
ENDMDL
MODEL 3
REMARK VINA RESULT:      -5.7      1.218      3.465
REMARK  6 active torsions:
REMARK  status: ('A' for Active; 'I' for Inactive)
REMARK    1  A    between atoms: N1_2  and  O7_5 
REMARK    2  A    between atoms: C2_3  and  O2_6 
REMARK    3  A    between atoms: C3_7  and  O3_8 
REMARK    4  A    between atoms: C4_9  and  O4_10 
REMARK    5  A    between atoms: C5_11  and  C6_12 
REMARK    6  A    between atoms: C6_12  and  O6_13 
ROOT
ATOM      1  C1  GOX d          -0.459  10.098  10.484  0.00  0.00     0.159 C 
ATOM      2  N1  GOX d          -0.947   9.499  11.553  0.00  0.00    -0.120 NA
ATOM      3  C2  GOX d          -1.357   9.979   9.238  0.00  0.00     0.121 C 
ATOM      4  N5  GOX d           0.775  10.776  10.545  0.00  0.00    -0.365 N 
ATOM      5  C3  GOX d          -0.587  10.488   8.022  0.00  0.00     0.094 C 
ATOM      6  C4  GOX d           0.126  11.802   8.355  0.00  0.00     0.084 C 
ATOM      7  C5  GOX d           1.281  11.420   9.325  0.00  0.00     0.058 C 
ATOM      8  H1  GOX d          -2.249  10.605   9.383  0.00  0.00     0.099 H 
ATOM      9  H2  GOX d           1.310  10.820  11.424  0.00  0.00     0.161 HD
ATOM     10  H5  GOX d           0.155   9.741   7.704  0.00  0.00     0.091 H 
ATOM     11  H7  GOX d          -0.569  12.491   8.856  0.00  0.00     0.090 H 
ATOM     12  H9  GOX d           1.951  10.724   8.799  0.00  0.00     0.079 H 
ENDROOT
BRANCH   7  13
ATOM     13  C6  GOX d           2.092  12.649   9.785  0.00  0.00     0.038 C 
ATOM     14  H10 GOX d           2.020  13.435   9.018  0.00  0.00     0.077 H 
ATOM     15  H11 GOX d           3.145  12.357   9.912  0.00  0.00     0.077 H 
BRANCH  13  16
ATOM     16  O6  GOX d           1.602  13.155  11.011  0.00  0.00    -0.399 OA
ATOM     17  H12 GOX d           1.009  13.877  10.839  0.00  0.00     0.209 HD
ENDBRANCH  13  16
ENDBRANCH   7  13
BRANCH   6  18
ATOM     18  O4  GOX d           0.621  12.423   7.175  0.00  0.00    -0.391 OA
ATOM     19  H8  GOX d          -0.087  12.523   6.550  0.00  0.00     0.210 HD
ENDBRANCH   6  18
BRANCH   5  20
ATOM     20  O3  GOX d          -1.548  10.696   6.989  0.00  0.00    -0.390 OA
ATOM     21  H6  GOX d          -1.932   9.863   6.743  0.00  0.00     0.210 HD
ENDBRANCH   5  20
BRANCH   2  22
ATOM     22  O7  GOX d          -0.228   9.577  12.748  0.00  0.00    -0.265 OA
ATOM     23  H3  GOX d          -0.826   9.751  13.466  0.00  0.00     0.247 HD
ENDBRANCH   2  22
BRANCH   3  24
ATOM     24  O2  GOX d          -1.774   8.651   9.032  0.00  0.00    -0.385 OA
ATOM     25  H4  GOX d          -2.671   8.646   8.722  0.00  0.00     0.210 HD
ENDBRANCH   3  24
TORSDOF 6
ENDMDL
MODEL 4
REMARK VINA RESULT:      -5.5      1.689      3.582
REMARK  6 active torsions:
REMARK  status: ('A' for Active; 'I' for Inactive)
REMARK    1  A    between atoms: N1_2  and  O7_5 
REMARK    2  A    between atoms: C2_3  and  O2_6 
REMARK    3  A    between atoms: C3_7  and  O3_8 
REMARK    4  A    between atoms: C4_9  and  O4_10 
REMARK    5  A    between atoms: C5_11  and  C6_12 
REMARK    6  A    between atoms: C6_12  and  O6_13 
ROOT
ATOM      1  C1  GOX d          -0.033  11.340   7.632  0.00  0.00     0.159 C 
ATOM      2  N1  GOX d          -0.204  11.676   6.368  0.00  0.00    -0.120 NA
ATOM      3  C2  GOX d           0.909  12.282   8.406  0.00  0.00     0.121 C 
ATOM      4  N5  GOX d          -0.689  10.213   8.168  0.00  0.00    -0.365 N 
ATOM      5  C3  GOX d           1.221  11.664   9.766  0.00  0.00     0.094 C 
ATOM      6  C4  GOX d          -0.059  11.126  10.412  0.00  0.00     0.084 C 
ATOM      7  C5  GOX d          -0.459   9.875   9.579  0.00  0.00     0.058 C 
ATOM      8  H1  GOX d           0.399  13.245   8.560  0.00  0.00     0.099 H 
ATOM      9  H2  GOX d          -1.315   9.640   7.584  0.00  0.00     0.161 HD
ATOM     10  H5  GOX d           1.944  10.843   9.651  0.00  0.00     0.091 H 
ATOM     11  H7  GOX d          -0.856  11.882  10.356  0.00  0.00     0.090 H 
ATOM     12  H9  GOX d           0.361   9.145   9.647  0.00  0.00     0.079 H 
ENDROOT
BRANCH   7  13
ATOM     13  C6  GOX d          -1.760   9.221  10.089  0.00  0.00     0.038 C 
ATOM     14  H10 GOX d          -2.021   8.379   9.430  0.00  0.00     0.077 H 
ATOM     15  H11 GOX d          -2.568   9.967  10.068  0.00  0.00     0.077 H 
BRANCH  13  16
ATOM     16  O6  GOX d          -1.607   8.742  11.410  0.00  0.00    -0.399 OA
ATOM     17  H12 GOX d          -2.347   9.024  11.935  0.00  0.00     0.209 HD
ENDBRANCH  13  16
ENDBRANCH   7  13
BRANCH   6  18
ATOM     18  O4  GOX d           0.165  10.793  11.777  0.00  0.00    -0.391 OA
ATOM     19  H8  GOX d          -0.627  10.418  12.145  0.00  0.00     0.210 HD
ENDBRANCH   6  18
BRANCH   5  20
ATOM     20  O3  GOX d           1.781  12.702  10.567  0.00  0.00    -0.390 OA
ATOM     21  H6  GOX d           1.331  13.519  10.383  0.00  0.00     0.210 HD
ENDBRANCH   5  20
BRANCH   2  22
ATOM     22  O7  GOX d          -1.069  10.907   5.585  0.00  0.00    -0.265 OA
ATOM     23  H3  GOX d          -1.968  11.098   5.827  0.00  0.00     0.247 HD
ENDBRANCH   2  22
BRANCH   3  24
ATOM     24  O2  GOX d           2.098  12.518   7.690  0.00  0.00    -0.385 OA
ATOM     25  H4  GOX d           2.648  11.744   7.728  0.00  0.00     0.210 HD
ENDBRANCH   3  24
TORSDOF 6
ENDMDL
MODEL 5
REMARK VINA RESULT:      -5.3      1.086      3.598
REMARK  6 active torsions:
REMARK  status: ('A' for Active; 'I' for Inactive)
REMARK    1  A    between atoms: N1_2  and  O7_5 
REMARK    2  A    between atoms: C2_3  and  O2_6 
REMARK    3  A    between atoms: C3_7  and  O3_8 
REMARK    4  A    between atoms: C4_9  and  O4_10 
REMARK    5  A    between atoms: C5_11  and  C6_12 
REMARK    6  A    between atoms: C6_12  and  O6_13 
ROOT
ATOM      1  C1  GOX d          -1.169  10.644   8.265  0.00  0.00     0.159 C 
ATOM      2  N1  GOX d          -2.297  10.292   7.681  0.00  0.00    -0.120 NA
ATOM      3  C2  GOX d          -0.303  11.602   7.423  0.00  0.00     0.121 C 
ATOM      4  N5  GOX d          -0.846  10.160   9.548  0.00  0.00    -0.365 N 
ATOM      5  C3  GOX d           1.066  11.741   8.082  0.00  0.00     0.094 C 
ATOM      6  C4  GOX d           0.911  11.942   9.593  0.00  0.00     0.084 C 
ATOM      7  C5  GOX d           0.427  10.574  10.153  0.00  0.00     0.058 C 
ATOM      8  H1  GOX d          -0.789  12.588   7.397  0.00  0.00     0.099 H 
ATOM      9  H2  GOX d          -1.488   9.530  10.051  0.00  0.00     0.161 HD
ATOM     10  H5  GOX d           1.669  10.841   7.894  0.00  0.00     0.091 H 
ATOM     11  H7  GOX d           0.157  12.717   9.794  0.00  0.00     0.090 H 
ATOM     12  H9  GOX d           1.197   9.822   9.927  0.00  0.00     0.079 H 
ENDROOT
BRANCH   7  13
ATOM     13  C6  GOX d           0.194  10.613  11.677  0.00  0.00     0.038 C 
ATOM     14  H10 GOX d           1.150  10.436  12.192  0.00  0.00     0.077 H 
ATOM     15  H11 GOX d          -0.521   9.825  11.951  0.00  0.00     0.077 H 
BRANCH  13  16
ATOM     16  O6  GOX d          -0.322  11.866  12.083  0.00  0.00    -0.399 OA
ATOM     17  H12 GOX d          -0.645  12.335  11.323  0.00  0.00     0.209 HD
ENDBRANCH  13  16
ENDBRANCH   7  13
BRANCH   6  18
ATOM     18  O4  GOX d           2.146  12.338  10.179  0.00  0.00    -0.391 OA
ATOM     19  H8  GOX d           2.783  11.641  10.075  0.00  0.00     0.210 HD
ENDBRANCH   6  18
BRANCH   5  20
ATOM     20  O3  GOX d           1.688  12.881   7.493  0.00  0.00    -0.390 OA
ATOM     21  H6  GOX d           1.020  13.497   7.217  0.00  0.00     0.210 HD
ENDBRANCH   5  20
BRANCH   2  22
ATOM     22  O7  GOX d          -3.173   9.453   8.374  0.00  0.00    -0.265 OA
ATOM     23  H3  GOX d          -3.232   9.737   9.279  0.00  0.00     0.247 HD
ENDBRANCH   2  22
BRANCH   3  24
ATOM     24  O2  GOX d          -0.166  11.139   6.101  0.00  0.00    -0.385 OA
ATOM     25  H4  GOX d           0.747  11.188   5.842  0.00  0.00     0.210 HD
ENDBRANCH   3  24
TORSDOF 6
ENDMDL
MODEL 6
REMARK VINA RESULT:      -4.9      1.783      4.144
REMARK  6 active torsions:
REMARK  status: ('A' for Active; 'I' for Inactive)
REMARK    1  A    between atoms: N1_2  and  O7_5 
REMARK    2  A    between atoms: C2_3  and  O2_6 
REMARK    3  A    between atoms: C3_7  and  O3_8 
REMARK    4  A    between atoms: C4_9  and  O4_10 
REMARK    5  A    between atoms: C5_11  and  C6_12 
REMARK    6  A    between atoms: C6_12  and  O6_13 
ROOT
ATOM      1  C1  GOX d          -1.405  10.418   8.735  0.00  0.00     0.159 C 
ATOM      2  N1  GOX d          -2.397   9.777   8.149  0.00  0.00    -0.120 NA
ATOM      3  C2  GOX d          -0.798   9.664   9.935  0.00  0.00     0.121 C 
ATOM      4  N5  GOX d          -0.980  11.673   8.255  0.00  0.00    -0.365 N 
ATOM      5  C3  GOX d           0.159  10.595  10.674  0.00  0.00     0.094 C 
ATOM      6  C4  GOX d           1.054  11.338   9.677  0.00  0.00     0.084 C 
ATOM      7  C5  GOX d           0.124  12.351   8.949  0.00  0.00     0.058 C 
ATOM      8  H1  GOX d          -0.234   8.797   9.559  0.00  0.00     0.099 H 
ATOM      9  H2  GOX d          -1.432  12.105   7.437  0.00  0.00     0.161 HD
ATOM     10  H5  GOX d          -0.409  11.325  11.269  0.00  0.00     0.091 H 
ATOM     11  H7  GOX d           1.477  10.630   8.949  0.00  0.00     0.090 H 
ATOM     12  H9  GOX d          -0.289  13.036   9.703  0.00  0.00     0.079 H 
ENDROOT
BRANCH   7  13
ATOM     13  C6  GOX d           0.873  13.172   7.879  0.00  0.00     0.038 C 
ATOM     14  H10 GOX d           1.199  14.125   8.321  0.00  0.00     0.077 H 
ATOM     15  H11 GOX d           0.193  13.371   7.038  0.00  0.00     0.077 H 
BRANCH  13  16
ATOM     16  O6  GOX d           2.006  12.474   7.401  0.00  0.00    -0.399 OA
ATOM     17  H12 GOX d           2.670  13.098   7.131  0.00  0.00     0.209 HD
ENDBRANCH  13  16
ENDBRANCH   7  13
BRANCH   6  18
ATOM     18  O4  GOX d           2.119  12.000  10.349  0.00  0.00    -0.391 OA
ATOM     19  H8  GOX d           2.581  12.559   9.735  0.00  0.00     0.210 HD
ENDBRANCH   6  18
BRANCH   5  20
ATOM     20  O3  GOX d           0.949   9.773  11.529  0.00  0.00    -0.390 OA
ATOM     21  H6  GOX d           1.869   9.968  11.393  0.00  0.00     0.210 HD
ENDBRANCH   5  20
BRANCH   2  22
ATOM     22  O7  GOX d          -2.995  10.358   7.028  0.00  0.00    -0.265 OA
ATOM     23  H3  GOX d          -3.922  10.481   7.192  0.00  0.00     0.247 HD
ENDBRANCH   2  22
BRANCH   3  24
ATOM     24  O2  GOX d          -1.800   9.199  10.806  0.00  0.00    -0.385 OA
ATOM     25  H4  GOX d          -2.524   9.814  10.812  0.00  0.00     0.210 HD
ENDBRANCH   3  24
TORSDOF 6
ENDMDL
MODEL 7
REMARK VINA RESULT:      -4.8      2.063      4.332
REMARK  6 active torsions:
REMARK  status: ('A' for Active; 'I' for Inactive)
REMARK    1  A    between atoms: N1_2  and  O7_5 
REMARK    2  A    between atoms: C2_3  and  O2_6 
REMARK    3  A    between atoms: C3_7  and  O3_8 
REMARK    4  A    between atoms: C4_9  and  O4_10 
REMARK    5  A    between atoms: C5_11  and  C6_12 
REMARK    6  A    between atoms: C6_12  and  O6_13 
ROOT
ATOM      1  C1  GOX d           0.466  11.092   8.944  0.00  0.00     0.159 C 
ATOM      2  N1  GOX d           1.144  11.774   8.043  0.00  0.00    -0.120 NA
ATOM      3  C2  GOX d          -0.944  10.676   8.481  0.00  0.00     0.121 C 
ATOM      4  N5  GOX d           1.038  10.796  10.198  0.00  0.00    -0.365 N 
ATOM      5  C3  GOX d          -1.714  10.117   9.675  0.00  0.00     0.094 C 
ATOM      6  C4  GOX d          -0.831   9.153  10.473  0.00  0.00     0.084 C 
ATOM      7  C5  GOX d           0.238  10.041  11.172  0.00  0.00     0.058 C 
ATOM      8  H1  GOX d          -0.848   9.889   7.718  0.00  0.00     0.099 H 
ATOM      9  H2  GOX d           1.995  11.101  10.426  0.00  0.00     0.161 HD
ATOM     10  H5  GOX d          -2.043  10.937  10.329  0.00  0.00     0.091 H 
ATOM     11  H7  GOX d          -0.339   8.442   9.793  0.00  0.00     0.090 H 
ATOM     12  H9  GOX d          -0.285  10.745  11.835  0.00  0.00     0.079 H 
ENDROOT
BRANCH   7  13
ATOM     13  C6  GOX d           1.236   9.211  12.006  0.00  0.00     0.038 C 
ATOM     14  H10 GOX d           0.677   8.499  12.632  0.00  0.00     0.077 H 
ATOM     15  H11 GOX d           1.816   9.888  12.650  0.00  0.00     0.077 H 
BRANCH  13  16
ATOM     16  O6  GOX d           2.125   8.493  11.173  0.00  0.00    -0.399 OA
ATOM     17  H12 GOX d           1.727   8.371  10.318  0.00  0.00     0.209 HD
ENDBRANCH  13  16
ENDBRANCH   7  13
BRANCH   6  18
ATOM     18  O4  GOX d          -1.604   8.426  11.420  0.00  0.00    -0.391 OA
ATOM     19  H8  GOX d          -2.487   8.312  11.087  0.00  0.00     0.210 HD
ENDBRANCH   6  18
BRANCH   5  20
ATOM     20  O3  GOX d          -2.844   9.429   9.144  0.00  0.00    -0.390 OA
ATOM     21  H6  GOX d          -2.832   9.486   8.196  0.00  0.00     0.210 HD
ENDBRANCH   5  20
BRANCH   2  22
ATOM     22  O7  GOX d           2.448  12.170   8.349  0.00  0.00    -0.265 OA
ATOM     23  H3  GOX d           2.459  12.594   9.200  0.00  0.00     0.247 HD
ENDBRANCH   2  22
BRANCH   3  24
ATOM     24  O2  GOX d          -1.637  11.762   7.915  0.00  0.00    -0.385 OA
ATOM     25  H4  GOX d          -2.029  11.492   7.093  0.00  0.00     0.210 HD
ENDBRANCH   3  24
TORSDOF 6
ENDMDL
