MODEL 1
REMARK VINA RESULT:      -9.0      0.000      0.000
REMARK  2 active torsions:
REMARK  status: ('A' for Active; 'I' for Inactive)
REMARK    1  A    between atoms: C3_3  and  O3_20 
REMARK    2  A    between atoms: C5_5  and  O4_21 
ROOT
ATOM      1  C1  M1S d          55.465  75.876  -5.741  0.00  0.00     0.296 C 
ATOM      2  C2  M1S d          55.538  76.640  -4.452  0.00  0.00     0.081 A 
ATOM      3  C3  M1S d          54.642  77.707  -4.260  0.00  0.00     0.085 A 
ATOM      4  C4  M1S d          54.671  78.487  -3.112  0.00  0.00    -0.016 A 
ATOM      5  C5  M1S d          55.639  78.175  -2.153  0.00  0.00     0.090 A 
ATOM      6  C6  M1S d          56.491  77.126  -2.364  0.00  0.00     0.075 A 
ATOM      7  C7  M1S d          56.498  76.326  -3.495  0.00  0.00    -0.008 A 
ATOM      8  C8  M1S d          57.499  75.169  -3.628  0.00  0.00     0.017 C 
ATOM      9  C9  M1S d          58.784  75.508  -4.324  0.00  0.00     0.131 C 
ATOM     10  C10 M1S d          59.258  76.925  -4.480  0.00  0.00    -0.009 C 
ATOM     11  C11 M1S d          60.603  76.968  -5.215  0.00  0.00    -0.059 C 
ATOM     12  C12 M1S d          61.036  78.395  -5.511  0.00  0.00    -0.064 C 
ATOM     13  C13 M1S d          60.067  79.127  -6.438  0.00  0.00    -0.062 C 
ATOM     14  C14 M1S d          60.052  78.490  -7.827  0.00  0.00    -0.050 C 
ATOM     15  C15 M1S d          58.706  77.853  -8.088  0.00  0.00    -0.106 C 
ATOM     16  C16 M1S d          58.618  76.545  -8.321  0.00  0.00    -0.105 C 
ATOM     17  C17 M1S d          57.276  75.905  -8.598  0.00  0.00    -0.030 C 
ATOM     18  C18 M1S d          56.805  74.915  -7.538  0.00  0.00     0.032 C 
ATOM     19  O2  M1S d          54.448  75.586  -6.335  0.00  0.00    -0.259 OA
ATOM     20 CL1  M1S d          57.628  76.746  -1.062  0.00  0.00    -0.081 Cl
ATOM     21  O5  M1S d          59.448  74.544  -4.716  0.00  0.00    -0.298 OA
ATOM     22  O1  M1S d          56.748  75.610  -6.265  0.00  0.00    -0.317 OA
ATOM     23  H1  M1S d          53.973  79.304  -2.965  0.00  0.00     0.092 H 
ATOM     24  H2  M1S d          57.010  74.360  -4.191  0.00  0.00     0.051 H 
ATOM     25  H3  M1S d          57.744  74.814  -2.616  0.00  0.00     0.051 H 
ATOM     26  H4  M1S d          59.376  77.377  -3.484  0.00  0.00     0.044 H 
ATOM     27  H5  M1S d          58.514  77.494  -5.055  0.00  0.00     0.044 H 
ATOM     28  H6  M1S d          60.509  76.420  -6.164  0.00  0.00     0.033 H 
ATOM     29  H7  M1S d          61.368  76.486  -4.588  0.00  0.00     0.033 H 
ATOM     30  H8  M1S d          62.027  78.370  -5.987  0.00  0.00     0.033 H 
ATOM     31  H9  M1S d          61.099  78.948  -4.561  0.00  0.00     0.033 H 
ATOM     32  H10 M1S d          60.379  80.178  -6.528  0.00  0.00     0.033 H 
ATOM     33  H11 M1S d          59.054  79.080  -6.011  0.00  0.00     0.033 H 
ATOM     34  H12 M1S d          60.836  77.721  -7.883  0.00  0.00     0.038 H 
ATOM     35  H13 M1S d          60.243  79.264  -8.585  0.00  0.00     0.038 H 
ATOM     36  H14 M1S d          57.806  78.465  -8.085  0.00  0.00     0.076 H 
ATOM     37  H15 M1S d          59.518  75.932  -8.312  0.00  0.00     0.076 H 
ATOM     38  H16 M1S d          57.345  75.371  -9.557  0.00  0.00     0.042 H 
ATOM     39  H17 M1S d          56.526  76.705  -8.676  0.00  0.00     0.042 H 
ATOM     40  H18 M1S d          57.511  74.075  -7.473  0.00  0.00     0.075 H 
ATOM     41  H19 M1S d          55.806  74.535  -7.800  0.00  0.00     0.075 H 
ENDROOT
BRANCH   3  42
ATOM     42  O3  M1S d          53.674  77.984  -5.209  0.00  0.00    -0.360 OA
ATOM     43  H20 M1S d          53.230  78.793  -4.980  0.00  0.00     0.217 HD
ENDBRANCH   3  42
BRANCH   5  44
ATOM     44  O4  M1S d          55.749  78.940  -1.019  0.00  0.00    -0.359 OA
ATOM     45  H21 M1S d          55.129  78.631  -0.368  0.00  0.00     0.217 HD
ENDBRANCH   5  44
TORSDOF 2
ENDMDL
MODEL 2
REMARK VINA RESULT:      -7.1      1.382      1.755
REMARK  2 active torsions:
REMARK  status: ('A' for Active; 'I' for Inactive)
REMARK    1  A    between atoms: C3_3  and  O3_20 
REMARK    2  A    between atoms: C5_5  and  O4_21 
ROOT
ATOM      1  C1  M1S d          57.045  74.646  -6.544  0.00  0.00     0.296 C 
ATOM      2  C2  M1S d          56.391  75.419  -5.436  0.00  0.00     0.081 A 
ATOM      3  C3  M1S d          55.187  76.090  -5.714  0.00  0.00     0.085 A 
ATOM      4  C4  M1S d          54.540  76.858  -4.755  0.00  0.00    -0.016 A 
ATOM      5  C5  M1S d          55.143  76.946  -3.497  0.00  0.00     0.090 A 
ATOM      6  C6  M1S d          56.309  76.276  -3.253  0.00  0.00     0.075 A 
ATOM      7  C7  M1S d          56.988  75.503  -4.182  0.00  0.00    -0.008 A 
ATOM      8  C8  M1S d          58.292  74.789  -3.800  0.00  0.00     0.017 C 
ATOM      9  C9  M1S d          59.551  75.555  -4.083  0.00  0.00     0.131 C 
ATOM     10  C10 M1S d          59.551  77.042  -4.293  0.00  0.00    -0.009 C 
ATOM     11  C11 M1S d          60.974  77.554  -4.547  0.00  0.00    -0.059 C 
ATOM     12  C12 M1S d          60.984  79.032  -4.903  0.00  0.00    -0.064 C 
ATOM     13  C13 M1S d          60.230  79.334  -6.198  0.00  0.00    -0.062 C 
ATOM     14  C14 M1S d          60.929  78.699  -7.398  0.00  0.00    -0.050 C 
ATOM     15  C15 M1S d          60.060  77.607  -7.982  0.00  0.00    -0.106 C 
ATOM     16  C16 M1S d          60.501  76.351  -8.025  0.00  0.00    -0.105 C 
ATOM     17  C17 M1S d          59.644  75.258  -8.622  0.00  0.00    -0.030 C 
ATOM     18  C18 M1S d          59.179  74.193  -7.633  0.00  0.00     0.032 C 
ATOM     19  O2  M1S d          56.469  73.990  -7.383  0.00  0.00    -0.259 OA
ATOM     20 CL1  M1S d          56.958  76.373  -1.609  0.00  0.00    -0.081 Cl
ATOM     21  O5  M1S d          60.591  74.890  -4.082  0.00  0.00    -0.298 OA
ATOM     22  O1  M1S d          58.441  74.854  -6.572  0.00  0.00    -0.317 OA
ATOM     23  H1  M1S d          53.608  77.366  -4.972  0.00  0.00     0.092 H 
ATOM     24  H2  M1S d          58.338  73.843  -4.359  0.00  0.00     0.051 H 
ATOM     25  H3  M1S d          58.260  74.576  -2.721  0.00  0.00     0.051 H 
ATOM     26  H4  M1S d          59.145  77.533  -3.396  0.00  0.00     0.044 H 
ATOM     27  H5  M1S d          58.920  77.284  -5.160  0.00  0.00     0.044 H 
ATOM     28  H6  M1S d          61.416  76.984  -5.378  0.00  0.00     0.033 H 
ATOM     29  H7  M1S d          61.575  77.402  -3.638  0.00  0.00     0.033 H 
ATOM     30  H8  M1S d          62.028  79.358  -5.021  0.00  0.00     0.033 H 
ATOM     31  H9  M1S d          60.514  79.595  -4.083  0.00  0.00     0.033 H 
ATOM     32  H10 M1S d          60.186  80.424  -6.342  0.00  0.00     0.033 H 
ATOM     33  H11 M1S d          59.209  78.932  -6.122  0.00  0.00     0.033 H 
ATOM     34  H12 M1S d          61.888  78.268  -7.076  0.00  0.00     0.038 H 
ATOM     35  H13 M1S d          61.111  79.468  -8.163  0.00  0.00     0.038 H 
ATOM     36  H14 M1S d          59.071  77.848  -8.368  0.00  0.00     0.076 H 
ATOM     37  H15 M1S d          61.486  76.110  -7.628  0.00  0.00     0.076 H 
ATOM     38  H16 M1S d          60.226  74.760  -9.411  0.00  0.00     0.042 H 
ATOM     39  H17 M1S d          58.752  75.727  -9.063  0.00  0.00     0.042 H 
ATOM     40  H18 M1S d          60.051  73.671  -7.212  0.00  0.00     0.075 H 
ATOM     41  H19 M1S d          58.529  73.468  -8.145  0.00  0.00     0.075 H 
ENDROOT
BRANCH   3  42
ATOM     42  O3  M1S d          54.592  75.969  -6.958  0.00  0.00    -0.360 OA
ATOM     43  H20 M1S d          53.701  75.656  -6.853  0.00  0.00     0.217 HD
ENDBRANCH   3  42
BRANCH   5  44
ATOM     44  O4  M1S d          54.577  77.729  -2.522  0.00  0.00    -0.359 OA
ATOM     45  H21 M1S d          53.705  77.407  -2.325  0.00  0.00     0.217 HD
ENDBRANCH   5  44
TORSDOF 2
ENDMDL
MODEL 3
REMARK VINA RESULT:      -6.9      2.496      5.254
REMARK  2 active torsions:
REMARK  status: ('A' for Active; 'I' for Inactive)
REMARK    1  A    between atoms: C3_3  and  O3_20 
REMARK    2  A    between atoms: C5_5  and  O4_21 
ROOT
ATOM      1  C1  M1S d          55.509  77.109  -5.516  0.00  0.00     0.296 C 
ATOM      2  C2  M1S d          56.177  76.306  -6.593  0.00  0.00     0.081 A 
ATOM      3  C3  M1S d          55.594  75.083  -6.970  0.00  0.00     0.085 A 
ATOM      4  C4  M1S d          56.171  74.264  -7.930  0.00  0.00    -0.016 A 
ATOM      5  C5  M1S d          57.367  74.701  -8.505  0.00  0.00     0.090 A 
ATOM      6  C6  M1S d          57.906  75.899  -8.126  0.00  0.00     0.075 A 
ATOM      7  C7  M1S d          57.366  76.744  -7.170  0.00  0.00    -0.008 A 
ATOM      8  C8  M1S d          58.054  78.071  -6.821  0.00  0.00     0.017 C 
ATOM      9  C9  M1S d          59.019  78.013  -5.674  0.00  0.00     0.131 C 
ATOM     10  C10 M1S d          59.611  76.719  -5.193  0.00  0.00    -0.009 C 
ATOM     11  C11 M1S d          60.572  76.963  -4.023  0.00  0.00    -0.059 C 
ATOM     12  C12 M1S d          61.075  75.658  -3.427  0.00  0.00    -0.064 C 
ATOM     13  C13 M1S d          59.952  74.808  -2.833  0.00  0.00    -0.062 C 
ATOM     14  C14 M1S d          59.321  75.502  -1.627  0.00  0.00    -0.050 C 
ATOM     15  C15 M1S d          57.894  75.891  -1.945  0.00  0.00    -0.106 C 
ATOM     16  C16 M1S d          57.526  77.170  -1.914  0.00  0.00    -0.105 C 
ATOM     17  C17 M1S d          56.098  77.564  -2.215  0.00  0.00    -0.030 C 
ATOM     18  C18 M1S d          55.913  78.393  -3.482  0.00  0.00     0.032 C 
ATOM     19  O2  M1S d          54.313  77.235  -5.367  0.00  0.00    -0.259 OA
ATOM     20 CL1  M1S d          59.377  76.415  -8.965  0.00  0.00    -0.081 Cl
ATOM     21  O5  M1S d          59.332  79.102  -5.185  0.00  0.00    -0.298 OA
ATOM     22  O1  M1S d          56.445  77.635  -4.600  0.00  0.00    -0.317 OA
ATOM     23  H1  M1S d          55.713  73.326  -8.223  0.00  0.00     0.092 H 
ATOM     24  H2  M1S d          57.272  78.803  -6.570  0.00  0.00     0.051 H 
ATOM     25  H3  M1S d          58.603  78.413  -7.711  0.00  0.00     0.051 H 
ATOM     26  H4  M1S d          60.162  76.245  -6.020  0.00  0.00     0.044 H 
ATOM     27  H5  M1S d          58.802  76.052  -4.863  0.00  0.00     0.044 H 
ATOM     28  H6  M1S d          60.045  77.533  -3.242  0.00  0.00     0.033 H 
ATOM     29  H7  M1S d          61.432  77.546  -4.384  0.00  0.00     0.033 H 
ATOM     30  H8  M1S d          61.798  75.891  -2.632  0.00  0.00     0.033 H 
ATOM     31  H9  M1S d          61.573  75.079  -4.218  0.00  0.00     0.033 H 
ATOM     32  H10 M1S d          60.365  73.839  -2.514  0.00  0.00     0.033 H 
ATOM     33  H11 M1S d          59.180  74.644  -3.599  0.00  0.00     0.033 H 
ATOM     34  H12 M1S d          59.898  76.405  -1.382  0.00  0.00     0.038 H 
ATOM     35  H13 M1S d          59.329  74.817  -0.766  0.00  0.00     0.038 H 
ATOM     36  H14 M1S d          57.166  75.123  -2.200  0.00  0.00     0.076 H 
ATOM     37  H15 M1S d          58.258  77.938  -1.670  0.00  0.00     0.076 H 
ATOM     38  H16 M1S d          55.718  78.150  -1.365  0.00  0.00     0.042 H 
ATOM     39  H17 M1S d          55.505  76.643  -2.320  0.00  0.00     0.042 H 
ATOM     40  H18 M1S d          56.454  79.345  -3.386  0.00  0.00     0.075 H 
ATOM     41  H19 M1S d          54.843  78.594  -3.644  0.00  0.00     0.075 H 
ENDROOT
BRANCH   3  42
ATOM     42  O3  M1S d          54.395  74.680  -6.408  0.00  0.00    -0.360 OA
ATOM     43  H20 M1S d          54.556  73.977  -5.790  0.00  0.00     0.217 HD
ENDBRANCH   3  42
BRANCH   5  44
ATOM     44  O4  M1S d          58.011  73.912  -9.426  0.00  0.00    -0.359 OA
ATOM     45  H21 M1S d          58.544  73.268  -8.974  0.00  0.00     0.217 HD
ENDBRANCH   5  44
TORSDOF 2
ENDMDL
MODEL 4
REMARK VINA RESULT:      -6.8      2.634      6.054
REMARK  2 active torsions:
REMARK  status: ('A' for Active; 'I' for Inactive)
REMARK    1  A    between atoms: C3_3  and  O3_20 
REMARK    2  A    between atoms: C5_5  and  O4_21 
ROOT
ATOM      1  C1  M1S d          60.131  76.949  -3.251  0.00  0.00     0.296 C 
ATOM      2  C2  M1S d          60.261  77.421  -4.670  0.00  0.00     0.081 A 
ATOM      3  C3  M1S d          60.862  78.670  -4.903  0.00  0.00     0.085 A 
ATOM      4  C4  M1S d          60.984  79.195  -6.182  0.00  0.00    -0.016 A 
ATOM      5  C5  M1S d          60.473  78.432  -7.235  0.00  0.00     0.090 A 
ATOM      6  C6  M1S d          59.902  77.216  -6.979  0.00  0.00     0.075 A 
ATOM      7  C7  M1S d          59.756  76.658  -5.719  0.00  0.00    -0.008 A 
ATOM      8  C8  M1S d          59.100  75.281  -5.544  0.00  0.00     0.017 C 
ATOM      9  C9  M1S d          57.622  75.302  -5.288  0.00  0.00     0.131 C 
ATOM     10  C10 M1S d          56.771  76.496  -5.615  0.00  0.00    -0.009 C 
ATOM     11  C11 M1S d          55.303  76.228  -5.262  0.00  0.00    -0.059 C 
ATOM     12  C12 M1S d          54.445  77.469  -5.450  0.00  0.00    -0.064 C 
ATOM     13  C13 M1S d          54.858  78.619  -4.531  0.00  0.00    -0.062 C 
ATOM     14  C14 M1S d          54.611  78.263  -3.066  0.00  0.00    -0.050 C 
ATOM     15  C15 M1S d          55.930  78.146  -2.335  0.00  0.00    -0.106 C 
ATOM     16  C16 M1S d          56.280  76.995  -1.765  0.00  0.00    -0.105 C 
ATOM     17  C17 M1S d          57.589  76.875  -1.020  0.00  0.00    -0.030 C 
ATOM     18  C18 M1S d          58.604  75.925  -1.649  0.00  0.00     0.032 C 
ATOM     19  O2  M1S d          60.956  77.105  -2.376  0.00  0.00    -0.259 OA
ATOM     20 CL1  M1S d          59.358  76.278  -8.378  0.00  0.00    -0.081 Cl
ATOM     21  O5  M1S d          57.145  74.257  -4.839  0.00  0.00    -0.298 OA
ATOM     22  O1  M1S d          58.865  76.377  -3.004  0.00  0.00    -0.317 OA
ATOM     23  H1  M1S d          61.456  80.155  -6.357  0.00  0.00     0.092 H 
ATOM     24  H2  M1S d          59.585  74.779  -4.695  0.00  0.00     0.051 H 
ATOM     25  H3  M1S d          59.278  74.702  -6.462  0.00  0.00     0.051 H 
ATOM     26  H4  M1S d          56.851  76.712  -6.690  0.00  0.00     0.044 H 
ATOM     27  H5  M1S d          57.128  77.362  -5.040  0.00  0.00     0.044 H 
ATOM     28  H6  M1S d          55.241  75.907  -4.211  0.00  0.00     0.033 H 
ATOM     29  H7  M1S d          54.920  75.428  -5.913  0.00  0.00     0.033 H 
ATOM     30  H8  M1S d          53.398  77.208  -5.237  0.00  0.00     0.033 H 
ATOM     31  H9  M1S d          54.535  77.805  -6.494  0.00  0.00     0.033 H 
ATOM     32  H10 M1S d          54.271  79.513  -4.788  0.00  0.00     0.033 H 
ATOM     33  H11 M1S d          55.929  78.828  -4.675  0.00  0.00     0.033 H 
ATOM     34  H12 M1S d          54.076  77.304  -3.009  0.00  0.00     0.038 H 
ATOM     35  H13 M1S d          54.003  79.052  -2.598  0.00  0.00     0.038 H 
ATOM     36  H14 M1S d          56.596  79.005  -2.275  0.00  0.00     0.076 H 
ATOM     37  H15 M1S d          55.618  76.133  -1.837  0.00  0.00     0.076 H 
ATOM     38  H16 M1S d          57.372  76.517  -0.003  0.00  0.00     0.042 H 
ATOM     39  H17 M1S d          58.045  77.875  -0.967  0.00  0.00     0.042 H 
ATOM     40  H18 M1S d          58.195  74.905  -1.668  0.00  0.00     0.075 H 
ATOM     41  H19 M1S d          59.537  75.936  -1.066  0.00  0.00     0.075 H 
ENDROOT
BRANCH   3  42
ATOM     42  O3  M1S d          61.386  79.399  -3.849  0.00  0.00    -0.360 OA
ATOM     43  H20 M1S d          62.215  79.019  -3.583  0.00  0.00     0.217 HD
ENDBRANCH   3  42
BRANCH   5  44
ATOM     44  O4  M1S d          60.521  78.918  -8.518  0.00  0.00    -0.359 OA
ATOM     45  H21 M1S d          60.602  78.194  -9.128  0.00  0.00     0.217 HD
ENDBRANCH   5  44
TORSDOF 2
ENDMDL
