MODEL 1
REMARK VINA RESULT:      -7.2      0.000      0.000
REMARK  7 active torsions:
REMARK  status: ('A' for Active; 'I' for Inactive)
REMARK    1  A    between atoms: C3_3  and  O3_10 
REMARK    2  A    between atoms: C4_4  and  O4_11 
REMARK    3  A    between atoms: C5_5  and  C6_6 
REMARK    4  A    between atoms: C6_6  and  O6_14 
REMARK    5  A    between atoms: N1_13  and  C7_7 
REMARK    6  A    between atoms: C9_16  and  C10_8 
REMARK    7  A    between atoms: N1_13  and  C9_16 
ROOT
ATOM      1  C1  NHT d           6.119 -12.032   4.277  0.00  0.00     0.114 C 
ATOM      2  C2  NHT d           7.569 -11.820   3.881  0.00  0.00     0.096 C 
ATOM      3  C3  NHT d           7.491 -10.715   2.793  0.00  0.00     0.087 C 
ATOM      4  C4  NHT d           6.417 -11.014   1.709  0.00  0.00     0.089 C 
ATOM      5  C5  NHT d           5.053 -11.101   2.379  0.00  0.00     0.087 C 
ATOM      6  C7  NHT d           7.439 -10.603   5.970  0.00  0.00     0.160 C 
ATOM      7  N2  NHT d           8.193 -11.133   5.036  0.00  0.00    -0.256 NA
ATOM      8  O5  NHT d           5.142 -12.193   3.260  0.00  0.00    -0.363 OA
ATOM      9  S1  NHT d           5.728 -11.007   5.694  0.00  0.00    -0.058 SA
ATOM     10  H1  NHT d           6.135 -13.043   4.709  0.00  0.00     0.104 H 
ATOM     11  H2  NHT d           8.091 -12.736   3.567  0.00  0.00     0.085 H 
ATOM     12  H3  NHT d           7.174  -9.800   3.314  0.00  0.00     0.090 H 
ATOM     13  H4  NHT d           6.662 -11.966   1.216  0.00  0.00     0.091 H 
ATOM     14  H5  NHT d           4.850 -10.165   2.918  0.00  0.00     0.090 H 
ENDROOT
BRANCH   6  15
ATOM     15  N1  NHT d           7.886  -9.921   7.004  0.00  0.00    -0.370 N 
ATOM     16  H13 NHT d           8.899  -9.774   7.117  0.00  0.00     0.161 HD
BRANCH  15  17
ATOM     17  C9  NHT d           6.962  -9.368   7.992  0.00  0.00    -0.009 C 
ATOM     18  H15 NHT d           6.366  -8.579   7.511  0.00  0.00     0.063 H 
ATOM     19  H16 NHT d           6.295 -10.173   8.337  0.00  0.00     0.063 H 
BRANCH  17  20
ATOM     20  C10 NHT d           7.666  -8.775   9.198  0.00  0.00    -0.061 C 
ATOM     21  H8  NHT d           6.918  -8.378   9.901  0.00  0.00     0.029 H 
ATOM     22  H9  NHT d           8.331  -7.961   8.871  0.00  0.00     0.029 H 
ATOM     23  H10 NHT d           8.259  -9.555   9.696  0.00  0.00     0.029 H 
ENDBRANCH  17  20
ENDBRANCH  15  17
ENDBRANCH   6  15
BRANCH   3  24
ATOM     24  O3  NHT d           8.748 -10.412   2.162  0.00  0.00    -0.391 OA
ATOM     25  H11 NHT d           8.644  -9.651   1.603  0.00  0.00     0.210 HD
ENDBRANCH   3  24
BRANCH   4  26
ATOM     26  O4  NHT d           6.319  -9.969   0.719  0.00  0.00    -0.390 OA
ATOM     27  H12 NHT d           7.153  -9.879   0.273  0.00  0.00     0.210 HD
ENDBRANCH   4  26
BRANCH   5  28
ATOM     28  C6  NHT d           3.877 -11.417   1.448  0.00  0.00     0.043 C 
ATOM     29  H6  NHT d           3.775 -10.618   0.700  0.00  0.00     0.078 H 
ATOM     30  H7  NHT d           2.950 -11.490   2.037  0.00  0.00     0.078 H 
BRANCH  28  31
ATOM     31  O6  NHT d           4.125 -12.658   0.793  0.00  0.00    -0.398 OA
ATOM     32  H14 NHT d           4.214 -13.346   1.442  0.00  0.00     0.209 HD
ENDBRANCH  28  31
ENDBRANCH   5  28
TORSDOF 7
ENDMDL
