MODEL 1
REMARK VINA RESULT:      -7.1      0.000      0.000
REMARK  7 active torsions:
REMARK  status: ('A' for Active; 'I' for Inactive)
REMARK    1  A    between atoms: C3_3  and  O3_10 
REMARK    2  A    between atoms: C4_4  and  O4_11 
REMARK    3  A    between atoms: C5_5  and  C6_6 
REMARK    4  A    between atoms: C6_6  and  O6_14 
REMARK    5  A    between atoms: N1_13  and  C7_7 
REMARK    6  A    between atoms: C9_16  and  C10_8 
REMARK    7  A    between atoms: N1_13  and  C9_16 
ROOT
ATOM      1  C1  NHT d           6.118 -12.015   4.316  0.00  0.00     0.114 C 
ATOM      2  C2  NHT d           7.560 -11.789   3.901  0.00  0.00     0.096 C 
ATOM      3  C3  NHT d           7.454 -10.701   2.799  0.00  0.00     0.087 C 
ATOM      4  C4  NHT d           6.372 -11.030   1.731  0.00  0.00     0.089 C 
ATOM      5  C5  NHT d           5.017 -11.128   2.417  0.00  0.00     0.087 C 
ATOM      6  C7  NHT d           7.435 -10.543   5.973  0.00  0.00     0.160 C 
ATOM      7  N2  NHT d           8.187 -11.076   5.039  0.00  0.00    -0.256 NA
ATOM      8  O5  NHT d           5.132 -12.205   3.312  0.00  0.00    -0.363 OA
ATOM      9  S1  NHT d           5.727 -10.975   5.723  0.00  0.00    -0.058 SA
ATOM     10  H1  NHT d           6.153 -13.019   4.763  0.00  0.00     0.104 H 
ATOM     11  H2  NHT d           8.091 -12.702   3.594  0.00  0.00     0.085 H 
ATOM     12  H3  NHT d           7.128  -9.783   3.309  0.00  0.00     0.090 H 
ATOM     13  H4  NHT d           6.625 -11.986   1.248  0.00  0.00     0.091 H 
ATOM     14  H5  NHT d           4.806 -10.187   2.945  0.00  0.00     0.090 H 
ENDROOT
BRANCH   6  15
ATOM     15  N1  NHT d           7.883  -9.839   6.992  0.00  0.00    -0.370 N 
ATOM     16  H13 NHT d           8.886  -9.612   7.051  0.00  0.00     0.161 HD
BRANCH  15  17
ATOM     17  C9  NHT d           6.975  -9.378   8.040  0.00  0.00    -0.009 C 
ATOM     18  H15 NHT d           6.292  -8.632   7.608  0.00  0.00     0.063 H 
ATOM     19  H16 NHT d           6.395 -10.238   8.406  0.00  0.00     0.063 H 
BRANCH  17  20
ATOM     20  C10 NHT d           7.697  -8.748   9.217  0.00  0.00    -0.061 C 
ATOM     21  H8  NHT d           7.914  -7.693   8.991  0.00  0.00     0.029 H 
ATOM     22  H9  NHT d           8.640  -9.285   9.399  0.00  0.00     0.029 H 
ATOM     23  H10 NHT d           7.061  -8.808  10.112  0.00  0.00     0.029 H 
ENDBRANCH  17  20
ENDBRANCH  15  17
ENDBRANCH   6  15
BRANCH   3  24
ATOM     24  O3  NHT d           8.698 -10.389   2.149  0.00  0.00    -0.391 OA
ATOM     25  H11 NHT d           8.564 -10.356   1.209  0.00  0.00     0.210 HD
ENDBRANCH   3  24
BRANCH   4  26
ATOM     26  O4  NHT d           6.248 -10.002   0.727  0.00  0.00    -0.390 OA
ATOM     27  H12 NHT d           5.568  -9.391   0.984  0.00  0.00     0.210 HD
ENDBRANCH   4  26
BRANCH   5  28
ATOM     28  C6  NHT d           3.836 -11.474   1.504  0.00  0.00     0.043 C 
ATOM     29  H6  NHT d           3.605 -10.615   0.859  0.00  0.00     0.078 H 
ATOM     30  H7  NHT d           2.956 -11.720   2.117  0.00  0.00     0.078 H 
BRANCH  28  31
ATOM     31  O6  NHT d           4.186 -12.597   0.699  0.00  0.00    -0.398 OA
ATOM     32  H14 NHT d           5.130 -12.632   0.600  0.00  0.00     0.209 HD
ENDBRANCH  28  31
ENDBRANCH   5  28
TORSDOF 7
ENDMDL
