MODEL 1
REMARK VINA RESULT:      -7.8      0.000      0.000
REMARK  11 active torsions:
REMARK  status: ('A' for Active; 'I' for Inactive)
REMARK    1  A    between atoms: C2_1  and  C1_2 
REMARK    2  A    between atoms: C1_2  and  C3_3 
REMARK    3  A    between atoms: C3_3  and  C4_4 
REMARK       I    between atoms: C4_4  and  N1_6 
REMARK    4  A    between atoms: N1_6  and  C5_7 
REMARK    5  A    between atoms: C6_8  and  O2_9 
REMARK    6  A    between atoms: C7_10  and  O3_11 
REMARK    7  A    between atoms: C8_12  and  C9_13 
REMARK    8  A    between atoms: C9_13  and  O4_14 
REMARK    9  A    between atoms: N2_17  and  O6_18 
REMARK   10  A    between atoms: O6_18  and  C11_19 
REMARK       I    between atoms: C11_19  and  N3_21 
REMARK   11  A    between atoms: N3_21  and  C12_22 
ROOT
ATOM      1  C5  NP6 d          -8.161 -12.318   8.035  0.00  0.00     0.105 C 
ATOM      2  C6  NP6 d          -8.958 -11.906   9.286  0.00  0.00     0.089 C 
ATOM      3  C7  NP6 d          -8.091 -11.105  10.244  0.00  0.00     0.090 C 
ATOM      4  C8  NP6 d          -7.664  -9.822   9.535  0.00  0.00     0.094 C 
ATOM      5  O5  NP6 d          -6.887 -10.123   8.383  0.00  0.00    -0.324 OA
ATOM      6  C10 NP6 d          -6.971 -11.363   7.800  0.00  0.00     0.194 C 
ATOM      7  N2  NP6 d          -5.949 -11.733   7.029  0.00  0.00    -0.100 NA
ATOM      8  H9  NP6 d          -7.742 -13.316   8.227  0.00  0.00     0.090 H 
ATOM      9  H10 NP6 d          -9.809 -11.282   8.975  0.00  0.00     0.090 H 
ATOM     10  H12 NP6 d          -7.210 -11.695  10.536  0.00  0.00     0.091 H 
ATOM     11  H14 NP6 d          -8.586  -9.314   9.217  0.00  0.00     0.091 H 
ENDROOT
BRANCH   1  12
ATOM     12  N1  NP6 d          -9.049 -12.440   6.840  0.00  0.00    -0.346 N 
ATOM     13  C4  NP6 d          -9.953 -13.407   6.628  0.00  0.00     0.218 C 
ATOM     14  O1  NP6 d         -10.176 -14.341   7.406  0.00  0.00    -0.274 OA
ATOM     15  H8  NP6 d          -8.961 -11.738   6.134  0.00  0.00     0.163 HD
BRANCH  13  16
ATOM     16  C3  NP6 d         -10.720 -13.294   5.292  0.00  0.00     0.009 C 
ATOM     17  H6  NP6 d         -10.211 -13.892   4.522  0.00  0.00     0.047 H 
ATOM     18  H7  NP6 d         -11.747 -13.663   5.423  0.00  0.00     0.047 H 
BRANCH  16  19
ATOM     19  C1  NP6 d         -10.754 -11.835   4.865  0.00  0.00    -0.061 C 
ATOM     20  H4  NP6 d         -11.077 -11.224   5.720  0.00  0.00     0.033 H 
ATOM     21  H5  NP6 d          -9.741 -11.533   4.560  0.00  0.00     0.033 H 
BRANCH  19  22
ATOM     22  C2  NP6 d         -11.707 -11.589   3.702  0.00  0.00    -0.076 C 
ATOM     23  H1  NP6 d         -11.868 -10.507   3.583  0.00  0.00     0.027 H 
ATOM     24  H2  NP6 d         -12.669 -12.083   3.904  0.00  0.00     0.027 H 
ATOM     25  H3  NP6 d         -11.273 -11.998   2.778  0.00  0.00     0.027 H 
ENDBRANCH  19  22
ENDBRANCH  16  19
ENDBRANCH  13  16
ENDBRANCH   1  12
BRANCH   7  26
ATOM     26  O6  NP6 d          -4.880 -10.880   6.879  0.00  0.00    -0.153 OA
BRANCH  26  27
ATOM     27  C11 NP6 d          -3.894 -11.040   7.838  0.00  0.00     0.389 C 
ATOM     28  O7  NP6 d          -3.172 -12.044   7.812  0.00  0.00    -0.236 OA
ATOM     29  N3  NP6 d          -3.762 -10.057   8.761  0.00  0.00    -0.301 N 
ATOM     30  H18 NP6 d          -4.348  -9.259   8.618  0.00  0.00     0.171 HD
BRANCH  29  31
ATOM     31  C12 NP6 d          -2.955  -9.989   9.849  0.00  0.00     0.036 A 
ATOM     32  C13 NP6 d          -3.551 -10.063  11.113  0.00  0.00    -0.057 A 
ATOM     33  C14 NP6 d          -2.788 -10.023  12.285  0.00  0.00    -0.081 A 
ATOM     34  H19 NP6 d          -4.630 -10.152  11.186  0.00  0.00     0.086 H 
ATOM     35  C15 NP6 d          -1.395  -9.916  12.204  0.00  0.00    -0.083 A 
ATOM     36  H20 NP6 d          -3.274 -10.074  13.252  0.00  0.00     0.083 H 
ATOM     37  C16 NP6 d          -0.784  -9.864  10.950  0.00  0.00    -0.081 A 
ATOM     38  H21 NP6 d          -0.796  -9.874  13.107  0.00  0.00     0.083 H 
ATOM     39  C17 NP6 d          -1.557  -9.902   9.781  0.00  0.00    -0.057 A 
ATOM     40  H22 NP6 d           0.295  -9.795  10.879  0.00  0.00     0.083 H 
ATOM     41  H23 NP6 d          -1.068  -9.863   8.814  0.00  0.00     0.086 H 
ENDBRANCH  29  31
ENDBRANCH  26  27
ENDBRANCH   7  26
BRANCH   2  42
ATOM     42  O2  NP6 d          -9.449 -13.067   9.936  0.00  0.00    -0.390 OA
ATOM     43  H11 NP6 d          -8.738 -13.495  10.397  0.00  0.00     0.210 HD
ENDBRANCH   2  42
BRANCH   4  44
ATOM     44  C9  NP6 d          -6.838  -8.813  10.370  0.00  0.00     0.044 C 
ATOM     45  H15 NP6 d          -6.474  -8.011   9.710  0.00  0.00     0.078 H 
ATOM     46  H16 NP6 d          -5.980  -9.334  10.820  0.00  0.00     0.078 H 
BRANCH  44  47
ATOM     47  O4  NP6 d          -7.630  -8.242  11.403  0.00  0.00    -0.398 OA
ATOM     48  H17 NP6 d          -8.517  -8.580  11.345  0.00  0.00     0.209 HD
ENDBRANCH  44  47
ENDBRANCH   4  44
BRANCH   3  49
ATOM     49  O3  NP6 d          -8.840 -10.734  11.409  0.00  0.00    -0.390 OA
ATOM     50  H13 NP6 d          -8.243 -10.556  12.126  0.00  0.00     0.210 HD
ENDBRANCH   3  49
TORSDOF 11
ENDMDL
MODEL 2
REMARK VINA RESULT:      -7.3      2.895      4.349
REMARK  11 active torsions:
REMARK  status: ('A' for Active; 'I' for Inactive)
REMARK    1  A    between atoms: C2_1  and  C1_2 
REMARK    2  A    between atoms: C1_2  and  C3_3 
REMARK    3  A    between atoms: C3_3  and  C4_4 
REMARK       I    between atoms: C4_4  and  N1_6 
REMARK    4  A    between atoms: N1_6  and  C5_7 
REMARK    5  A    between atoms: C6_8  and  O2_9 
REMARK    6  A    between atoms: C7_10  and  O3_11 
REMARK    7  A    between atoms: C8_12  and  C9_13 
REMARK    8  A    between atoms: C9_13  and  O4_14 
REMARK    9  A    between atoms: N2_17  and  O6_18 
REMARK   10  A    between atoms: O6_18  and  C11_19 
REMARK       I    between atoms: C11_19  and  N3_21 
REMARK   11  A    between atoms: N3_21  and  C12_22 
ROOT
ATOM      1  C5  NP6 d          -8.269 -12.110   8.622  0.00  0.00     0.105 C 
ATOM      2  C6  NP6 d          -8.909 -10.896   9.320  0.00  0.00     0.089 C 
ATOM      3  C7  NP6 d          -7.942 -10.267  10.310  0.00  0.00     0.090 C 
ATOM      4  C8  NP6 d          -6.732  -9.757   9.530  0.00  0.00     0.094 C 
ATOM      5  O5  NP6 d          -6.064 -10.833   8.885  0.00  0.00    -0.324 OA
ATOM      6  C10 NP6 d          -6.729 -12.010   8.642  0.00  0.00     0.194 C 
ATOM      7  N2  NP6 d          -5.977 -13.093   8.446  0.00  0.00    -0.100 NA
ATOM      8  H9  NP6 d          -8.542 -13.004   9.203  0.00  0.00     0.090 H 
ATOM      9  H10 NP6 d          -9.171 -10.147   8.559  0.00  0.00     0.090 H 
ATOM     10  H12 NP6 d          -7.632 -11.011  11.058  0.00  0.00     0.091 H 
ATOM     11  H14 NP6 d          -7.116  -9.069   8.763  0.00  0.00     0.091 H 
ENDROOT
BRANCH   1  12
ATOM     12  N1  NP6 d          -8.819 -12.299   7.246  0.00  0.00    -0.346 N 
ATOM     13  C4  NP6 d          -9.720 -13.222   6.880  0.00  0.00     0.218 C 
ATOM     14  O1  NP6 d         -10.223 -14.052   7.644  0.00  0.00    -0.274 OA
ATOM     15  H8  NP6 d          -8.485 -11.682   6.534  0.00  0.00     0.163 HD
BRANCH  13  16
ATOM     16  C3  NP6 d         -10.095 -13.200   5.382  0.00  0.00     0.009 C 
ATOM     17  H6  NP6 d          -9.217 -13.470   4.777  0.00  0.00     0.047 H 
ATOM     18  H7  NP6 d         -10.905 -13.919   5.193  0.00  0.00     0.047 H 
BRANCH  16  19
ATOM     19  C1  NP6 d         -10.560 -11.801   5.010  0.00  0.00    -0.061 C 
ATOM     20  H4  NP6 d         -11.011 -11.331   5.896  0.00  0.00     0.033 H 
ATOM     21  H5  NP6 d          -9.687 -11.213   4.688  0.00  0.00     0.033 H 
BRANCH  19  22
ATOM     22  C2  NP6 d         -11.586 -11.806   3.884  0.00  0.00    -0.076 C 
ATOM     23  H1  NP6 d         -12.504 -11.301   4.222  0.00  0.00     0.027 H 
ATOM     24  H2  NP6 d         -11.820 -12.844   3.605  0.00  0.00     0.027 H 
ATOM     25  H3  NP6 d         -11.177 -11.275   3.011  0.00  0.00     0.027 H 
ENDBRANCH  19  22
ENDBRANCH  16  19
ENDBRANCH  13  16
ENDBRANCH   1  12
BRANCH   7  26
ATOM     26  O6  NP6 d          -4.608 -12.981   8.520  0.00  0.00    -0.153 OA
BRANCH  26  27
ATOM     27  C11 NP6 d          -3.979 -12.960   7.287  0.00  0.00     0.389 C 
ATOM     28  O7  NP6 d          -3.650 -11.879   6.785  0.00  0.00    -0.236 OA
ATOM     29  N3  NP6 d          -3.735 -14.155   6.695  0.00  0.00    -0.301 N 
ATOM     30  H18 NP6 d          -3.970 -14.956   7.245  0.00  0.00     0.171 HD
BRANCH  29  31
ATOM     31  C12 NP6 d          -3.221 -14.429   5.470  0.00  0.00     0.036 A 
ATOM     32  C13 NP6 d          -1.878 -14.113   5.237  0.00  0.00    -0.057 A 
ATOM     33  C14 NP6 d          -1.265 -14.384   4.008  0.00  0.00    -0.081 A 
ATOM     34  H19 NP6 d          -1.299 -13.646   6.026  0.00  0.00     0.086 H 
ATOM     35  C15 NP6 d          -2.000 -14.994   2.985  0.00  0.00    -0.083 A 
ATOM     36  H20 NP6 d          -0.226 -14.122   3.850  0.00  0.00     0.083 H 
ATOM     37  C16 NP6 d          -3.335 -15.336   3.211  0.00  0.00    -0.081 A 
ATOM     38  H21 NP6 d          -1.537 -15.198   2.026  0.00  0.00     0.083 H 
ATOM     39  C17 NP6 d          -3.940 -15.058   4.444  0.00  0.00    -0.057 A 
ATOM     40  H22 NP6 d          -3.906 -15.821   2.428  0.00  0.00     0.083 H 
ATOM     41  H23 NP6 d          -4.977 -15.331   4.605  0.00  0.00     0.086 H 
ENDBRANCH  29  31
ENDBRANCH  26  27
ENDBRANCH   7  26
BRANCH   2  42
ATOM     42  O2  NP6 d         -10.088 -11.305   9.992  0.00  0.00    -0.390 OA
ATOM     43  H11 NP6 d         -10.218 -10.762  10.760  0.00  0.00     0.210 HD
ENDBRANCH   2  42
BRANCH   4  44
ATOM     44  C9  NP6 d          -5.655  -8.997  10.343  0.00  0.00     0.044 C 
ATOM     45  H15 NP6 d          -6.075  -8.043  10.694  0.00  0.00     0.078 H 
ATOM     46  H16 NP6 d          -4.788  -8.800   9.697  0.00  0.00     0.078 H 
BRANCH  44  47
ATOM     47  O4  NP6 d          -5.235  -9.761  11.467  0.00  0.00    -0.398 OA
ATOM     48  H17 NP6 d          -5.900 -10.409  11.674  0.00  0.00     0.209 HD
ENDBRANCH  44  47
ENDBRANCH   4  44
BRANCH   3  49
ATOM     49  O3  NP6 d          -8.550  -9.142  10.960  0.00  0.00    -0.390 OA
ATOM     50  H13 NP6 d          -7.907  -8.708  11.508  0.00  0.00     0.210 HD
ENDBRANCH   3  49
TORSDOF 11
ENDMDL
MODEL 3
REMARK VINA RESULT:      -7.1      1.788      7.396
REMARK  11 active torsions:
REMARK  status: ('A' for Active; 'I' for Inactive)
REMARK    1  A    between atoms: C2_1  and  C1_2 
REMARK    2  A    between atoms: C1_2  and  C3_3 
REMARK    3  A    between atoms: C3_3  and  C4_4 
REMARK       I    between atoms: C4_4  and  N1_6 
REMARK    4  A    between atoms: N1_6  and  C5_7 
REMARK    5  A    between atoms: C6_8  and  O2_9 
REMARK    6  A    between atoms: C7_10  and  O3_11 
REMARK    7  A    between atoms: C8_12  and  C9_13 
REMARK    8  A    between atoms: C9_13  and  O4_14 
REMARK    9  A    between atoms: N2_17  and  O6_18 
REMARK   10  A    between atoms: O6_18  and  C11_19 
REMARK       I    between atoms: C11_19  and  N3_21 
REMARK   11  A    between atoms: N3_21  and  C12_22 
ROOT
ATOM      1  C5  NP6 d          -4.846 -10.053   9.753  0.00  0.00     0.105 C 
ATOM      2  C6  NP6 d          -5.771  -9.025  10.429  0.00  0.00     0.089 C 
ATOM      3  C7  NP6 d          -7.232  -9.395  10.230  0.00  0.00     0.090 C 
ATOM      4  C8  NP6 d          -7.476 -10.741  10.908  0.00  0.00     0.094 C 
ATOM      5  O5  NP6 d          -6.679 -11.754  10.309  0.00  0.00    -0.324 OA
ATOM      6  C10 NP6 d          -5.556 -11.415   9.595  0.00  0.00     0.194 C 
ATOM      7  N2  NP6 d          -5.107 -12.315   8.722  0.00  0.00    -0.100 NA
ATOM      8  H9  NP6 d          -4.630  -9.682   8.740  0.00  0.00     0.090 H 
ATOM      9  H10 NP6 d          -5.556  -9.009  11.508  0.00  0.00     0.090 H 
ATOM     10  H12 NP6 d          -7.461  -9.458   9.156  0.00  0.00     0.091 H 
ATOM     11  H14 NP6 d          -7.171 -10.627  11.959  0.00  0.00     0.091 H 
ENDROOT
BRANCH   1  12
ATOM     12  N1  NP6 d          -3.538 -10.161  10.467  0.00  0.00    -0.346 N 
ATOM     13  C4  NP6 d          -2.327 -10.133   9.895  0.00  0.00     0.218 C 
ATOM     14  O1  NP6 d          -2.126 -10.013   8.682  0.00  0.00    -0.274 OA
ATOM     15  H8  NP6 d          -3.570 -10.263  11.461  0.00  0.00     0.163 HD
BRANCH  13  16
ATOM     16  C3  NP6 d          -1.145 -10.285  10.878  0.00  0.00     0.009 C 
ATOM     17  H6  NP6 d          -1.275 -11.201  11.474  0.00  0.00     0.047 H 
ATOM     18  H7  NP6 d          -0.202 -10.346  10.315  0.00  0.00     0.047 H 
BRANCH  16  19
ATOM     19  C1  NP6 d          -1.110  -9.077  11.800  0.00  0.00    -0.061 C 
ATOM     20  H4  NP6 d          -2.137  -8.708  11.936  0.00  0.00     0.033 H 
ATOM     21  H5  NP6 d          -0.701  -9.387  12.773  0.00  0.00     0.033 H 
BRANCH  19  22
ATOM     22  C2  NP6 d          -0.253  -7.945  11.248  0.00  0.00    -0.076 C 
ATOM     23  H1  NP6 d           0.762  -8.319  11.046  0.00  0.00     0.027 H 
ATOM     24  H2  NP6 d          -0.204  -7.129  11.985  0.00  0.00     0.027 H 
ATOM     25  H3  NP6 d          -0.698  -7.569  10.315  0.00  0.00     0.027 H 
ENDBRANCH  19  22
ENDBRANCH  16  19
ENDBRANCH  13  16
ENDBRANCH   1  12
BRANCH   7  26
ATOM     26  O6  NP6 d          -5.790 -13.499   8.569  0.00  0.00    -0.153 OA
BRANCH  26  27
ATOM     27  C11 NP6 d          -6.688 -13.498   7.515  0.00  0.00     0.389 C 
ATOM     28  O7  NP6 d          -6.436 -14.150   6.495  0.00  0.00    -0.236 OA
ATOM     29  N3  NP6 d          -7.828 -12.782   7.672  0.00  0.00    -0.301 N 
ATOM     30  H18 NP6 d          -7.951 -12.373   8.576  0.00  0.00     0.171 HD
BRANCH  29  31
ATOM     31  C12 NP6 d          -8.827 -12.534   6.789  0.00  0.00     0.036 A 
ATOM     32  C13 NP6 d          -9.066 -11.204   6.426  0.00  0.00    -0.057 A 
ATOM     33  C14 NP6 d         -10.064 -10.866   5.504  0.00  0.00    -0.081 A 
ATOM     34  H19 NP6 d          -8.465 -10.417   6.868  0.00  0.00     0.086 H 
ATOM     35  C15 NP6 d         -10.840 -11.872   4.919  0.00  0.00    -0.083 A 
ATOM     36  H20 NP6 d         -10.235  -9.827   5.244  0.00  0.00     0.083 H 
ATOM     37  C16 NP6 d         -10.598 -13.206   5.254  0.00  0.00    -0.081 A 
ATOM     38  H21 NP6 d         -11.622 -11.619   4.212  0.00  0.00     0.083 H 
ATOM     39  C17 NP6 d          -9.599 -13.535   6.181  0.00  0.00    -0.057 A 
ATOM     40  H22 NP6 d         -11.186 -13.992   4.795  0.00  0.00     0.083 H 
ATOM     41  H23 NP6 d          -9.421 -14.575   6.430  0.00  0.00     0.086 H 
ENDBRANCH  29  31
ENDBRANCH  26  27
ENDBRANCH   7  26
BRANCH   2  42
ATOM     42  O2  NP6 d          -5.522  -7.738   9.889  0.00  0.00    -0.390 OA
ATOM     43  H11 NP6 d          -5.108  -7.827   9.039  0.00  0.00     0.210 HD
ENDBRANCH   2  42
BRANCH   4  44
ATOM     44  C9  NP6 d          -8.933 -11.266  10.899  0.00  0.00     0.044 C 
ATOM     45  H15 NP6 d          -9.442 -10.933  11.815  0.00  0.00     0.078 H 
ATOM     46  H16 NP6 d          -8.919 -12.365  10.866  0.00  0.00     0.078 H 
BRANCH  44  47
ATOM     47  O4  NP6 d          -9.641 -10.775   9.768  0.00  0.00    -0.398 OA
ATOM     48  H17 NP6 d          -9.075 -10.200   9.266  0.00  0.00     0.209 HD
ENDBRANCH  44  47
ENDBRANCH   4  44
BRANCH   3  49
ATOM     49  O3  NP6 d          -8.086  -8.427  10.857  0.00  0.00    -0.390 OA
ATOM     50  H13 NP6 d          -7.557  -7.718  11.204  0.00  0.00     0.210 HD
ENDBRANCH   3  49
TORSDOF 11
ENDMDL
MODEL 4
REMARK VINA RESULT:      -7.0      2.414      7.509
REMARK  11 active torsions:
REMARK  status: ('A' for Active; 'I' for Inactive)
REMARK    1  A    between atoms: C2_1  and  C1_2 
REMARK    2  A    between atoms: C1_2  and  C3_3 
REMARK    3  A    between atoms: C3_3  and  C4_4 
REMARK       I    between atoms: C4_4  and  N1_6 
REMARK    4  A    between atoms: N1_6  and  C5_7 
REMARK    5  A    between atoms: C6_8  and  O2_9 
REMARK    6  A    between atoms: C7_10  and  O3_11 
REMARK    7  A    between atoms: C8_12  and  C9_13 
REMARK    8  A    between atoms: C9_13  and  O4_14 
REMARK    9  A    between atoms: N2_17  and  O6_18 
REMARK   10  A    between atoms: O6_18  and  C11_19 
REMARK       I    between atoms: C11_19  and  N3_21 
REMARK   11  A    between atoms: N3_21  and  C12_22 
ROOT
ATOM      1  C5  NP6 d          -4.078 -11.631   9.527  0.00  0.00     0.105 C 
ATOM      2  C6  NP6 d          -4.289 -10.140   9.845  0.00  0.00     0.089 C 
ATOM      3  C7  NP6 d          -5.666  -9.678   9.397  0.00  0.00     0.090 C 
ATOM      4  C8  NP6 d          -6.709 -10.464  10.189  0.00  0.00     0.094 C 
ATOM      5  O5  NP6 d          -6.600 -11.854   9.916  0.00  0.00    -0.324 OA
ATOM      6  C10 NP6 d          -5.430 -12.368   9.414  0.00  0.00     0.194 C 
ATOM      7  N2  NP6 d          -5.511 -13.541   8.786  0.00  0.00    -0.100 NA
ATOM      8  H9  NP6 d          -3.594 -11.691   8.541  0.00  0.00     0.090 H 
ATOM      9  H10 NP6 d          -4.204  -9.995  10.933  0.00  0.00     0.090 H 
ATOM     10  H12 NP6 d          -5.789  -9.854   8.319  0.00  0.00     0.091 H 
ATOM     11  H14 NP6 d          -6.492 -10.295  11.254  0.00  0.00     0.091 H 
ENDROOT
BRANCH   1  12
ATOM     12  N1  NP6 d          -3.150 -12.272  10.507  0.00  0.00    -0.346 N 
ATOM     13  C4  NP6 d          -1.863 -12.575  10.287  0.00  0.00     0.218 C 
ATOM     14  O1  NP6 d          -1.263 -12.363   9.229  0.00  0.00    -0.274 OA
ATOM     15  H8  NP6 d          -3.522 -12.493  11.408  0.00  0.00     0.163 HD
BRANCH  13  16
ATOM     16  C3  NP6 d          -1.147 -13.252  11.477  0.00  0.00     0.009 C 
ATOM     17  H6  NP6 d          -0.434 -14.001  11.102  0.00  0.00     0.047 H 
ATOM     18  H7  NP6 d          -0.606 -12.493  12.062  0.00  0.00     0.047 H 
BRANCH  16  19
ATOM     19  C1  NP6 d          -2.184 -13.930  12.357  0.00  0.00    -0.061 C 
ATOM     20  H4  NP6 d          -1.885 -13.814  13.409  0.00  0.00     0.033 H 
ATOM     21  H5  NP6 d          -3.156 -13.442  12.196  0.00  0.00     0.033 H 
BRANCH  19  22
ATOM     22  C2  NP6 d          -2.328 -15.416  12.052  0.00  0.00    -0.076 C 
ATOM     23  H1  NP6 d          -1.510 -15.735  11.388  0.00  0.00     0.027 H 
ATOM     24  H2  NP6 d          -3.294 -15.598  11.559  0.00  0.00     0.027 H 
ATOM     25  H3  NP6 d          -2.282 -15.989  12.990  0.00  0.00     0.027 H 
ENDBRANCH  19  22
ENDBRANCH  16  19
ENDBRANCH  13  16
ENDBRANCH   1  12
BRANCH   7  26
ATOM     26  O6  NP6 d          -6.738 -14.149   8.659  0.00  0.00    -0.153 OA
BRANCH  26  27
ATOM     27  C11 NP6 d          -7.393 -13.852   7.476  0.00  0.00     0.389 C 
ATOM     28  O7  NP6 d          -6.920 -14.236   6.400  0.00  0.00    -0.236 OA
ATOM     29  N3  NP6 d          -8.553 -13.156   7.568  0.00  0.00    -0.301 N 
ATOM     30  H18 NP6 d          -8.871 -12.982   8.500  0.00  0.00     0.171 HD
BRANCH  29  31
ATOM     31  C12 NP6 d          -9.347 -12.658   6.587  0.00  0.00     0.036 A 
ATOM     32  C13 NP6 d         -10.149 -13.557   5.875  0.00  0.00    -0.057 A 
ATOM     33  C14 NP6 d         -11.014 -13.123   4.864  0.00  0.00    -0.081 A 
ATOM     34  H19 NP6 d         -10.100 -14.614   6.111  0.00  0.00     0.086 H 
ATOM     35  C15 NP6 d         -11.094 -11.760   4.555  0.00  0.00    -0.083 A 
ATOM     36  H20 NP6 d         -11.619 -13.839   4.321  0.00  0.00     0.083 H 
ATOM     37  C16 NP6 d         -10.316 -10.849   5.273  0.00  0.00    -0.081 A 
ATOM     38  H21 NP6 d         -11.753 -11.415   3.766  0.00  0.00     0.083 H 
ATOM     39  C17 NP6 d          -9.451 -11.294   6.282  0.00  0.00    -0.057 A 
ATOM     40  H22 NP6 d         -10.383  -9.791   5.049  0.00  0.00     0.083 H 
ATOM     41  H23 NP6 d          -8.855 -10.575   6.832  0.00  0.00     0.086 H 
ENDBRANCH  29  31
ENDBRANCH  26  27
ENDBRANCH   7  26
BRANCH   2  42
ATOM     42  O2  NP6 d          -3.289  -9.372   9.197  0.00  0.00    -0.390 OA
ATOM     43  H11 NP6 d          -2.721  -8.979   9.849  0.00  0.00     0.210 HD
ENDBRANCH   2  42
BRANCH   4  44
ATOM     44  C9  NP6 d          -8.191 -10.085   9.948  0.00  0.00     0.044 C 
ATOM     45  H15 NP6 d          -8.833 -10.922  10.257  0.00  0.00     0.078 H 
ATOM     46  H16 NP6 d          -8.342  -9.884   8.877  0.00  0.00     0.078 H 
BRANCH  44  47
ATOM     47  O4  NP6 d          -8.545  -8.926  10.693  0.00  0.00    -0.398 OA
ATOM     48  H17 NP6 d          -7.790  -8.623  11.184  0.00  0.00     0.209 HD
ENDBRANCH  44  47
ENDBRANCH   4  44
BRANCH   3  49
ATOM     49  O3  NP6 d          -5.849  -8.286   9.692  0.00  0.00    -0.390 OA
ATOM     50  H13 NP6 d          -6.308  -8.196  10.519  0.00  0.00     0.210 HD
ENDBRANCH   3  49
TORSDOF 11
ENDMDL
MODEL 5
REMARK VINA RESULT:      -6.9      2.318      7.560
REMARK  11 active torsions:
REMARK  status: ('A' for Active; 'I' for Inactive)
REMARK    1  A    between atoms: C2_1  and  C1_2 
REMARK    2  A    between atoms: C1_2  and  C3_3 
REMARK    3  A    between atoms: C3_3  and  C4_4 
REMARK       I    between atoms: C4_4  and  N1_6 
REMARK    4  A    between atoms: N1_6  and  C5_7 
REMARK    5  A    between atoms: C6_8  and  O2_9 
REMARK    6  A    between atoms: C7_10  and  O3_11 
REMARK    7  A    between atoms: C8_12  and  C9_13 
REMARK    8  A    between atoms: C9_13  and  O4_14 
REMARK    9  A    between atoms: N2_17  and  O6_18 
REMARK   10  A    between atoms: O6_18  and  C11_19 
REMARK       I    between atoms: C11_19  and  N3_21 
REMARK   11  A    between atoms: N3_21  and  C12_22 
ROOT
ATOM      1  C5  NP6 d          -3.795 -11.686   9.099  0.00  0.00     0.105 C 
ATOM      2  C6  NP6 d          -2.504 -11.605   8.265  0.00  0.00     0.089 C 
ATOM      3  C7  NP6 d          -2.260 -12.904   7.514  0.00  0.00     0.090 C 
ATOM      4  C8  NP6 d          -3.418 -13.111   6.540  0.00  0.00     0.094 C 
ATOM      5  O5  NP6 d          -4.646 -13.233   7.244  0.00  0.00    -0.324 OA
ATOM      6  C10 NP6 d          -4.760 -12.743   8.522  0.00  0.00     0.194 C 
ATOM      7  N2  NP6 d          -5.741 -13.246   9.271  0.00  0.00    -0.100 NA
ATOM      8  H9  NP6 d          -3.514 -12.022  10.108  0.00  0.00     0.090 H 
ATOM      9  H10 NP6 d          -2.605 -10.788   7.535  0.00  0.00     0.090 H 
ATOM     10  H12 NP6 d          -2.198 -13.742   8.223  0.00  0.00     0.091 H 
ATOM     11  H14 NP6 d          -3.462 -12.215   5.905  0.00  0.00     0.091 H 
ENDROOT
BRANCH   1  12
ATOM     12  N1  NP6 d          -4.432 -10.342   9.250  0.00  0.00    -0.346 N 
ATOM     13  C4  NP6 d          -4.877  -9.808  10.395  0.00  0.00     0.218 C 
ATOM     14  O1  NP6 d          -4.821 -10.364  11.497  0.00  0.00    -0.274 OA
ATOM     15  H8  NP6 d          -4.535  -9.792   8.422  0.00  0.00     0.163 HD
BRANCH  13  16
ATOM     16  C3  NP6 d          -5.510  -8.406  10.252  0.00  0.00     0.009 C 
ATOM     17  H6  NP6 d          -5.495  -7.893  11.225  0.00  0.00     0.047 H 
ATOM     18  H7  NP6 d          -4.940  -7.817   9.518  0.00  0.00     0.047 H 
BRANCH  16  19
ATOM     19  C1  NP6 d          -6.946  -8.559   9.777  0.00  0.00    -0.061 C 
ATOM     20  H4  NP6 d          -7.201  -7.698   9.141  0.00  0.00     0.033 H 
ATOM     21  H5  NP6 d          -7.026  -9.485   9.189  0.00  0.00     0.033 H 
BRANCH  19  22
ATOM     22  C2  NP6 d          -7.940  -8.624  10.930  0.00  0.00    -0.076 C 
ATOM     23  H1  NP6 d          -7.458  -8.258  11.850  0.00  0.00     0.027 H 
ATOM     24  H2  NP6 d          -8.266  -9.664  11.075  0.00  0.00     0.027 H 
ATOM     25  H3  NP6 d          -8.812  -7.996  10.699  0.00  0.00     0.027 H 
ENDBRANCH  19  22
ENDBRANCH  16  19
ENDBRANCH  13  16
ENDBRANCH   1  12
BRANCH   7  26
ATOM     26  O6  NP6 d          -6.553 -14.223   8.744  0.00  0.00    -0.153 OA
BRANCH  26  27
ATOM     27  C11 NP6 d          -7.775 -13.756   8.293  0.00  0.00     0.389 C 
ATOM     28  O7  NP6 d          -8.771 -13.843   9.021  0.00  0.00    -0.236 OA
ATOM     29  N3  NP6 d          -7.809 -13.200   7.057  0.00  0.00    -0.301 N 
ATOM     30  H18 NP6 d          -6.920 -13.110   6.608  0.00  0.00     0.171 HD
BRANCH  29  31
ATOM     31  C12 NP6 d          -8.865 -12.747   6.336  0.00  0.00     0.036 A 
ATOM     32  C13 NP6 d          -9.094 -11.366   6.308  0.00  0.00    -0.057 A 
ATOM     33  C14 NP6 d         -10.148 -10.815   5.570  0.00  0.00    -0.081 A 
ATOM     34  H19 NP6 d          -8.441 -10.709   6.870  0.00  0.00     0.086 H 
ATOM     35  C15 NP6 d         -10.993 -11.653   4.833  0.00  0.00    -0.083 A 
ATOM     36  H20 NP6 d         -10.310  -9.744   5.570  0.00  0.00     0.083 H 
ATOM     37  C16 NP6 d         -10.762 -13.030   4.834  0.00  0.00    -0.081 A 
ATOM     38  H21 NP6 d         -11.819 -11.236   4.267  0.00  0.00     0.083 H 
ATOM     39  C17 NP6 d          -9.706 -13.573   5.578  0.00  0.00    -0.057 A 
ATOM     40  H22 NP6 d         -11.404 -13.684   4.254  0.00  0.00     0.083 H 
ATOM     41  H23 NP6 d          -9.538 -14.644   5.567  0.00  0.00     0.086 H 
ENDBRANCH  29  31
ENDBRANCH  26  27
ENDBRANCH   7  26
BRANCH   2  42
ATOM     42  O2  NP6 d          -1.406 -11.328   9.120  0.00  0.00    -0.390 OA
ATOM     43  H11 NP6 d          -1.651 -10.651   9.739  0.00  0.00     0.210 HD
ENDBRANCH   2  42
BRANCH   4  44
ATOM     44  C9  NP6 d          -3.323 -14.343   5.606  0.00  0.00     0.044 C 
ATOM     45  H15 NP6 d          -2.903 -15.190   6.168  0.00  0.00     0.078 H 
ATOM     46  H16 NP6 d          -2.664 -14.103   4.759  0.00  0.00     0.078 H 
BRANCH  44  47
ATOM     47  O4  NP6 d          -4.607 -14.703   5.111  0.00  0.00    -0.398 OA
ATOM     48  H17 NP6 d          -5.277 -14.278   5.634  0.00  0.00     0.209 HD
ENDBRANCH  44  47
ENDBRANCH   4  44
BRANCH   3  49
ATOM     49  O3  NP6 d          -1.051 -12.820   6.747  0.00  0.00    -0.390 OA
ATOM     50  H13 NP6 d          -1.264 -12.827   5.821  0.00  0.00     0.210 HD
ENDBRANCH   3  49
TORSDOF 11
ENDMDL
MODEL 6
REMARK VINA RESULT:      -6.9      1.583      2.078
REMARK  11 active torsions:
REMARK  status: ('A' for Active; 'I' for Inactive)
REMARK    1  A    between atoms: C2_1  and  C1_2 
REMARK    2  A    between atoms: C1_2  and  C3_3 
REMARK    3  A    between atoms: C3_3  and  C4_4 
REMARK       I    between atoms: C4_4  and  N1_6 
REMARK    4  A    between atoms: N1_6  and  C5_7 
REMARK    5  A    between atoms: C6_8  and  O2_9 
REMARK    6  A    between atoms: C7_10  and  O3_11 
REMARK    7  A    between atoms: C8_12  and  C9_13 
REMARK    8  A    between atoms: C9_13  and  O4_14 
REMARK    9  A    between atoms: N2_17  and  O6_18 
REMARK   10  A    between atoms: O6_18  and  C11_19 
REMARK       I    between atoms: C11_19  and  N3_21 
REMARK   11  A    between atoms: N3_21  and  C12_22 
ROOT
ATOM      1  C5  NP6 d          -8.574 -11.750   8.220  0.00  0.00     0.105 C 
ATOM      2  C6  NP6 d          -9.079 -10.698   9.223  0.00  0.00     0.089 C 
ATOM      3  C7  NP6 d          -7.923 -10.093  10.004  0.00  0.00     0.090 C 
ATOM      4  C8  NP6 d          -7.008  -9.375   9.014  0.00  0.00     0.094 C 
ATOM      5  O5  NP6 d          -6.472 -10.294   8.073  0.00  0.00    -0.324 OA
ATOM      6  C10 NP6 d          -7.097 -11.496   7.850  0.00  0.00     0.194 C 
ATOM      7  N2  NP6 d          -6.357 -12.467   7.315  0.00  0.00    -0.100 NA
ATOM      8  H9  NP6 d          -8.618 -12.728   8.720  0.00  0.00     0.090 H 
ATOM      9  H10 NP6 d          -9.588  -9.895   8.670  0.00  0.00     0.090 H 
ATOM     10  H12 NP6 d          -7.372 -10.884  10.533  0.00  0.00     0.091 H 
ATOM     11  H14 NP6 d          -7.632  -8.645   8.478  0.00  0.00     0.091 H 
ENDROOT
BRANCH   1  12
ATOM     12  N1  NP6 d          -9.465 -11.832   7.023  0.00  0.00    -0.346 N 
ATOM     13  C4  NP6 d          -9.542 -10.927   6.038  0.00  0.00     0.218 C 
ATOM     14  O1  NP6 d          -8.876  -9.888   5.986  0.00  0.00    -0.274 OA
ATOM     15  H8  NP6 d         -10.057 -12.634   6.951  0.00  0.00     0.163 HD
BRANCH  13  16
ATOM     16  C3  NP6 d         -10.567 -11.262   4.931  0.00  0.00     0.009 C 
ATOM     17  H6  NP6 d         -11.396 -10.539   4.965  0.00  0.00     0.047 H 
ATOM     18  H7  NP6 d         -10.078 -11.213   3.948  0.00  0.00     0.047 H 
BRANCH  16  19
ATOM     19  C1  NP6 d         -11.104 -12.665   5.164  0.00  0.00    -0.061 C 
ATOM     20  H4  NP6 d         -11.498 -12.727   6.189  0.00  0.00     0.033 H 
ATOM     21  H5  NP6 d         -11.916 -12.855   4.447  0.00  0.00     0.033 H 
BRANCH  19  22
ATOM     22  C2  NP6 d         -10.035 -13.737   4.987  0.00  0.00    -0.076 C 
ATOM     23  H1  NP6 d         -10.282 -14.359   4.113  0.00  0.00     0.027 H 
ATOM     24  H2  NP6 d          -9.995 -14.368   5.887  0.00  0.00     0.027 H 
ATOM     25  H3  NP6 d          -9.057 -13.258   4.831  0.00  0.00     0.027 H 
ENDBRANCH  19  22
ENDBRANCH  16  19
ENDBRANCH  13  16
ENDBRANCH   1  12
BRANCH   7  26
ATOM     26  O6  NP6 d          -5.031 -12.225   7.042  0.00  0.00    -0.153 OA
BRANCH  26  27
ATOM     27  C11 NP6 d          -4.168 -12.617   8.051  0.00  0.00     0.389 C 
ATOM     28  O7  NP6 d          -3.766 -13.786   8.094  0.00  0.00    -0.236 OA
ATOM     29  N3  NP6 d          -3.790 -11.672   8.946  0.00  0.00    -0.301 N 
ATOM     30  H18 NP6 d          -4.115 -10.747   8.749  0.00  0.00     0.171 HD
BRANCH  29  31
ATOM     31  C12 NP6 d          -3.037 -11.789  10.068  0.00  0.00     0.036 A 
ATOM     32  C13 NP6 d          -1.789 -11.155  10.089  0.00  0.00    -0.057 A 
ATOM     33  C14 NP6 d          -0.961 -11.209  11.216  0.00  0.00    -0.081 A 
ATOM     34  H19 NP6 d          -1.456 -10.611   9.212  0.00  0.00     0.086 H 
ATOM     35  C15 NP6 d          -1.383 -11.900  12.357  0.00  0.00    -0.083 A 
ATOM     36  H20 NP6 d           0.004 -10.716  11.205  0.00  0.00     0.083 H 
ATOM     37  C16 NP6 d          -2.635 -12.518  12.358  0.00  0.00    -0.081 A 
ATOM     38  H21 NP6 d          -0.744 -11.956  13.231  0.00  0.00     0.083 H 
ATOM     39  C17 NP6 d          -3.456 -12.462  11.224  0.00  0.00    -0.057 A 
ATOM     40  H22 NP6 d          -2.975 -13.044  13.243  0.00  0.00     0.083 H 
ATOM     41  H23 NP6 d          -4.427 -12.945  11.241  0.00  0.00     0.086 H 
ENDBRANCH  29  31
ENDBRANCH  26  27
ENDBRANCH   7  26
BRANCH   2  42
ATOM     42  O2  NP6 d         -10.000 -11.301  10.117  0.00  0.00    -0.390 OA
ATOM     43  H11 NP6 d          -9.666 -12.146  10.392  0.00  0.00     0.210 HD
ENDBRANCH   2  42
BRANCH   4  44
ATOM     44  C9  NP6 d          -5.804  -8.610   9.615  0.00  0.00     0.044 C 
ATOM     45  H15 NP6 d          -5.965  -7.529   9.491  0.00  0.00     0.078 H 
ATOM     46  H16 NP6 d          -4.887  -8.907   9.086  0.00  0.00     0.078 H 
BRANCH  44  47
ATOM     47  O4  NP6 d          -5.658  -8.902  11.000  0.00  0.00    -0.398 OA
ATOM     48  H17 NP6 d          -4.808  -8.598  11.298  0.00  0.00     0.209 HD
ENDBRANCH  44  47
ENDBRANCH   4  44
BRANCH   3  49
ATOM     49  O3  NP6 d          -8.404  -9.120  10.942  0.00  0.00    -0.390 OA
ATOM     50  H13 NP6 d          -7.667  -8.676  11.343  0.00  0.00     0.210 HD
ENDBRANCH   3  49
TORSDOF 11
ENDMDL
MODEL 7
REMARK VINA RESULT:      -6.8      2.839      4.558
REMARK  11 active torsions:
REMARK  status: ('A' for Active; 'I' for Inactive)
REMARK    1  A    between atoms: C2_1  and  C1_2 
REMARK    2  A    between atoms: C1_2  and  C3_3 
REMARK    3  A    between atoms: C3_3  and  C4_4 
REMARK       I    between atoms: C4_4  and  N1_6 
REMARK    4  A    between atoms: N1_6  and  C5_7 
REMARK    5  A    between atoms: C6_8  and  O2_9 
REMARK    6  A    between atoms: C7_10  and  O3_11 
REMARK    7  A    between atoms: C8_12  and  C9_13 
REMARK    8  A    between atoms: C9_13  and  O4_14 
REMARK    9  A    between atoms: N2_17  and  O6_18 
REMARK   10  A    between atoms: O6_18  and  C11_19 
REMARK       I    between atoms: C11_19  and  N3_21 
REMARK   11  A    between atoms: N3_21  and  C12_22 
ROOT
ATOM      1  C5  NP6 d          -8.381 -11.238   9.327  0.00  0.00     0.105 C 
ATOM      2  C6  NP6 d          -7.822  -9.910   9.870  0.00  0.00     0.089 C 
ATOM      3  C7  NP6 d          -6.488 -10.126  10.566  0.00  0.00     0.090 C 
ATOM      4  C8  NP6 d          -5.494 -10.648   9.531  0.00  0.00     0.094 C 
ATOM      5  O5  NP6 d          -5.926 -11.897   9.009  0.00  0.00    -0.324 OA
ATOM      6  C10 NP6 d          -7.247 -12.261   9.096  0.00  0.00     0.194 C 
ATOM      7  N2  NP6 d          -7.518 -13.562   8.999  0.00  0.00    -0.100 NA
ATOM      8  H9  NP6 d          -9.041 -11.657  10.101  0.00  0.00     0.090 H 
ATOM      9  H10 NP6 d          -7.673  -9.218   9.028  0.00  0.00     0.090 H 
ATOM     10  H12 NP6 d          -6.605 -10.849  11.387  0.00  0.00     0.091 H 
ATOM     11  H14 NP6 d          -5.472  -9.912   8.714  0.00  0.00     0.091 H 
ENDROOT
BRANCH   1  12
ATOM     12  N1  NP6 d          -9.219 -11.019   8.110  0.00  0.00    -0.346 N 
ATOM     13  C4  NP6 d          -8.764 -10.876   6.858  0.00  0.00     0.218 C 
ATOM     14  O1  NP6 d          -7.572 -10.907   6.537  0.00  0.00    -0.274 OA
ATOM     15  H8  NP6 d         -10.209 -10.976   8.242  0.00  0.00     0.163 HD
BRANCH  13  16
ATOM     16  C3  NP6 d          -9.860 -10.643   5.794  0.00  0.00     0.009 C 
ATOM     17  H6  NP6 d         -10.681 -10.057   6.232  0.00  0.00     0.047 H 
ATOM     18  H7  NP6 d          -9.435 -10.097   4.940  0.00  0.00     0.047 H 
BRANCH  16  19
ATOM     19  C1  NP6 d         -10.388 -11.990   5.326  0.00  0.00    -0.061 C 
ATOM     20  H4  NP6 d          -9.538 -12.610   5.006  0.00  0.00     0.033 H 
ATOM     21  H5  NP6 d         -10.902 -12.479   6.167  0.00  0.00     0.033 H 
BRANCH  19  22
ATOM     22  C2  NP6 d         -11.366 -11.863   4.164  0.00  0.00    -0.076 C 
ATOM     23  H1  NP6 d         -11.174 -10.923   3.625  0.00  0.00     0.027 H 
ATOM     24  H2  NP6 d         -12.396 -11.861   4.550  0.00  0.00     0.027 H 
ATOM     25  H3  NP6 d         -11.233 -12.712   3.478  0.00  0.00     0.027 H 
ENDBRANCH  19  22
ENDBRANCH  16  19
ENDBRANCH  13  16
ENDBRANCH   1  12
BRANCH   7  26
ATOM     26  O6  NP6 d          -6.482 -14.452   8.844  0.00  0.00    -0.153 OA
BRANCH  26  27
ATOM     27  C11 NP6 d          -5.886 -14.410   7.596  0.00  0.00     0.389 C 
ATOM     28  O7  NP6 d          -6.591 -14.395   6.580  0.00  0.00    -0.236 OA
ATOM     29  N3  NP6 d          -4.532 -14.366   7.556  0.00  0.00    -0.301 N 
ATOM     30  H18 NP6 d          -4.084 -14.294   8.447  0.00  0.00     0.171 HD
BRANCH  29  31
ATOM     31  C12 NP6 d          -3.691 -14.406   6.492  0.00  0.00     0.036 A 
ATOM     32  C13 NP6 d          -2.482 -13.707   6.586  0.00  0.00    -0.057 A 
ATOM     33  C14 NP6 d          -1.550 -13.716   5.542  0.00  0.00    -0.081 A 
ATOM     34  H19 NP6 d          -2.262 -13.146   7.487  0.00  0.00     0.086 H 
ATOM     35  C15 NP6 d          -1.817 -14.444   4.377  0.00  0.00    -0.083 A 
ATOM     36  H20 NP6 d          -0.624 -13.161   5.635  0.00  0.00     0.083 H 
ATOM     37  C16 NP6 d          -3.009 -15.165   4.279  0.00  0.00    -0.081 A 
ATOM     38  H21 NP6 d          -1.106 -14.449   3.559  0.00  0.00     0.083 H 
ATOM     39  C17 NP6 d          -3.938 -15.147   5.328  0.00  0.00    -0.057 A 
ATOM     40  H22 NP6 d          -3.217 -15.742   3.385  0.00  0.00     0.083 H 
ATOM     41  H23 NP6 d          -4.859 -15.714   5.238  0.00  0.00     0.086 H 
ENDBRANCH  29  31
ENDBRANCH  26  27
ENDBRANCH   7  26
BRANCH   2  42
ATOM     42  O2  NP6 d          -8.753  -9.342  10.777  0.00  0.00    -0.390 OA
ATOM     43  H11 NP6 d          -8.321  -8.673  11.294  0.00  0.00     0.210 HD
ENDBRANCH   2  42
BRANCH   4  44
ATOM     44  C9  NP6 d          -4.038 -10.854  10.015  0.00  0.00     0.044 C 
ATOM     45  H15 NP6 d          -3.998 -10.723  11.106  0.00  0.00     0.078 H 
ATOM     46  H16 NP6 d          -3.389 -10.109   9.532  0.00  0.00     0.078 H 
BRANCH  44  47
ATOM     47  O4  NP6 d          -3.575 -12.158   9.686  0.00  0.00    -0.398 OA
ATOM     48  H17 NP6 d          -2.737 -12.093   9.242  0.00  0.00     0.209 HD
ENDBRANCH  44  47
ENDBRANCH   4  44
BRANCH   3  49
ATOM     49  O3  NP6 d          -5.981  -8.884  11.075  0.00  0.00    -0.390 OA
ATOM     50  H13 NP6 d          -5.117  -9.024  11.444  0.00  0.00     0.210 HD
ENDBRANCH   3  49
TORSDOF 11
ENDMDL
MODEL 8
REMARK VINA RESULT:      -6.3      2.367      7.071
REMARK  11 active torsions:
REMARK  status: ('A' for Active; 'I' for Inactive)
REMARK    1  A    between atoms: C2_1  and  C1_2 
REMARK    2  A    between atoms: C1_2  and  C3_3 
REMARK    3  A    between atoms: C3_3  and  C4_4 
REMARK       I    between atoms: C4_4  and  N1_6 
REMARK    4  A    between atoms: N1_6  and  C5_7 
REMARK    5  A    between atoms: C6_8  and  O2_9 
REMARK    6  A    between atoms: C7_10  and  O3_11 
REMARK    7  A    between atoms: C8_12  and  C9_13 
REMARK    8  A    between atoms: C9_13  and  O4_14 
REMARK    9  A    between atoms: N2_17  and  O6_18 
REMARK   10  A    between atoms: O6_18  and  C11_19 
REMARK       I    between atoms: C11_19  and  N3_21 
REMARK   11  A    between atoms: N3_21  and  C12_22 
ROOT
ATOM      1  C5  NP6 d          -3.333 -11.146   7.659  0.00  0.00     0.105 C 
ATOM      2  C6  NP6 d          -2.035 -11.006   8.474  0.00  0.00     0.089 C 
ATOM      3  C7  NP6 d          -2.235 -10.075   9.660  0.00  0.00     0.090 C 
ATOM      4  C8  NP6 d          -3.283 -10.700  10.578  0.00  0.00     0.094 C 
ATOM      5  O5  NP6 d          -4.527 -10.827   9.903  0.00  0.00    -0.324 OA
ATOM      6  C10 NP6 d          -4.569 -10.832   8.530  0.00  0.00     0.194 C 
ATOM      7  N2  NP6 d          -5.735 -10.523   7.965  0.00  0.00    -0.100 NA
ATOM      8  H9  NP6 d          -3.302 -10.391   6.860  0.00  0.00     0.090 H 
ATOM      9  H10 NP6 d          -1.743 -11.997   8.849  0.00  0.00     0.090 H 
ATOM     10  H12 NP6 d          -2.569  -9.087   9.310  0.00  0.00     0.091 H 
ATOM     11  H14 NP6 d          -2.918 -11.704  10.839  0.00  0.00     0.091 H 
ENDROOT
BRANCH   1  12
ATOM     12  N1  NP6 d          -3.418 -12.481   6.994  0.00  0.00    -0.346 N 
ATOM     13  C4  NP6 d          -3.429 -13.668   7.615  0.00  0.00     0.218 C 
ATOM     14  O1  NP6 d          -3.370 -13.820   8.840  0.00  0.00    -0.274 OA
ATOM     15  H8  NP6 d          -3.471 -12.489   5.996  0.00  0.00     0.163 HD
BRANCH  13  16
ATOM     16  C3  NP6 d          -3.505 -14.890   6.673  0.00  0.00     0.009 C 
ATOM     17  H6  NP6 d          -2.844 -15.686   7.046  0.00  0.00     0.047 H 
ATOM     18  H7  NP6 d          -4.539 -15.262   6.632  0.00  0.00     0.047 H 
BRANCH  16  19
ATOM     19  C1  NP6 d          -3.059 -14.469   5.281  0.00  0.00    -0.061 C 
ATOM     20  H4  NP6 d          -3.221 -13.386   5.172  0.00  0.00     0.033 H 
ATOM     21  H5  NP6 d          -1.988 -14.692   5.172  0.00  0.00     0.033 H 
BRANCH  19  22
ATOM     22  C2  NP6 d          -3.824 -15.191   4.179  0.00  0.00    -0.076 C 
ATOM     23  H1  NP6 d          -4.874 -15.316   4.484  0.00  0.00     0.027 H 
ATOM     24  H2  NP6 d          -3.372 -16.178   4.004  0.00  0.00     0.027 H 
ATOM     25  H3  NP6 d          -3.780 -14.598   3.253  0.00  0.00     0.027 H 
ENDBRANCH  19  22
ENDBRANCH  16  19
ENDBRANCH  13  16
ENDBRANCH   1  12
BRANCH   7  26
ATOM     26  O6  NP6 d          -6.804 -10.200   8.768  0.00  0.00    -0.153 OA
BRANCH  26  27
ATOM     27  C11 NP6 d          -8.016 -10.690   8.315  0.00  0.00     0.389 C 
ATOM     28  O7  NP6 d          -8.999 -10.686   9.067  0.00  0.00    -0.236 OA
ATOM     29  N3  NP6 d          -8.065 -11.139   7.037  0.00  0.00    -0.301 N 
ATOM     30  H18 NP6 d          -7.227 -11.006   6.508  0.00  0.00     0.171 HD
BRANCH  29  31
ATOM     31  C12 NP6 d          -9.078 -11.743   6.366  0.00  0.00     0.036 A 
ATOM     32  C13 NP6 d          -9.934 -10.936   5.608  0.00  0.00    -0.057 A 
ATOM     33  C14 NP6 d         -10.989 -11.483   4.868  0.00  0.00    -0.081 A 
ATOM     34  H19 NP6 d          -9.777  -9.864   5.593  0.00  0.00     0.086 H 
ATOM     35  C15 NP6 d         -11.197 -12.867   4.872  0.00  0.00    -0.083 A 
ATOM     36  H20 NP6 d         -11.644 -10.837   4.295  0.00  0.00     0.083 H 
ATOM     37  C16 NP6 d         -10.337 -13.686   5.605  0.00  0.00    -0.081 A 
ATOM     38  H21 NP6 d         -12.018 -13.298   4.311  0.00  0.00     0.083 H 
ATOM     39  C17 NP6 d          -9.285 -13.129   6.346  0.00  0.00    -0.057 A 
ATOM     40  H22 NP6 d         -10.483 -14.760   5.602  0.00  0.00     0.083 H 
ATOM     41  H23 NP6 d          -8.624 -13.779   6.909  0.00  0.00     0.086 H 
ENDBRANCH  29  31
ENDBRANCH  26  27
ENDBRANCH   7  26
BRANCH   2  42
ATOM     42  O2  NP6 d          -1.004 -10.506   7.638  0.00  0.00    -0.390 OA
ATOM     43  H11 NP6 d          -0.720  -9.659   7.960  0.00  0.00     0.210 HD
ENDBRANCH   2  42
BRANCH   4  44
ATOM     44  C9  NP6 d          -3.577  -9.951  11.901  0.00  0.00     0.044 C 
ATOM     45  H15 NP6 d          -2.639  -9.530  12.294  0.00  0.00     0.078 H 
ATOM     46  H16 NP6 d          -3.995 -10.659  12.631  0.00  0.00     0.078 H 
BRANCH  44  47
ATOM     47  O4  NP6 d          -4.507  -8.896  11.690  0.00  0.00    -0.398 OA
ATOM     48  H17 NP6 d          -4.535  -8.679  10.765  0.00  0.00     0.209 HD
ENDBRANCH  44  47
ENDBRANCH   4  44
BRANCH   3  49
ATOM     49  O3  NP6 d          -1.018  -9.946  10.407  0.00  0.00    -0.390 OA
ATOM     50  H13 NP6 d          -0.543  -9.180  10.107  0.00  0.00     0.210 HD
ENDBRANCH   3  49
TORSDOF 11
ENDMDL
MODEL 9
REMARK VINA RESULT:      -6.0      2.248      4.559
REMARK  11 active torsions:
REMARK  status: ('A' for Active; 'I' for Inactive)
REMARK    1  A    between atoms: C2_1  and  C1_2 
REMARK    2  A    between atoms: C1_2  and  C3_3 
REMARK    3  A    between atoms: C3_3  and  C4_4 
REMARK       I    between atoms: C4_4  and  N1_6 
REMARK    4  A    between atoms: N1_6  and  C5_7 
REMARK    5  A    between atoms: C6_8  and  O2_9 
REMARK    6  A    between atoms: C7_10  and  O3_11 
REMARK    7  A    between atoms: C8_12  and  C9_13 
REMARK    8  A    between atoms: C9_13  and  O4_14 
REMARK    9  A    between atoms: N2_17  and  O6_18 
REMARK   10  A    between atoms: O6_18  and  C11_19 
REMARK       I    between atoms: C11_19  and  N3_21 
REMARK   11  A    between atoms: N3_21  and  C12_22 
ROOT
ATOM      1  C5  NP6 d          -8.362 -13.806   8.849  0.00  0.00     0.105 C 
ATOM      2  C6  NP6 d          -9.145 -14.467   7.701  0.00  0.00     0.089 C 
ATOM      3  C7  NP6 d         -10.078 -13.469   7.035  0.00  0.00     0.090 C 
ATOM      4  C8  NP6 d          -9.225 -12.360   6.423  0.00  0.00     0.094 C 
ATOM      5  O5  NP6 d          -8.496 -11.676   7.433  0.00  0.00    -0.324 OA
ATOM      6  C10 NP6 d          -8.267 -12.279   8.645  0.00  0.00     0.194 C 
ATOM      7  N2  NP6 d          -7.979 -11.475   9.669  0.00  0.00    -0.100 NA
ATOM      8  H9  NP6 d          -8.932 -13.973   9.775  0.00  0.00     0.090 H 
ATOM      9  H10 NP6 d          -8.431 -14.837   6.951  0.00  0.00     0.090 H 
ATOM     10  H12 NP6 d         -10.776 -13.053   7.776  0.00  0.00     0.091 H 
ATOM     11  H14 NP6 d          -8.512 -12.847   5.742  0.00  0.00     0.091 H 
ENDROOT
BRANCH   1  12
ATOM     12  N1  NP6 d          -7.026 -14.449   9.038  0.00  0.00    -0.346 N 
ATOM     13  C4  NP6 d          -6.011 -14.420   8.165  0.00  0.00     0.218 C 
ATOM     14  O1  NP6 d          -6.043 -13.850   7.070  0.00  0.00    -0.274 OA
ATOM     15  H8  NP6 d          -6.877 -14.945   9.893  0.00  0.00     0.163 HD
BRANCH  13  16
ATOM     16  C3  NP6 d          -4.749 -15.189   8.616  0.00  0.00     0.009 C 
ATOM     17  H6  NP6 d          -4.956 -15.721   9.556  0.00  0.00     0.047 H 
ATOM     18  H7  NP6 d          -4.462 -15.915   7.841  0.00  0.00     0.047 H 
BRANCH  16  19
ATOM     19  C1  NP6 d          -3.616 -14.198   8.830  0.00  0.00    -0.061 C 
ATOM     20  H4  NP6 d          -2.669 -14.676   8.541  0.00  0.00     0.033 H 
ATOM     21  H5  NP6 d          -3.793 -13.319   8.192  0.00  0.00     0.033 H 
BRANCH  19  22
ATOM     22  C2  NP6 d          -3.509 -13.737  10.278  0.00  0.00    -0.076 C 
ATOM     23  H1  NP6 d          -4.152 -12.857  10.432  0.00  0.00     0.027 H 
ATOM     24  H2  NP6 d          -2.465 -13.471  10.502  0.00  0.00     0.027 H 
ATOM     25  H3  NP6 d          -3.832 -14.548  10.947  0.00  0.00     0.027 H 
ENDBRANCH  19  22
ENDBRANCH  16  19
ENDBRANCH  13  16
ENDBRANCH   1  12
BRANCH   7  26
ATOM     26  O6  NP6 d          -7.951 -10.116   9.466  0.00  0.00    -0.153 OA
BRANCH  26  27
ATOM     27  C11 NP6 d          -6.699  -9.549   9.626  0.00  0.00     0.389 C 
ATOM     28  O7  NP6 d          -6.529  -8.353   9.360  0.00  0.00    -0.236 OA
ATOM     29  N3  NP6 d          -5.710 -10.350  10.094  0.00  0.00    -0.301 N 
ATOM     30  H18 NP6 d          -5.999 -11.271  10.354  0.00  0.00     0.171 HD
BRANCH  29  31
ATOM     31  C12 NP6 d          -4.389 -10.092  10.263  0.00  0.00     0.036 A 
ATOM     32  C13 NP6 d          -3.946  -9.759  11.548  0.00  0.00    -0.057 A 
ATOM     33  C14 NP6 d          -2.596  -9.501  11.811  0.00  0.00    -0.081 A 
ATOM     34  H19 NP6 d          -4.665  -9.699  12.358  0.00  0.00     0.086 H 
ATOM     35  C15 NP6 d          -1.657  -9.583  10.777  0.00  0.00    -0.083 A 
ATOM     36  H20 NP6 d          -2.278  -9.237  12.813  0.00  0.00     0.083 H 
ATOM     37  C16 NP6 d          -2.082  -9.937   9.494  0.00  0.00    -0.081 A 
ATOM     38  H21 NP6 d          -0.611  -9.375  10.969  0.00  0.00     0.083 H 
ATOM     39  C17 NP6 d          -3.436 -10.191   9.239  0.00  0.00    -0.057 A 
ATOM     40  H22 NP6 d          -1.359 -10.016   8.691  0.00  0.00     0.083 H 
ATOM     41  H23 NP6 d          -3.750 -10.466   8.239  0.00  0.00     0.086 H 
ENDBRANCH  29  31
ENDBRANCH  26  27
ENDBRANCH   7  26
BRANCH   2  42
ATOM     42  O2  NP6 d          -9.892 -15.561   8.207  0.00  0.00    -0.390 OA
ATOM     43  H11 NP6 d          -9.593 -15.769   9.084  0.00  0.00     0.210 HD
ENDBRANCH   2  42
BRANCH   4  44
ATOM     44  C9  NP6 d          -9.977 -11.275   5.614  0.00  0.00     0.044 C 
ATOM     45  H15 NP6 d         -11.016 -11.599   5.454  0.00  0.00     0.078 H 
ATOM     46  H16 NP6 d          -9.482 -11.142   4.641  0.00  0.00     0.078 H 
BRANCH  44  47
ATOM     47  O4  NP6 d          -9.979 -10.034   6.309  0.00  0.00    -0.398 OA
ATOM     48  H17 NP6 d          -9.149  -9.592   6.167  0.00  0.00     0.209 HD
ENDBRANCH  44  47
ENDBRANCH   4  44
BRANCH   3  49
ATOM     49  O3  NP6 d         -10.809 -14.097   5.972  0.00  0.00    -0.390 OA
ATOM     50  H13 NP6 d         -10.583 -13.684   5.146  0.00  0.00     0.210 HD
ENDBRANCH   3  49
TORSDOF 11
ENDMDL
MODEL 10
REMARK VINA RESULT:      -5.9      2.641      7.704
REMARK  11 active torsions:
REMARK  status: ('A' for Active; 'I' for Inactive)
REMARK    1  A    between atoms: C2_1  and  C1_2 
REMARK    2  A    between atoms: C1_2  and  C3_3 
REMARK    3  A    between atoms: C3_3  and  C4_4 
REMARK       I    between atoms: C4_4  and  N1_6 
REMARK    4  A    between atoms: N1_6  and  C5_7 
REMARK    5  A    between atoms: C6_8  and  O2_9 
REMARK    6  A    between atoms: C7_10  and  O3_11 
REMARK    7  A    between atoms: C8_12  and  C9_13 
REMARK    8  A    between atoms: C9_13  and  O4_14 
REMARK    9  A    between atoms: N2_17  and  O6_18 
REMARK   10  A    between atoms: O6_18  and  C11_19 
REMARK       I    between atoms: C11_19  and  N3_21 
REMARK   11  A    between atoms: N3_21  and  C12_22 
ROOT
ATOM      1  C5  NP6 d          -2.282 -10.626   8.212  0.00  0.00     0.105 C 
ATOM      2  C6  NP6 d          -1.337 -10.201   9.350  0.00  0.00     0.089 C 
ATOM      3  C7  NP6 d          -2.124  -9.698  10.551  0.00  0.00     0.090 C 
ATOM      4  C8  NP6 d          -2.975 -10.853  11.074  0.00  0.00     0.094 C 
ATOM      5  O5  NP6 d          -3.904 -11.277  10.086  0.00  0.00    -0.324 OA
ATOM      6  C10 NP6 d          -3.678 -10.992   8.761  0.00  0.00     0.194 C 
ATOM      7  N2  NP6 d          -4.738 -11.018   7.954  0.00  0.00    -0.100 NA
ATOM      8  H9  NP6 d          -2.413  -9.755   7.552  0.00  0.00     0.090 H 
ATOM      9  H10 NP6 d          -0.740 -11.072   9.659  0.00  0.00     0.090 H 
ATOM     10  H12 NP6 d          -2.761  -8.852  10.255  0.00  0.00     0.091 H 
ATOM     11  H14 NP6 d          -2.287 -11.682  11.291  0.00  0.00     0.091 H 
ENDROOT
BRANCH   1  12
ATOM     12  N1  NP6 d          -1.682 -11.715   7.384  0.00  0.00    -0.346 N 
ATOM     13  C4  NP6 d          -0.657 -11.578   6.531  0.00  0.00     0.218 C 
ATOM     14  O1  NP6 d          -0.063 -10.518   6.313  0.00  0.00    -0.274 OA
ATOM     15  H8  NP6 d          -2.081 -12.627   7.473  0.00  0.00     0.163 HD
BRANCH  13  16
ATOM     16  C3  NP6 d          -0.256 -12.874   5.791  0.00  0.00     0.009 C 
ATOM     17  H6  NP6 d          -0.177 -12.674   4.712  0.00  0.00     0.047 H 
ATOM     18  H7  NP6 d           0.713 -13.230   6.169  0.00  0.00     0.047 H 
BRANCH  16  19
ATOM     19  C1  NP6 d          -1.319 -13.933   6.037  0.00  0.00    -0.061 C 
ATOM     20  H4  NP6 d          -0.856 -14.784   6.558  0.00  0.00     0.033 H 
ATOM     21  H5  NP6 d          -2.107 -13.500   6.671  0.00  0.00     0.033 H 
BRANCH  19  22
ATOM     22  C2  NP6 d          -1.953 -14.436   4.746  0.00  0.00    -0.076 C 
ATOM     23  H1  NP6 d          -2.289 -13.579   4.144  0.00  0.00     0.027 H 
ATOM     24  H2  NP6 d          -2.814 -15.077   4.985  0.00  0.00     0.027 H 
ATOM     25  H3  NP6 d          -1.212 -15.016   4.175  0.00  0.00     0.027 H 
ENDBRANCH  19  22
ENDBRANCH  16  19
ENDBRANCH  13  16
ENDBRANCH   1  12
BRANCH   7  26
ATOM     26  O6  NP6 d          -5.976 -11.299   8.482  0.00  0.00    -0.153 OA
BRANCH  26  27
ATOM     27  C11 NP6 d          -6.815 -11.982   7.618  0.00  0.00     0.389 C 
ATOM     28  O7  NP6 d          -6.436 -13.043   7.107  0.00  0.00    -0.236 OA
ATOM     29  N3  NP6 d          -8.039 -11.447   7.390  0.00  0.00    -0.301 N 
ATOM     30  H18 NP6 d          -8.254 -10.635   7.932  0.00  0.00     0.171 HD
BRANCH  29  31
ATOM     31  C12 NP6 d          -9.017 -11.845   6.539  0.00  0.00     0.036 A 
ATOM     32  C13 NP6 d          -9.380 -13.197   6.544  0.00  0.00    -0.057 A 
ATOM     33  C14 NP6 d         -10.395 -13.684   5.713  0.00  0.00    -0.081 A 
ATOM     34  H19 NP6 d          -8.864 -13.882   7.208  0.00  0.00     0.086 H 
ATOM     35  C15 NP6 d         -11.075 -12.809   4.859  0.00  0.00    -0.083 A 
ATOM     36  H20 NP6 d         -10.653 -14.737   5.730  0.00  0.00     0.083 H 
ATOM     37  C16 NP6 d         -10.738 -11.454   4.858  0.00  0.00    -0.081 A 
ATOM     38  H21 NP6 d         -11.855 -13.179   4.203  0.00  0.00     0.083 H 
ATOM     39  C17 NP6 d          -9.718 -10.975   5.692  0.00  0.00    -0.057 A 
ATOM     40  H22 NP6 d         -11.270 -10.767   4.209  0.00  0.00     0.083 H 
ATOM     41  H23 NP6 d          -9.470  -9.920   5.683  0.00  0.00     0.086 H 
ENDBRANCH  29  31
ENDBRANCH  26  27
ENDBRANCH   7  26
BRANCH   2  42
ATOM     42  O2  NP6 d          -0.465  -9.184   8.885  0.00  0.00    -0.390 OA
ATOM     43  H11 NP6 d          -0.619  -9.035   7.960  0.00  0.00     0.210 HD
ENDBRANCH   2  42
BRANCH   4  44
ATOM     44  C9  NP6 d          -3.797 -10.578  12.358  0.00  0.00     0.044 C 
ATOM     45  H15 NP6 d          -3.383  -9.697  12.870  0.00  0.00     0.078 H 
ATOM     46  H16 NP6 d          -3.730 -11.452  13.022  0.00  0.00     0.078 H 
BRANCH  44  47
ATOM     47  O4  NP6 d          -5.162 -10.335  12.044  0.00  0.00    -0.398 OA
ATOM     48  H17 NP6 d          -5.255  -9.455  11.696  0.00  0.00     0.209 HD
ENDBRANCH  44  47
ENDBRANCH   4  44
BRANCH   3  49
ATOM     49  O3  NP6 d          -1.234  -9.298  11.602  0.00  0.00    -0.390 OA
ATOM     50  H13 NP6 d          -0.336  -9.443  11.328  0.00  0.00     0.210 HD
ENDBRANCH   3  49
TORSDOF 11
ENDMDL
