MODEL 1
REMARK VINA RESULT:      -8.0      0.000      0.000
REMARK  4 active torsions:
REMARK  status: ('A' for Active; 'I' for Inactive)
REMARK    1  A    between atoms: CA_2  and  N_1 
REMARK    2  A    between atoms: CA_2  and  CB_5 
REMARK    3  A    between atoms: CA_2  and  C_3 
REMARK    4  A    between atoms: CB_5  and  CG_6 
ROOT
ATOM      1  CG  TRP d         -27.494  -4.786 -21.858  0.00  0.00    -0.028 A 
ATOM      2  CD1 TRP d         -28.047  -5.702 -22.713  0.00  0.00    -0.015 A 
ATOM      3  CD2 TRP d         -28.322  -3.617 -21.932  0.00  0.00    -0.002 A 
ATOM      4  NE1 TRP d         -29.170  -5.179 -23.307  0.00  0.00    -0.365 N 
ATOM      5  CE2 TRP d         -29.370  -3.905 -22.845  0.00  0.00     0.042 A 
ATOM      6  CE3 TRP d         -28.291  -2.365 -21.304  0.00  0.00    -0.070 A 
ATOM      7  CZ2 TRP d         -30.371  -2.984 -23.160  0.00  0.00    -0.056 A 
ATOM      8  CZ3 TRP d         -29.290  -1.441 -21.616  0.00  0.00    -0.082 A 
ATOM      9  CH2 TRP d         -30.326  -1.763 -22.539  0.00  0.00    -0.081 A 
ATOM     10  H7  TRP d         -27.654  -6.701 -22.896  0.00  0.00     0.112 H 
ATOM     11  H8  TRP d         -29.766  -5.667 -23.991  0.00  0.00     0.165 HD
ATOM     12  H9  TRP d         -27.511  -2.120 -20.592  0.00  0.00     0.084 H 
ATOM     13  H10 TRP d         -31.154  -3.225 -23.870  0.00  0.00     0.086 H 
ATOM     14  H11 TRP d         -29.276  -0.462 -21.149  0.00  0.00     0.083 H 
ATOM     15  H12 TRP d         -31.093  -1.030 -22.754  0.00  0.00     0.083 H 
ENDROOT
BRANCH   1  16
ATOM     16  CB  TRP d         -26.291  -4.978 -21.003  0.00  0.00    -0.003 C 
ATOM     17  H5  TRP d         -26.109  -6.059 -20.911  0.00  0.00     0.044 H 
ATOM     18  H6  TRP d         -25.436  -4.505 -21.508  0.00  0.00     0.044 H 
BRANCH  16  19
ATOM     19  CA  TRP d         -26.391  -4.390 -19.585  0.00  0.00     0.186 C 
ATOM     20  H4  TRP d         -27.266  -3.725 -19.533  0.00  0.00     0.101 H 
BRANCH  19  21
ATOM     21  N   TRP d         -25.204  -3.605 -19.291  0.00  0.00    -0.065 N 
ATOM     22  H1  TRP d         -25.460  -2.636 -19.184  0.00  0.00     0.275 HD
ATOM     23  H2  TRP d         -24.544  -3.696 -20.048  0.00  0.00     0.275 HD
ATOM     24  H3  TRP d         -24.783  -3.938 -18.438  0.00  0.00     0.275 HD
ENDBRANCH  19  21
BRANCH  19  25
ATOM     25  C   TRP d         -26.595  -5.542 -18.594  0.00  0.00     0.204 C 
ATOM     26  O   TRP d         -27.602  -6.242 -18.609  0.00  0.00    -0.646 OA
ATOM     27  OXT TRP d         -25.739  -5.823 -17.754  0.00  0.00    -0.646 OA
ENDBRANCH  19  25
ENDBRANCH  16  19
ENDBRANCH   1  16
TORSDOF 4
ENDMDL
MODEL 2
REMARK VINA RESULT:      -7.8      1.606      1.925
REMARK  4 active torsions:
REMARK  status: ('A' for Active; 'I' for Inactive)
REMARK    1  A    between atoms: CA_2  and  N_1 
REMARK    2  A    between atoms: CA_2  and  CB_5 
REMARK    3  A    between atoms: CA_2  and  C_3 
REMARK    4  A    between atoms: CB_5  and  CG_6 
ROOT
ATOM      1  CG  TRP d         -27.315  -4.467 -21.229  0.00  0.00    -0.028 A 
ATOM      2  CD1 TRP d         -26.138  -4.242 -21.893  0.00  0.00    -0.015 A 
ATOM      3  CD2 TRP d         -28.287  -3.600 -21.830  0.00  0.00    -0.002 A 
ATOM      4  NE1 TRP d         -26.319  -3.296 -22.872  0.00  0.00    -0.365 N 
ATOM      5  CE2 TRP d         -27.626  -2.887 -22.865  0.00  0.00     0.042 A 
ATOM      6  CE3 TRP d         -29.651  -3.370 -21.608  0.00  0.00    -0.070 A 
ATOM      7  CZ2 TRP d         -28.276  -1.947 -23.668  0.00  0.00    -0.056 A 
ATOM      8  CZ3 TRP d         -30.305  -2.431 -22.408  0.00  0.00    -0.082 A 
ATOM      9  CH2 TRP d         -29.610  -1.733 -23.437  0.00  0.00    -0.081 A 
ATOM     10  H7  TRP d         -25.195  -4.741 -21.675  0.00  0.00     0.112 H 
ATOM     11  H8  TRP d         -25.589  -2.950 -23.510  0.00  0.00     0.165 HD
ATOM     12  H9  TRP d         -30.186  -3.908 -20.834  0.00  0.00     0.084 H 
ATOM     13  H10 TRP d         -27.746  -1.408 -24.443  0.00  0.00     0.086 H 
ATOM     14  H11 TRP d         -31.358  -2.231 -22.244  0.00  0.00     0.083 H 
ATOM     15  H12 TRP d         -30.146  -1.017 -24.049  0.00  0.00     0.083 H 
ENDROOT
BRANCH   1  16
ATOM     16  CB  TRP d         -27.543  -5.439 -20.125  0.00  0.00    -0.003 C 
ATOM     17  H5  TRP d         -28.602  -5.736 -20.148  0.00  0.00     0.044 H 
ATOM     18  H6  TRP d         -26.911  -6.319 -20.311  0.00  0.00     0.044 H 
BRANCH  16  19
ATOM     19  CA  TRP d         -27.227  -4.916 -18.713  0.00  0.00     0.186 C 
ATOM     20  H4  TRP d         -27.941  -5.353 -17.999  0.00  0.00     0.101 H 
BRANCH  19  21
ATOM     21  N   TRP d         -27.374  -3.470 -18.677  0.00  0.00    -0.065 N 
ATOM     22  H1  TRP d         -28.317  -3.235 -18.411  0.00  0.00     0.275 HD
ATOM     23  H2  TRP d         -27.178  -3.089 -19.590  0.00  0.00     0.275 HD
ATOM     24  H3  TRP d         -26.729  -3.083 -18.006  0.00  0.00     0.275 HD
ENDBRANCH  19  21
BRANCH  19  25
ATOM     25  C   TRP d         -25.814  -5.373 -18.331  0.00  0.00     0.204 C 
ATOM     26  O   TRP d         -24.812  -4.881 -18.840  0.00  0.00    -0.646 OA
ATOM     27  OXT TRP d         -25.631  -6.242 -17.478  0.00  0.00    -0.646 OA
ENDBRANCH  19  25
ENDBRANCH  16  19
ENDBRANCH   1  16
TORSDOF 4
ENDMDL
MODEL 3
REMARK VINA RESULT:      -6.7      1.465      2.689
REMARK  4 active torsions:
REMARK  status: ('A' for Active; 'I' for Inactive)
REMARK    1  A    between atoms: CA_2  and  N_1 
REMARK    2  A    between atoms: CA_2  and  CB_5 
REMARK    3  A    between atoms: CA_2  and  C_3 
REMARK    4  A    between atoms: CB_5  and  CG_6 
ROOT
ATOM      1  CG  TRP d         -28.138  -3.439 -20.453  0.00  0.00    -0.028 A 
ATOM      2  CD1 TRP d         -28.418  -2.177 -20.907  0.00  0.00    -0.015 A 
ATOM      3  CD2 TRP d         -28.346  -4.321 -21.565  0.00  0.00    -0.002 A 
ATOM      4  NE1 TRP d         -28.779  -2.220 -22.231  0.00  0.00    -0.365 N 
ATOM      5  CE2 TRP d         -28.739  -3.517 -22.666  0.00  0.00     0.042 A 
ATOM      6  CE3 TRP d         -28.220  -5.705 -21.742  0.00  0.00    -0.070 A 
ATOM      7  CZ2 TRP d         -29.025  -4.050 -23.925  0.00  0.00    -0.056 A 
ATOM      8  CZ3 TRP d         -28.505  -6.242 -22.998  0.00  0.00    -0.082 A 
ATOM      9  CH2 TRP d         -28.899  -5.406 -24.081  0.00  0.00    -0.081 A 
ATOM     10  H7  TRP d         -28.363  -1.272 -20.304  0.00  0.00     0.112 H 
ATOM     11  H8  TRP d         -29.040  -1.405 -22.805  0.00  0.00     0.165 HD
ATOM     12  H9  TRP d         -27.909  -6.344 -20.923  0.00  0.00     0.084 H 
ATOM     13  H10 TRP d         -29.334  -3.416 -24.747  0.00  0.00     0.086 H 
ATOM     14  H11 TRP d         -28.425  -7.313 -23.152  0.00  0.00     0.083 H 
ATOM     15  H12 TRP d         -29.103  -5.850 -25.049  0.00  0.00     0.083 H 
ENDROOT
BRANCH   1  16
ATOM     16  CB  TRP d         -27.681  -3.813 -19.086  0.00  0.00    -0.003 C 
ATOM     17  H5  TRP d         -27.979  -3.010 -18.397  0.00  0.00     0.044 H 
ATOM     18  H6  TRP d         -28.188  -4.747 -18.802  0.00  0.00     0.044 H 
BRANCH  16  19
ATOM     19  CA  TRP d         -26.165  -4.030 -18.936  0.00  0.00     0.186 C 
ATOM     20  H4  TRP d         -25.766  -3.297 -18.219  0.00  0.00     0.101 H 
BRANCH  19  21
ATOM     21  N   TRP d         -25.507  -3.821 -20.215  0.00  0.00    -0.065 N 
ATOM     22  H1  TRP d         -25.661  -4.622 -20.807  0.00  0.00     0.275 HD
ATOM     23  H2  TRP d         -24.517  -3.698 -20.068  0.00  0.00     0.275 HD
ATOM     24  H3  TRP d         -25.886  -2.999 -20.658  0.00  0.00     0.275 HD
ENDBRANCH  19  21
BRANCH  19  25
ATOM     25  C   TRP d         -25.929  -5.438 -18.376  0.00  0.00     0.204 C 
ATOM     26  O   TRP d         -24.820  -5.813 -18.008  0.00  0.00    -0.646 OA
ATOM     27  OXT TRP d         -26.853  -6.243 -18.254  0.00  0.00    -0.646 OA
ENDBRANCH  19  25
ENDBRANCH  16  19
ENDBRANCH   1  16
TORSDOF 4
ENDMDL
MODEL 4
REMARK VINA RESULT:      -6.5      2.653      4.895
REMARK  4 active torsions:
REMARK  status: ('A' for Active; 'I' for Inactive)
REMARK    1  A    between atoms: CA_2  and  N_1 
REMARK    2  A    between atoms: CA_2  and  CB_5 
REMARK    3  A    between atoms: CA_2  and  C_3 
REMARK    4  A    between atoms: CB_5  and  CG_6 
ROOT
ATOM      1  CG  TRP d         -27.591  -4.178 -22.535  0.00  0.00    -0.028 A 
ATOM      2  CD1 TRP d         -26.344  -3.647 -22.735  0.00  0.00    -0.015 A 
ATOM      3  CD2 TRP d         -27.544  -4.847 -21.267  0.00  0.00    -0.002 A 
ATOM      4  NE1 TRP d         -25.529  -3.938 -21.668  0.00  0.00    -0.365 N 
ATOM      5  CE2 TRP d         -26.236  -4.666 -20.748  0.00  0.00     0.042 A 
ATOM      6  CE3 TRP d         -28.483  -5.563 -20.513  0.00  0.00    -0.070 A 
ATOM      7  CZ2 TRP d         -25.833  -5.188 -19.517  0.00  0.00    -0.056 A 
ATOM      8  CZ3 TRP d         -28.085  -6.087 -19.282  0.00  0.00    -0.082 A 
ATOM      9  CH2 TRP d         -26.762  -5.888 -18.793  0.00  0.00    -0.081 A 
ATOM     10  H7  TRP d         -26.043  -3.078 -23.612  0.00  0.00     0.112 H 
ATOM     11  H8  TRP d         -24.543  -3.654 -21.575  0.00  0.00     0.165 HD
ATOM     12  H9  TRP d         -29.494  -5.707 -20.877  0.00  0.00     0.084 H 
ATOM     13  H10 TRP d         -24.824  -5.046 -19.149  0.00  0.00     0.086 H 
ATOM     14  H11 TRP d         -28.794  -6.654 -18.689  0.00  0.00     0.083 H 
ATOM     15  H12 TRP d         -26.485  -6.297 -17.828  0.00  0.00     0.083 H 
ENDROOT
BRANCH   1  16
ATOM     16  CB  TRP d         -28.766  -4.058 -23.442  0.00  0.00    -0.003 C 
ATOM     17  H5  TRP d         -28.441  -4.330 -24.456  0.00  0.00     0.044 H 
ATOM     18  H6  TRP d         -29.533  -4.768 -23.099  0.00  0.00     0.044 H 
BRANCH  16  19
ATOM     19  CA  TRP d         -29.406  -2.661 -23.506  0.00  0.00     0.186 C 
ATOM     20  H4  TRP d         -30.355  -2.725 -24.060  0.00  0.00     0.101 H 
BRANCH  19  21
ATOM     21  N   TRP d         -28.526  -1.746 -24.214  0.00  0.00    -0.065 N 
ATOM     22  H1  TRP d         -27.883  -2.272 -24.784  0.00  0.00     0.275 HD
ATOM     23  H2  TRP d         -28.009  -1.193 -23.547  0.00  0.00     0.275 HD
ATOM     24  H3  TRP d         -29.075  -1.137 -24.800  0.00  0.00     0.275 HD
ENDBRANCH  19  21
BRANCH  19  25
ATOM     25  C   TRP d         -29.709  -2.198 -22.076  0.00  0.00     0.204 C 
ATOM     26  O   TRP d         -28.938  -1.479 -21.448  0.00  0.00    -0.646 OA
ATOM     27  OXT TRP d         -30.754  -2.516 -21.508  0.00  0.00    -0.646 OA
ENDBRANCH  19  25
ENDBRANCH  16  19
ENDBRANCH   1  16
TORSDOF 4
ENDMDL
