MODEL 1
REMARK VINA RESULT:      -8.6      0.000      0.000
REMARK  9 active torsions:
REMARK  status: ('A' for Active; 'I' for Inactive)
REMARK    1  A    between atoms: CAH_1  and  CAG_2 
REMARK       I    between atoms: CAG_2  and  NAI_4 
REMARK    2  A    between atoms: NAI_4  and  CAB_5 
REMARK    3  A    between atoms: CAC_6  and  OAJ_7 
REMARK    4  A    between atoms: CAD_8  and  OAK_9 
REMARK    5  A    between atoms: CAE_10  and  CAF_11 
REMARK    6  A    between atoms: CAF_11  and  OAM_12 
REMARK    7  A    between atoms: NAY_15  and  OAQ_16 
REMARK    8  A    between atoms: OAQ_16  and  CAP_17 
REMARK       I    between atoms: CAP_17  and  NAO_19 
REMARK    9  A    between atoms: NAO_19  and  CAS_20 
ROOT
ATOM      1  CAB OAN d          33.071  42.362  21.418  0.00  0.00     0.105 C 
ATOM      2  CAC OAN d          32.495  42.668  22.835  0.00  0.00     0.089 C 
ATOM      3  CAD OAN d          31.047  42.230  22.956  0.00  0.00     0.090 C 
ATOM      4  CAE OAN d          30.984  40.704  22.761  0.00  0.00     0.094 C 
ATOM      5  OAL OAN d          31.439  40.404  21.416  0.00  0.00    -0.324 OA
ATOM      6  CAA OAN d          32.293  41.231  20.732  0.00  0.00     0.194 C 
ATOM      7  NAY OAN d          32.416  41.060  19.406  0.00  0.00    -0.100 NA
ATOM      8  H5  OAN d          32.961  43.263  20.797  0.00  0.00     0.090 H 
ATOM      9  H6  OAN d          33.087  42.105  23.572  0.00  0.00     0.090 H 
ATOM     10  H8  OAN d          30.451  42.724  22.174  0.00  0.00     0.091 H 
ATOM     11  H10 OAN d          31.699  40.271  23.476  0.00  0.00     0.091 H 
ENDROOT
BRANCH   1  12
ATOM     12  NAI OAN d          34.514  42.068  21.545  0.00  0.00    -0.347 N 
ATOM     13  CAG OAN d          35.028  41.111  22.333  0.00  0.00     0.214 C 
ATOM     14  OAN OAN d          34.358  40.325  23.014  0.00  0.00    -0.274 OA
ATOM     15  H4  OAN d          35.150  42.619  21.006  0.00  0.00     0.163 HD
BRANCH  13  16
ATOM     16  CAH OAN d          36.567  41.052  22.349  0.00  0.00    -0.003 C 
ATOM     17  H1  OAN d          36.895  40.006  22.254  0.00  0.00     0.040 H 
ATOM     18  H2  OAN d          36.941  41.469  23.296  0.00  0.00     0.040 H 
ATOM     19  H3  OAN d          36.965  41.638  21.508  0.00  0.00     0.040 H 
ENDBRANCH  13  16
ENDBRANCH   1  12
BRANCH   7  20
ATOM     20  OAQ OAN d          31.739  40.084  18.688  0.00  0.00    -0.153 OA
BRANCH  20  21
ATOM     21  CAP OAN d          30.533  40.504  18.210  0.00  0.00     0.389 C 
ATOM     22  OAR OAN d          30.137  40.083  17.114  0.00  0.00    -0.236 OA
ATOM     23  NAO OAN d          29.825  41.366  18.991  0.00  0.00    -0.301 N 
ATOM     24  H14 OAN d          30.222  41.624  19.872  0.00  0.00     0.171 HD
BRANCH  23  25
ATOM     25  CAS OAN d          28.606  41.908  18.659  0.00  0.00     0.036 A 
ATOM     26  CAT OAN d          27.375  41.258  18.923  0.00  0.00    -0.057 A 
ATOM     27  CAU OAN d          26.141  41.830  18.558  0.00  0.00    -0.081 A 
ATOM     28  H15 OAN d          27.383  40.295  19.421  0.00  0.00     0.086 H 
ATOM     29  CAV OAN d          26.120  43.069  17.916  0.00  0.00    -0.083 A 
ATOM     30  H16 OAN d          25.213  41.312  18.772  0.00  0.00     0.083 H 
ATOM     31  CAW OAN d          27.324  43.741  17.652  0.00  0.00    -0.081 A 
ATOM     32  H17 OAN d          25.175  43.512  17.623  0.00  0.00     0.083 H 
ATOM     33  CAX OAN d          28.547  43.164  18.026  0.00  0.00    -0.057 A 
ATOM     34  H18 OAN d          27.309  44.706  17.158  0.00  0.00     0.083 H 
ATOM     35  H19 OAN d          29.469  43.699  17.824  0.00  0.00     0.086 H 
ENDBRANCH  23  25
ENDBRANCH  20  21
ENDBRANCH   7  20
BRANCH   2  36
ATOM     36  OAJ OAN d          32.606  44.054  23.138  0.00  0.00    -0.390 OA
ATOM     37  H7  OAN d          32.856  44.530  22.354  0.00  0.00     0.210 HD
ENDBRANCH   2  36
BRANCH   4  38
ATOM     38  CAF OAN d          29.633  39.963  22.991  0.00  0.00     0.044 C 
ATOM     39  H11 OAN d          29.191  40.302  23.939  0.00  0.00     0.078 H 
ATOM     40  H12 OAN d          29.818  38.880  23.039  0.00  0.00     0.078 H 
BRANCH  38  41
ATOM     41  OAM OAN d          28.723  40.237  21.925  0.00  0.00    -0.398 OA
ATOM     42  H13 OAN d          28.748  39.524  21.298  0.00  0.00     0.209 HD
ENDBRANCH  38  41
ENDBRANCH   4  38
BRANCH   3  43
ATOM     43  OAK OAN d          30.521  42.584  24.229  0.00  0.00    -0.390 OA
ATOM     44  H9  OAN d          31.000  42.123  24.908  0.00  0.00     0.210 HD
ENDBRANCH   3  43
TORSDOF 9
ENDMDL
MODEL 2
REMARK VINA RESULT:      -8.2      1.515      1.982
REMARK  9 active torsions:
REMARK  status: ('A' for Active; 'I' for Inactive)
REMARK    1  A    between atoms: CAH_1  and  CAG_2 
REMARK       I    between atoms: CAG_2  and  NAI_4 
REMARK    2  A    between atoms: NAI_4  and  CAB_5 
REMARK    3  A    between atoms: CAC_6  and  OAJ_7 
REMARK    4  A    between atoms: CAD_8  and  OAK_9 
REMARK    5  A    between atoms: CAE_10  and  CAF_11 
REMARK    6  A    between atoms: CAF_11  and  OAM_12 
REMARK    7  A    between atoms: NAY_15  and  OAQ_16 
REMARK    8  A    between atoms: OAQ_16  and  CAP_17 
REMARK       I    between atoms: CAP_17  and  NAO_19 
REMARK    9  A    between atoms: NAO_19  and  CAS_20 
ROOT
ATOM      1  CAB OAN d          33.068  42.362  21.431  0.00  0.00     0.105 C 
ATOM      2  CAC OAN d          32.471  42.651  22.844  0.00  0.00     0.089 C 
ATOM      3  CAD OAN d          31.030  42.187  22.947  0.00  0.00     0.090 C 
ATOM      4  CAE OAN d          30.996  40.661  22.743  0.00  0.00     0.094 C 
ATOM      5  OAL OAN d          31.471  40.376  21.402  0.00  0.00    -0.324 OA
ATOM      6  CAA OAN d          32.318  41.222  20.731  0.00  0.00     0.194 C 
ATOM      7  NAY OAN d          32.458  41.061  19.406  0.00  0.00    -0.100 NA
ATOM      8  H5  OAN d          32.949  43.265  20.815  0.00  0.00     0.090 H 
ATOM      9  H6  OAN d          33.065  42.095  23.584  0.00  0.00     0.090 H 
ATOM     10  H8  OAN d          30.434  42.674  22.161  0.00  0.00     0.091 H 
ATOM     11  H10 OAN d          31.710  40.237  23.464  0.00  0.00     0.091 H 
ENDROOT
BRANCH   1  12
ATOM     12  NAI OAN d          34.514  42.093  21.573  0.00  0.00    -0.347 N 
ATOM     13  CAG OAN d          35.035  41.122  22.339  0.00  0.00     0.214 C 
ATOM     14  OAN OAN d          34.371  40.301  22.984  0.00  0.00    -0.274 OA
ATOM     15  H4  OAN d          35.148  42.674  21.062  0.00  0.00     0.163 HD
BRANCH  13  16
ATOM     16  CAH OAN d          36.575  41.093  22.378  0.00  0.00    -0.003 C 
ATOM     17  H1  OAN d          36.974  41.538  21.454  0.00  0.00     0.040 H 
ATOM     18  H2  OAN d          36.920  40.052  22.462  0.00  0.00     0.040 H 
ATOM     19  H3  OAN d          36.931  41.669  23.245  0.00  0.00     0.040 H 
ENDBRANCH  13  16
ENDBRANCH   1  12
BRANCH   7  20
ATOM     20  OAQ OAN d          31.806  40.077  18.675  0.00  0.00    -0.153 OA
BRANCH  20  21
ATOM     21  CAP OAN d          30.951  40.576  17.738  0.00  0.00     0.389 C 
ATOM     22  OAR OAN d          30.108  39.826  17.227  0.00  0.00    -0.236 OA
ATOM     23  NAO OAN d          31.077  41.897  17.429  0.00  0.00    -0.301 N 
ATOM     24  H14 OAN d          31.773  42.422  17.918  0.00  0.00     0.171 HD
BRANCH  23  25
ATOM     25  CAS OAN d          30.319  42.561  16.494  0.00  0.00     0.036 A 
ATOM     26  CAT OAN d          30.583  42.501  15.102  0.00  0.00    -0.057 A 
ATOM     27  CAU OAN d          29.798  43.204  14.168  0.00  0.00    -0.081 A 
ATOM     28  H15 OAN d          31.410  41.897  14.748  0.00  0.00     0.086 H 
ATOM     29  CAV OAN d          28.731  43.985  14.614  0.00  0.00    -0.083 A 
ATOM     30  H16 OAN d          30.022  43.140  13.109  0.00  0.00     0.083 H 
ATOM     31  CAW OAN d          28.440  44.054  15.985  0.00  0.00    -0.081 A 
ATOM     32  H17 OAN d          28.129  44.537  13.902  0.00  0.00     0.083 H 
ATOM     33  CAX OAN d          29.224  43.344  16.907  0.00  0.00    -0.057 A 
ATOM     34  H18 OAN d          27.608  44.656  16.333  0.00  0.00     0.083 H 
ATOM     35  H19 OAN d          28.982  43.399  17.963  0.00  0.00     0.086 H 
ENDBRANCH  23  25
ENDBRANCH  20  21
ENDBRANCH   7  20
BRANCH   2  36
ATOM     36  OAJ OAN d          32.555  44.037  23.155  0.00  0.00    -0.390 OA
ATOM     37  H7  OAN d          33.279  44.184  23.753  0.00  0.00     0.210 HD
ENDBRANCH   2  36
BRANCH   4  38
ATOM     38  CAF OAN d          29.656  39.895  22.955  0.00  0.00     0.044 C 
ATOM     39  H11 OAN d          29.247  40.147  23.944  0.00  0.00     0.078 H 
ATOM     40  H12 OAN d          29.845  38.813  22.900  0.00  0.00     0.078 H 
BRANCH  38  41
ATOM     41  OAM OAN d          28.708  40.257  21.950  0.00  0.00    -0.398 OA
ATOM     42  H13 OAN d          28.894  39.774  21.152  0.00  0.00     0.209 HD
ENDBRANCH  38  41
ENDBRANCH   4  38
BRANCH   3  43
ATOM     43  OAK OAN d          30.483  42.525  24.216  0.00  0.00    -0.390 OA
ATOM     44  H9  OAN d          30.924  42.023  24.892  0.00  0.00     0.210 HD
ENDBRANCH   3  43
TORSDOF 9
ENDMDL
MODEL 3
REMARK VINA RESULT:      -6.0      2.111      4.392
REMARK  9 active torsions:
REMARK  status: ('A' for Active; 'I' for Inactive)
REMARK    1  A    between atoms: CAH_1  and  CAG_2 
REMARK       I    between atoms: CAG_2  and  NAI_4 
REMARK    2  A    between atoms: NAI_4  and  CAB_5 
REMARK    3  A    between atoms: CAC_6  and  OAJ_7 
REMARK    4  A    between atoms: CAD_8  and  OAK_9 
REMARK    5  A    between atoms: CAE_10  and  CAF_11 
REMARK    6  A    between atoms: CAF_11  and  OAM_12 
REMARK    7  A    between atoms: NAY_15  and  OAQ_16 
REMARK    8  A    between atoms: OAQ_16  and  CAP_17 
REMARK       I    between atoms: CAP_17  and  NAO_19 
REMARK    9  A    between atoms: NAO_19  and  CAS_20 
ROOT
ATOM      1  CAB OAN d          29.859  41.214  21.566  0.00  0.00     0.105 C 
ATOM      2  CAC OAN d          30.586  41.663  22.872  0.00  0.00     0.089 C 
ATOM      3  CAD OAN d          32.024  41.179  22.904  0.00  0.00     0.090 C 
ATOM      4  CAE OAN d          32.778  41.817  21.722  0.00  0.00     0.094 C 
ATOM      5  OAL OAN d          32.167  41.347  20.493  0.00  0.00    -0.324 OA
ATOM      6  CAA OAN d          30.860  40.934  20.437  0.00  0.00     0.194 C 
ATOM      7  NAY OAN d          30.462  40.225  19.369  0.00  0.00    -0.100 NA
ATOM      8  H5  OAN d          29.323  40.276  21.774  0.00  0.00     0.090 H 
ATOM      9  H6  OAN d          30.593  42.762  22.896  0.00  0.00     0.090 H 
ATOM     10  H8  OAN d          32.042  40.084  22.800  0.00  0.00     0.091 H 
ATOM     11  H10 OAN d          32.613  42.902  21.801  0.00  0.00     0.091 H 
ENDROOT
BRANCH   1  12
ATOM     12  NAI OAN d          28.860  42.240  21.202  0.00  0.00    -0.347 N 
ATOM     13  CAG OAN d          27.768  42.008  20.457  0.00  0.00     0.214 C 
ATOM     14  OAN OAN d          27.435  40.898  20.022  0.00  0.00    -0.274 OA
ATOM     15  H4  OAN d          29.007  43.172  21.534  0.00  0.00     0.163 HD
BRANCH  13  16
ATOM     16  CAH OAN d          26.921  43.258  20.153  0.00  0.00    -0.003 C 
ATOM     17  H1  OAN d          25.859  42.977  20.100  0.00  0.00     0.040 H 
ATOM     18  H2  OAN d          27.235  43.688  19.190  0.00  0.00     0.040 H 
ATOM     19  H3  OAN d          27.065  44.001  20.951  0.00  0.00     0.040 H 
ENDBRANCH  13  16
ENDBRANCH   1  12
BRANCH   7  20
ATOM     20  OAQ OAN d          31.295  39.898  18.307  0.00  0.00    -0.153 OA
BRANCH  20  21
ATOM     21  CAP OAN d          30.994  40.567  17.158  0.00  0.00     0.389 C 
ATOM     22  OAR OAN d          31.577  40.261  16.109  0.00  0.00    -0.236 OA
ATOM     23  NAO OAN d          30.043  41.539  17.240  0.00  0.00    -0.301 N 
ATOM     24  H14 OAN d          29.613  41.691  18.130  0.00  0.00     0.171 HD
BRANCH  23  25
ATOM     25  CAS OAN d          29.632  42.328  16.191  0.00  0.00     0.036 A 
ATOM     26  CAT OAN d          30.523  43.128  15.432  0.00  0.00    -0.057 A 
ATOM     27  CAU OAN d          30.071  43.938  14.372  0.00  0.00    -0.081 A 
ATOM     28  H15 OAN d          31.579  43.116  15.674  0.00  0.00     0.086 H 
ATOM     29  CAV OAN d          28.713  43.961  14.054  0.00  0.00    -0.083 A 
ATOM     30  H16 OAN d          30.774  44.540  13.807  0.00  0.00     0.083 H 
ATOM     31  CAW OAN d          27.810  43.170  14.782  0.00  0.00    -0.081 A 
ATOM     32  H17 OAN d          28.355  44.589  13.246  0.00  0.00     0.083 H 
ATOM     33  CAX OAN d          28.272  42.362  15.832  0.00  0.00    -0.057 A 
ATOM     34  H18 OAN d          26.755  43.183  14.532  0.00  0.00     0.083 H 
ATOM     35  H19 OAN d          27.564  41.749  16.379  0.00  0.00     0.086 H 
ENDBRANCH  23  25
ENDBRANCH  20  21
ENDBRANCH   7  20
BRANCH   2  36
ATOM     36  OAJ OAN d          29.894  41.194  24.023  0.00  0.00    -0.390 OA
ATOM     37  H7  OAN d          29.213  41.815  24.257  0.00  0.00     0.210 HD
ENDBRANCH   2  36
BRANCH   4  38
ATOM     38  CAF OAN d          34.318  41.617  21.605  0.00  0.00     0.044 C 
ATOM     39  H11 OAN d          34.829  42.532  21.937  0.00  0.00     0.078 H 
ATOM     40  H12 OAN d          34.577  41.412  20.556  0.00  0.00     0.078 H 
BRANCH  38  41
ATOM     41  OAM OAN d          34.744  40.522  22.416  0.00  0.00    -0.398 OA
ATOM     42  H13 OAN d          34.588  40.726  23.330  0.00  0.00     0.209 HD
ENDBRANCH  38  41
ENDBRANCH   4  38
BRANCH   3  43
ATOM     43  OAK OAN d          32.646  41.536  24.133  0.00  0.00    -0.390 OA
ATOM     44  H9  OAN d          32.379  40.926  24.810  0.00  0.00     0.210 HD
ENDBRANCH   3  43
TORSDOF 9
ENDMDL
