MODEL 1
REMARK VINA RESULT:      -8.7      0.000      0.000
REMARK  8 active torsions:
REMARK  status: ('A' for Active; 'I' for Inactive)
REMARK    1  A    between atoms: CAU_6  and  OAS_7 
REMARK    2  A    between atoms: OAS_7  and  CAV_8 
REMARK    3  A    between atoms: CAT_13  and  CAQ_14 
REMARK    4  A    between atoms: CAQ_14  and  CAP_15 
REMARK    5  A    between atoms: CAP_15  and  CAR_16 
REMARK    6  A    between atoms: CAR_16  and  CAW_17 
REMARK    7  A    between atoms: CAW_17  and  PAX_18 
REMARK    8  A    between atoms: CAW_17  and  SAY_22 
ROOT
ATOM      1  CAV B65 d          15.124  52.213  39.584  0.00  0.00     0.076 A 
ATOM      2  CAO B65 d          15.543  51.941  38.283  0.00  0.00    -0.044 A 
ATOM      3  CAN B65 d          15.803  51.648  40.657  0.00  0.00    -0.050 A 
ATOM      4  CAJ B65 d          16.888  50.813  40.421  0.00  0.00    -0.080 A 
ATOM      5  CAK B65 d          17.298  50.535  39.119  0.00  0.00    -0.077 A 
ATOM      6  CAT B65 d          16.619  51.103  38.046  0.00  0.00    -0.056 A 
ATOM      7  H6  B65 d          15.020  52.392  37.448  0.00  0.00     0.088 H 
ATOM      8  H7  B65 d          15.489  51.859  41.673  0.00  0.00     0.087 H 
ATOM      9  H8  B65 d          17.420  50.374  41.257  0.00  0.00     0.083 H 
ATOM     10  H9  B65 d          18.142  49.879  38.943  0.00  0.00     0.084 H 
ENDROOT
BRANCH   6  11
ATOM     11  CAQ B65 d          17.005  50.778  36.598  0.00  0.00    -0.041 C 
ATOM     12  H10 B65 d          16.133  50.947  35.950  0.00  0.00     0.040 H 
ATOM     13  H11 B65 d          17.307  49.722  36.539  0.00  0.00     0.040 H 
BRANCH  11  14
ATOM     14  CAP B65 d          18.163  51.653  36.111  0.00  0.00    -0.059 C 
ATOM     15  H12 B65 d          18.426  51.372  35.080  0.00  0.00     0.033 H 
ATOM     16  H13 B65 d          19.035  51.505  36.765  0.00  0.00     0.033 H 
BRANCH  14  17
ATOM     17  CAR B65 d          17.740  53.121  36.148  0.00  0.00    -0.034 C 
ATOM     18  H14 B65 d          17.028  53.261  36.976  0.00  0.00     0.036 H 
ATOM     19  H15 B65 d          17.249  53.370  35.197  0.00  0.00     0.036 H 
BRANCH  17  20
ATOM     20  CAW B65 d          18.923  54.072  36.353  0.00  0.00     0.169 C 
ATOM     21  H16 B65 d          19.702  53.829  35.616  0.00  0.00     0.090 H 
BRANCH  20  22
ATOM     22  PAX B65 d          19.634  53.890  38.039  0.00  0.00     0.281 P 
ATOM     23  OAB B65 d          18.399  53.808  39.068  0.00  0.00    -0.639 OA
ATOM     24  OAC B65 d          20.358  52.451  38.059  0.00  0.00    -0.639 OA
ATOM     25  OAA B65 d          20.567  54.990  38.379  0.00  0.00    -0.639 OA
ENDBRANCH  20  22
BRANCH  20  26
ATOM     26  SAY B65 d          18.368  55.794  36.085  0.00  0.00     0.119 S 
ATOM     27  OAF B65 d          17.508  55.843  34.942  0.00  0.00    -0.594 OA
ATOM     28  OAE B65 d          19.555  56.677  35.844  0.00  0.00    -0.594 OA
ATOM     29  OAD B65 d          17.645  56.284  37.308  0.00  0.00    -0.594 OA
ENDBRANCH  20  26
ENDBRANCH  17  20
ENDBRANCH  14  17
ENDBRANCH  11  14
ENDBRANCH   6  11
BRANCH   1  30
ATOM     30  OAS B65 d          13.981  52.930  39.734  0.00  0.00    -0.311 OA
BRANCH  30  31
ATOM     31  CAU B65 d          14.074  54.067  40.483  0.00  0.00     0.076 A 
ATOM     32  CAL B65 d          14.966  55.064  40.127  0.00  0.00    -0.050 A 
ATOM     33  CAH B65 d          14.925  56.292  40.791  0.00  0.00    -0.080 A 
ATOM     34  H1  B65 d          15.691  54.892  39.339  0.00  0.00     0.087 H 
ATOM     35  CAG B65 d          13.997  56.512  41.803  0.00  0.00    -0.083 A 
ATOM     36  H2  B65 d          15.619  57.078  40.515  0.00  0.00     0.083 H 
ATOM     37  CAI B65 d          13.109  55.509  42.159  0.00  0.00    -0.080 A 
ATOM     38  H3  B65 d          13.969  57.468  42.313  0.00  0.00     0.083 H 
ATOM     39  CAM B65 d          13.150  54.281  41.500  0.00  0.00    -0.050 A 
ATOM     40  H4  B65 d          12.385  55.679  42.947  0.00  0.00     0.083 H 
ATOM     41  H5  B65 d          12.460  53.492  41.781  0.00  0.00     0.087 H 
ENDBRANCH  30  31
ENDBRANCH   1  30
TORSDOF 8
ENDMDL
MODEL 2
REMARK VINA RESULT:      -8.6      1.780      2.873
REMARK  8 active torsions:
REMARK  status: ('A' for Active; 'I' for Inactive)
REMARK    1  A    between atoms: CAU_6  and  OAS_7 
REMARK    2  A    between atoms: OAS_7  and  CAV_8 
REMARK    3  A    between atoms: CAT_13  and  CAQ_14 
REMARK    4  A    between atoms: CAQ_14  and  CAP_15 
REMARK    5  A    between atoms: CAP_15  and  CAR_16 
REMARK    6  A    between atoms: CAR_16  and  CAW_17 
REMARK    7  A    between atoms: CAW_17  and  PAX_18 
REMARK    8  A    between atoms: CAW_17  and  SAY_22 
ROOT
ATOM      1  CAV B65 d          15.347  52.292  39.404  0.00  0.00     0.076 A 
ATOM      2  CAO B65 d          15.981  52.086  38.180  0.00  0.00    -0.044 A 
ATOM      3  CAN B65 d          15.793  51.614  40.531  0.00  0.00    -0.050 A 
ATOM      4  CAJ B65 d          16.861  50.731  40.425  0.00  0.00    -0.080 A 
ATOM      5  CAK B65 d          17.485  50.519  39.198  0.00  0.00    -0.077 A 
ATOM      6  CAT B65 d          17.040  51.201  38.070  0.00  0.00    -0.056 A 
ATOM      7  H6  B65 d          15.641  52.625  37.303  0.00  0.00     0.088 H 
ATOM      8  H7  B65 d          15.311  51.773  41.489  0.00  0.00     0.087 H 
ATOM      9  H8  B65 d          17.211  50.203  41.305  0.00  0.00     0.083 H 
ATOM     10  H9  B65 d          18.314  49.825  39.123  0.00  0.00     0.084 H 
ENDROOT
BRANCH   6  11
ATOM     11  CAQ B65 d          17.665  50.953  36.693  0.00  0.00    -0.041 C 
ATOM     12  H10 B65 d          16.938  50.423  36.061  0.00  0.00     0.040 H 
ATOM     13  H11 B65 d          18.565  50.332  36.816  0.00  0.00     0.040 H 
BRANCH  11  14
ATOM     14  CAP B65 d          18.058  52.263  36.005  0.00  0.00    -0.059 C 
ATOM     15  H12 B65 d          17.708  53.114  36.609  0.00  0.00     0.033 H 
ATOM     16  H13 B65 d          17.595  52.307  35.008  0.00  0.00     0.033 H 
BRANCH  14  17
ATOM     17  CAR B65 d          19.578  52.328  35.866  0.00  0.00    -0.034 C 
ATOM     18  H14 B65 d          19.858  53.334  35.520  0.00  0.00     0.036 H 
ATOM     19  H15 B65 d          19.895  51.583  35.121  0.00  0.00     0.036 H 
BRANCH  17  20
ATOM     20  CAW B65 d          20.305  52.043  37.183  0.00  0.00     0.169 C 
ATOM     21  H16 B65 d          19.722  51.307  37.756  0.00  0.00     0.090 H 
BRANCH  20  22
ATOM     22  PAX B65 d          20.472  53.571  38.191  0.00  0.00     0.281 P 
ATOM     23  OAB B65 d          20.089  54.811  37.238  0.00  0.00    -0.639 OA
ATOM     24  OAC B65 d          19.329  53.480  39.323  0.00  0.00    -0.639 OA
ATOM     25  OAA B65 d          21.826  53.718  38.775  0.00  0.00    -0.639 OA
ENDBRANCH  20  22
BRANCH  20  26
ATOM     26  SAY B65 d          21.956  51.341  36.824  0.00  0.00     0.119 S 
ATOM     27  OAF B65 d          22.511  50.796  38.025  0.00  0.00    -0.594 OA
ATOM     28  OAE B65 d          22.862  52.417  36.308  0.00  0.00    -0.594 OA
ATOM     29  OAD B65 d          21.828  50.274  35.773  0.00  0.00    -0.594 OA
ENDBRANCH  20  26
ENDBRANCH  17  20
ENDBRANCH  14  17
ENDBRANCH  11  14
ENDBRANCH   6  11
BRANCH   1  30
ATOM     30  OAS B65 d          14.233  53.068  39.405  0.00  0.00    -0.311 OA
BRANCH  30  31
ATOM     31  CAU B65 d          14.211  54.094  40.304  0.00  0.00     0.076 A 
ATOM     32  CAL B65 d          15.078  55.164  40.158  0.00  0.00    -0.050 A 
ATOM     33  CAH B65 d          14.924  56.289  40.973  0.00  0.00    -0.080 A 
ATOM     34  H1  B65 d          15.868  55.130  39.416  0.00  0.00     0.087 H 
ATOM     35  CAG B65 d          13.912  56.333  41.925  0.00  0.00    -0.083 A 
ATOM     36  H2  B65 d          15.598  57.131  40.862  0.00  0.00     0.083 H 
ATOM     37  CAI B65 d          13.050  55.256  42.070  0.00  0.00    -0.080 A 
ATOM     38  H3  B65 d          13.797  57.208  42.554  0.00  0.00     0.083 H 
ATOM     39  CAM B65 d          13.202  54.132  41.260  0.00  0.00    -0.050 A 
ATOM     40  H4  B65 d          12.260  55.289  42.812  0.00  0.00     0.083 H 
ATOM     41  H5  B65 d          12.533  53.286  41.376  0.00  0.00     0.087 H 
ENDBRANCH  30  31
ENDBRANCH   1  30
TORSDOF 8
ENDMDL
MODEL 3
REMARK VINA RESULT:      -8.5      3.055      4.099
REMARK  8 active torsions:
REMARK  status: ('A' for Active; 'I' for Inactive)
REMARK    1  A    between atoms: CAU_6  and  OAS_7 
REMARK    2  A    between atoms: OAS_7  and  CAV_8 
REMARK    3  A    between atoms: CAT_13  and  CAQ_14 
REMARK    4  A    between atoms: CAQ_14  and  CAP_15 
REMARK    5  A    between atoms: CAP_15  and  CAR_16 
REMARK    6  A    between atoms: CAR_16  and  CAW_17 
REMARK    7  A    between atoms: CAW_17  and  PAX_18 
REMARK    8  A    between atoms: CAW_17  and  SAY_22 
ROOT
ATOM      1  CAV B65 d          15.065  56.353  38.675  0.00  0.00     0.076 A 
ATOM      2  CAO B65 d          16.219  56.102  37.936  0.00  0.00    -0.044 A 
ATOM      3  CAN B65 d          13.876  56.639  38.017  0.00  0.00    -0.050 A 
ATOM      4  CAJ B65 d          13.851  56.679  36.628  0.00  0.00    -0.080 A 
ATOM      5  CAK B65 d          15.010  56.439  35.892  0.00  0.00    -0.077 A 
ATOM      6  CAT B65 d          16.199  56.150  36.552  0.00  0.00    -0.056 A 
ATOM      7  H6  B65 d          17.144  55.867  38.450  0.00  0.00     0.088 H 
ATOM      8  H7  B65 d          12.971  56.828  38.583  0.00  0.00     0.087 H 
ATOM      9  H8  B65 d          12.924  56.900  36.113  0.00  0.00     0.083 H 
ATOM     10  H9  B65 d          14.984  56.478  34.810  0.00  0.00     0.084 H 
ENDROOT
BRANCH   6  11
ATOM     11  CAQ B65 d          17.506  55.934  35.780  0.00  0.00    -0.041 C 
ATOM     12  H10 B65 d          17.493  56.562  34.876  0.00  0.00     0.040 H 
ATOM     13  H11 B65 d          17.576  54.876  35.489  0.00  0.00     0.040 H 
BRANCH  11  14
ATOM     14  CAP B65 d          18.730  56.301  36.622  0.00  0.00    -0.059 C 
ATOM     15  H12 B65 d          18.410  56.883  37.499  0.00  0.00     0.033 H 
ATOM     16  H13 B65 d          19.425  56.901  36.017  0.00  0.00     0.033 H 
BRANCH  14  17
ATOM     17  CAR B65 d          19.428  55.022  37.085  0.00  0.00    -0.034 C 
ATOM     18  H14 B65 d          20.516  55.175  37.027  0.00  0.00     0.036 H 
ATOM     19  H15 B65 d          19.137  54.200  36.415  0.00  0.00     0.036 H 
BRANCH  17  20
ATOM     20  CAW B65 d          19.064  54.636  38.521  0.00  0.00     0.169 C 
ATOM     21  H16 B65 d          18.280  55.318  38.882  0.00  0.00     0.090 H 
BRANCH  20  22
ATOM     22  PAX B65 d          20.520  54.777  39.634  0.00  0.00     0.281 P 
ATOM     23  OAB B65 d          20.125  54.067  41.024  0.00  0.00    -0.639 OA
ATOM     24  OAC B65 d          21.677  53.879  38.961  0.00  0.00    -0.639 OA
ATOM     25  OAA B65 d          20.947  56.182  39.831  0.00  0.00    -0.639 OA
ENDBRANCH  20  22
BRANCH  20  26
ATOM     26  SAY B65 d          18.417  52.926  38.542  0.00  0.00     0.119 S 
ATOM     27  OAF B65 d          18.097  52.555  39.887  0.00  0.00    -0.594 OA
ATOM     28  OAE B65 d          19.453  51.985  38.007  0.00  0.00    -0.594 OA
ATOM     29  OAD B65 d          17.195  52.841  37.670  0.00  0.00    -0.594 OA
ENDBRANCH  20  26
ENDBRANCH  17  20
ENDBRANCH  14  17
ENDBRANCH  11  14
ENDBRANCH   6  11
BRANCH   1  30
ATOM     30  OAS B65 d          15.193  56.424  40.025  0.00  0.00    -0.311 OA
BRANCH  30  31
ATOM     31  CAU B65 d          14.163  55.910  40.758  0.00  0.00     0.076 A 
ATOM     32  CAL B65 d          13.789  54.587  40.599  0.00  0.00    -0.050 A 
ATOM     33  CAH B65 d          12.859  54.026  41.479  0.00  0.00    -0.080 A 
ATOM     34  H1  B65 d          14.213  53.991  39.799  0.00  0.00     0.087 H 
ATOM     35  CAG B65 d          12.312  54.790  42.503  0.00  0.00    -0.083 A 
ATOM     36  H2  B65 d          12.563  52.989  41.361  0.00  0.00     0.083 H 
ATOM     37  CAI B65 d          12.687  56.116  42.656  0.00  0.00    -0.080 A 
ATOM     38  H3  B65 d          11.593  54.348  43.184  0.00  0.00     0.083 H 
ATOM     39  CAM B65 d          13.613  56.679  41.778  0.00  0.00    -0.050 A 
ATOM     40  H4  B65 d          12.262  56.713  43.454  0.00  0.00     0.083 H 
ATOM     41  H5  B65 d          13.903  57.718  41.890  0.00  0.00     0.087 H 
ENDBRANCH  30  31
ENDBRANCH   1  30
TORSDOF 8
ENDMDL
MODEL 4
REMARK VINA RESULT:      -8.3      2.707      4.309
REMARK  8 active torsions:
REMARK  status: ('A' for Active; 'I' for Inactive)
REMARK    1  A    between atoms: CAU_6  and  OAS_7 
REMARK    2  A    between atoms: OAS_7  and  CAV_8 
REMARK    3  A    between atoms: CAT_13  and  CAQ_14 
REMARK    4  A    between atoms: CAQ_14  and  CAP_15 
REMARK    5  A    between atoms: CAP_15  and  CAR_16 
REMARK    6  A    between atoms: CAR_16  and  CAW_17 
REMARK    7  A    between atoms: CAW_17  and  PAX_18 
REMARK    8  A    between atoms: CAW_17  and  SAY_22 
ROOT
ATOM      1  CAV B65 d          15.279  56.214  38.516  0.00  0.00     0.076 A 
ATOM      2  CAO B65 d          16.463  56.134  37.786  0.00  0.00    -0.044 A 
ATOM      3  CAN B65 d          14.084  56.484  37.860  0.00  0.00    -0.050 A 
ATOM      4  CAJ B65 d          14.084  56.679  36.485  0.00  0.00    -0.080 A 
ATOM      5  CAK B65 d          15.271  56.609  35.759  0.00  0.00    -0.077 A 
ATOM      6  CAT B65 d          16.466  56.336  36.415  0.00  0.00    -0.056 A 
ATOM      7  H6  B65 d          17.393  55.911  38.296  0.00  0.00     0.088 H 
ATOM      8  H7  B65 d          13.157  56.541  38.419  0.00  0.00     0.087 H 
ATOM      9  H8  B65 d          13.152  56.887  35.972  0.00  0.00     0.083 H 
ATOM     10  H9  B65 d          15.263  56.767  34.687  0.00  0.00     0.084 H 
ENDROOT
BRANCH   6  11
ATOM     11  CAQ B65 d          17.800  56.304  35.660  0.00  0.00    -0.041 C 
ATOM     12  H10 B65 d          18.137  57.337  35.489  0.00  0.00     0.040 H 
ATOM     13  H11 B65 d          17.649  55.804  34.693  0.00  0.00     0.040 H 
BRANCH  11  14
ATOM     14  CAP B65 d          18.878  55.554  36.445  0.00  0.00    -0.059 C 
ATOM     15  H12 B65 d          18.737  55.729  37.522  0.00  0.00     0.033 H 
ATOM     16  H13 B65 d          19.872  55.916  36.142  0.00  0.00     0.033 H 
BRANCH  14  17
ATOM     17  CAR B65 d          18.770  54.058  36.152  0.00  0.00    -0.034 C 
ATOM     18  H14 B65 d          19.269  53.849  35.194  0.00  0.00     0.036 H 
ATOM     19  H15 B65 d          17.706  53.790  36.077  0.00  0.00     0.036 H 
BRANCH  17  20
ATOM     20  CAW B65 d          19.416  53.194  37.240  0.00  0.00     0.169 C 
ATOM     21  H16 B65 d          20.167  53.798  37.769  0.00  0.00     0.090 H 
BRANCH  20  22
ATOM     22  PAX B65 d          20.250  51.727  36.511  0.00  0.00     0.281 P 
ATOM     23  OAB B65 d          21.197  52.260  35.325  0.00  0.00    -0.639 OA
ATOM     24  OAC B65 d          21.219  51.154  37.664  0.00  0.00    -0.639 OA
ATOM     25  OAA B65 d          19.285  50.707  36.035  0.00  0.00    -0.639 OA
ENDBRANCH  20  22
BRANCH  20  26
ATOM     26  SAY B65 d          18.134  52.664  38.432  0.00  0.00     0.119 S 
ATOM     27  OAF B65 d          18.362  51.300  38.799  0.00  0.00    -0.594 OA
ATOM     28  OAE B65 d          16.778  52.783  37.805  0.00  0.00    -0.594 OA
ATOM     29  OAD B65 d          18.182  53.549  39.646  0.00  0.00    -0.594 OA
ENDBRANCH  20  26
ENDBRANCH  17  20
ENDBRANCH  14  17
ENDBRANCH  11  14
ENDBRANCH   6  11
BRANCH   1  30
ATOM     30  OAS B65 d          15.375  56.141  39.869  0.00  0.00    -0.311 OA
BRANCH  30  31
ATOM     31  CAU B65 d          14.556  55.242  40.486  0.00  0.00     0.076 A 
ATOM     32  CAL B65 d          13.524  55.683  41.296  0.00  0.00    -0.050 A 
ATOM     33  CAH B65 d          12.586  54.765  41.774  0.00  0.00    -0.080 A 
ATOM     34  H1  B65 d          13.444  56.732  41.557  0.00  0.00     0.087 H 
ATOM     35  CAG B65 d          12.688  53.419  41.442  0.00  0.00    -0.083 A 
ATOM     36  H2  B65 d          11.774  55.104  42.408  0.00  0.00     0.083 H 
ATOM     37  CAI B65 d          13.727  52.981  40.634  0.00  0.00    -0.080 A 
ATOM     38  H3  B65 d          11.956  52.712  41.815  0.00  0.00     0.083 H 
ATOM     39  CAM B65 d          14.666  53.895  40.157  0.00  0.00    -0.050 A 
ATOM     40  H4  B65 d          13.807  51.932  40.373  0.00  0.00     0.083 H 
ATOM     41  H5  B65 d          15.483  53.555  39.530  0.00  0.00     0.087 H 
ENDBRANCH  30  31
ENDBRANCH   1  30
TORSDOF 8
ENDMDL
MODEL 5
REMARK VINA RESULT:      -8.2      1.705      4.443
REMARK  8 active torsions:
REMARK  status: ('A' for Active; 'I' for Inactive)
REMARK    1  A    between atoms: CAU_6  and  OAS_7 
REMARK    2  A    between atoms: OAS_7  and  CAV_8 
REMARK    3  A    between atoms: CAT_13  and  CAQ_14 
REMARK    4  A    between atoms: CAQ_14  and  CAP_15 
REMARK    5  A    between atoms: CAP_15  and  CAR_16 
REMARK    6  A    between atoms: CAR_16  and  CAW_17 
REMARK    7  A    between atoms: CAW_17  and  PAX_18 
REMARK    8  A    between atoms: CAW_17  and  SAY_22 
ROOT
ATOM      1  CAV B65 d          14.725  54.048  39.906  0.00  0.00     0.076 A 
ATOM      2  CAO B65 d          15.430  54.342  38.740  0.00  0.00    -0.044 A 
ATOM      3  CAN B65 d          14.131  55.075  40.628  0.00  0.00    -0.050 A 
ATOM      4  CAJ B65 d          14.253  56.387  40.185  0.00  0.00    -0.080 A 
ATOM      5  CAK B65 d          14.967  56.679  39.025  0.00  0.00    -0.077 A 
ATOM      6  CAT B65 d          15.559  55.650  38.301  0.00  0.00    -0.056 A 
ATOM      7  H6  B65 d          15.882  53.539  38.170  0.00  0.00     0.088 H 
ATOM      8  H7  B65 d          13.575  54.855  41.532  0.00  0.00     0.087 H 
ATOM      9  H8  B65 d          13.788  57.189  40.746  0.00  0.00     0.083 H 
ATOM     10  H9  B65 d          15.061  57.705  38.689  0.00  0.00     0.084 H 
ENDROOT
BRANCH   6  11
ATOM     11  CAQ B65 d          16.398  55.937  37.051  0.00  0.00    -0.041 C 
ATOM     12  H10 B65 d          17.348  56.398  37.358  0.00  0.00     0.040 H 
ATOM     13  H11 B65 d          15.846  56.633  36.403  0.00  0.00     0.040 H 
BRANCH  11  14
ATOM     14  CAP B65 d          16.698  54.659  36.264  0.00  0.00    -0.059 C 
ATOM     15  H12 B65 d          16.317  54.762  35.237  0.00  0.00     0.033 H 
ATOM     16  H13 B65 d          16.208  53.803  36.753  0.00  0.00     0.033 H 
BRANCH  14  17
ATOM     17  CAR B65 d          18.209  54.428  36.228  0.00  0.00    -0.034 C 
ATOM     18  H14 B65 d          18.716  55.393  36.377  0.00  0.00     0.036 H 
ATOM     19  H15 B65 d          18.478  54.021  35.243  0.00  0.00     0.036 H 
BRANCH  17  20
ATOM     20  CAW B65 d          18.684  53.452  37.308  0.00  0.00     0.169 C 
ATOM     21  H16 B65 d          17.804  53.044  37.826  0.00  0.00     0.090 H 
BRANCH  20  22
ATOM     22  PAX B65 d          19.751  54.300  38.542  0.00  0.00     0.281 P 
ATOM     23  OAB B65 d          19.734  55.869  38.185  0.00  0.00    -0.639 OA
ATOM     24  OAC B65 d          19.002  54.133  39.960  0.00  0.00    -0.639 OA
ATOM     25  OAA B65 d          21.127  53.752  38.570  0.00  0.00    -0.639 OA
ENDBRANCH  20  22
BRANCH  20  26
ATOM     26  SAY B65 d          19.599  52.078  36.521  0.00  0.00     0.119 S 
ATOM     27  OAF B65 d          20.693  52.607  35.766  0.00  0.00    -0.594 OA
ATOM     28  OAE B65 d          18.688  51.323  35.602  0.00  0.00    -0.594 OA
ATOM     29  OAD B65 d          20.100  51.137  37.582  0.00  0.00    -0.594 OA
ENDBRANCH  20  26
ENDBRANCH  17  20
ENDBRANCH  14  17
ENDBRANCH  11  14
ENDBRANCH   6  11
BRANCH   1  30
ATOM     30  OAS B65 d          14.758  52.764  40.346  0.00  0.00    -0.311 OA
BRANCH  30  31
ATOM     31  CAU B65 d          15.550  51.903  39.643  0.00  0.00     0.076 A 
ATOM     32  CAL B65 d          16.565  51.212  40.282  0.00  0.00    -0.050 A 
ATOM     33  CAH B65 d          17.248  50.205  39.596  0.00  0.00    -0.080 A 
ATOM     34  H1  B65 d          16.828  51.451  41.306  0.00  0.00     0.087 H 
ATOM     35  CAG B65 d          16.913  49.899  38.282  0.00  0.00    -0.083 A 
ATOM     36  H2  B65 d          18.043  49.658  40.091  0.00  0.00     0.083 H 
ATOM     37  CAI B65 d          15.897  50.597  37.644  0.00  0.00    -0.080 A 
ATOM     38  H3  B65 d          17.445  49.115  37.755  0.00  0.00     0.083 H 
ATOM     39  CAM B65 d          15.217  51.605  38.326  0.00  0.00    -0.050 A 
ATOM     40  H4  B65 d          15.635  50.359  36.620  0.00  0.00     0.083 H 
ATOM     41  H5  B65 d          14.427  52.157  37.828  0.00  0.00     0.087 H 
ENDBRANCH  30  31
ENDBRANCH   1  30
TORSDOF 8
ENDMDL
MODEL 6
REMARK VINA RESULT:      -8.0      2.750      4.212
REMARK  8 active torsions:
REMARK  status: ('A' for Active; 'I' for Inactive)
REMARK    1  A    between atoms: CAU_6  and  OAS_7 
REMARK    2  A    between atoms: OAS_7  and  CAV_8 
REMARK    3  A    between atoms: CAT_13  and  CAQ_14 
REMARK    4  A    between atoms: CAQ_14  and  CAP_15 
REMARK    5  A    between atoms: CAP_15  and  CAR_16 
REMARK    6  A    between atoms: CAR_16  and  CAW_17 
REMARK    7  A    between atoms: CAW_17  and  PAX_18 
REMARK    8  A    between atoms: CAW_17  and  SAY_22 
ROOT
ATOM      1  CAV B65 d          15.250  56.235  38.927  0.00  0.00     0.076 A 
ATOM      2  CAO B65 d          16.383  55.739  38.286  0.00  0.00    -0.044 A 
ATOM      3  CAN B65 d          14.172  56.679  38.172  0.00  0.00    -0.050 A 
ATOM      4  CAJ B65 d          14.238  56.631  36.785  0.00  0.00    -0.080 A 
ATOM      5  CAK B65 d          15.376  56.144  36.146  0.00  0.00    -0.077 A 
ATOM      6  CAT B65 d          16.454  55.697  36.903  0.00  0.00    -0.056 A 
ATOM      7  H6  B65 d          17.219  55.381  38.875  0.00  0.00     0.088 H 
ATOM      8  H7  B65 d          13.284  57.061  38.662  0.00  0.00     0.087 H 
ATOM      9  H8  B65 d          13.396  56.975  36.194  0.00  0.00     0.083 H 
ATOM     10  H9  B65 d          15.421  56.114  35.064  0.00  0.00     0.084 H 
ENDROOT
BRANCH   6  11
ATOM     11  CAQ B65 d          17.744  55.206  36.237  0.00  0.00    -0.041 C 
ATOM     12  H10 B65 d          17.927  55.802  35.331  0.00  0.00     0.040 H 
ATOM     13  H11 B65 d          17.622  54.148  35.961  0.00  0.00     0.040 H 
BRANCH  11  14
ATOM     14  CAP B65 d          18.950  55.339  37.170  0.00  0.00    -0.059 C 
ATOM     15  H12 B65 d          18.797  56.193  37.847  0.00  0.00     0.033 H 
ATOM     16  H13 B65 d          19.860  55.502  36.573  0.00  0.00     0.033 H 
BRANCH  14  17
ATOM     17  CAR B65 d          19.100  54.058  37.991  0.00  0.00    -0.034 C 
ATOM     18  H14 B65 d          18.582  54.193  38.952  0.00  0.00     0.036 H 
ATOM     19  H15 B65 d          20.170  53.881  38.173  0.00  0.00     0.036 H 
BRANCH  17  20
ATOM     20  CAW B65 d          18.513  52.832  37.286  0.00  0.00     0.169 C 
ATOM     21  H16 B65 d          17.838  53.174  36.487  0.00  0.00     0.090 H 
BRANCH  20  22
ATOM     22  PAX B65 d          17.553  51.791  38.458  0.00  0.00     0.281 P 
ATOM     23  OAB B65 d          18.019  52.198  39.944  0.00  0.00    -0.639 OA
ATOM     24  OAC B65 d          16.017  52.256  38.304  0.00  0.00    -0.639 OA
ATOM     25  OAA B65 d          17.726  50.342  38.199  0.00  0.00    -0.639 OA
ENDBRANCH  20  22
BRANCH  20  26
ATOM     26  SAY B65 d          19.868  51.856  36.540  0.00  0.00     0.119 S 
ATOM     27  OAF B65 d          20.559  52.661  35.579  0.00  0.00    -0.594 OA
ATOM     28  OAE B65 d          19.306  50.648  35.856  0.00  0.00    -0.594 OA
ATOM     29  OAD B65 d          20.811  51.402  37.620  0.00  0.00    -0.594 OA
ENDBRANCH  20  26
ENDBRANCH  17  20
ENDBRANCH  14  17
ENDBRANCH  11  14
ENDBRANCH   6  11
BRANCH   1  30
ATOM     30  OAS B65 d          15.308  56.373  40.277  0.00  0.00    -0.311 OA
BRANCH  30  31
ATOM     31  CAU B65 d          14.226  55.926  40.977  0.00  0.00     0.076 A 
ATOM     32  CAL B65 d          13.712  54.664  40.731  0.00  0.00    -0.050 A 
ATOM     33  CAH B65 d          12.724  54.149  41.575  0.00  0.00    -0.080 A 
ATOM     34  H1  B65 d          14.072  54.081  39.892  0.00  0.00     0.087 H 
ATOM     35  CAG B65 d          12.259  54.897  42.650  0.00  0.00    -0.083 A 
ATOM     36  H2  B65 d          12.318  53.161  41.389  0.00  0.00     0.083 H 
ATOM     37  CAI B65 d          12.775  56.162  42.890  0.00  0.00    -0.080 A 
ATOM     38  H3  B65 d          11.494  54.491  43.302  0.00  0.00     0.083 H 
ATOM     39  CAM B65 d          13.759  56.679  42.048  0.00  0.00    -0.050 A 
ATOM     40  H4  B65 d          12.414  56.746  43.729  0.00  0.00     0.083 H 
ATOM     41  H5  B65 d          14.159  57.671  42.229  0.00  0.00     0.087 H 
ENDBRANCH  30  31
ENDBRANCH   1  30
TORSDOF 8
ENDMDL
MODEL 7
REMARK VINA RESULT:      -8.0      1.244      2.175
REMARK  8 active torsions:
REMARK  status: ('A' for Active; 'I' for Inactive)
REMARK    1  A    between atoms: CAU_6  and  OAS_7 
REMARK    2  A    between atoms: OAS_7  and  CAV_8 
REMARK    3  A    between atoms: CAT_13  and  CAQ_14 
REMARK    4  A    between atoms: CAQ_14  and  CAP_15 
REMARK    5  A    between atoms: CAP_15  and  CAR_16 
REMARK    6  A    between atoms: CAR_16  and  CAW_17 
REMARK    7  A    between atoms: CAW_17  and  PAX_18 
REMARK    8  A    between atoms: CAW_17  and  SAY_22 
ROOT
ATOM      1  CAV B65 d          15.037  52.190  39.548  0.00  0.00     0.076 A 
ATOM      2  CAO B65 d          15.398  51.832  38.251  0.00  0.00    -0.044 A 
ATOM      3  CAN B65 d          15.799  51.744  40.621  0.00  0.00    -0.050 A 
ATOM      4  CAJ B65 d          16.908  50.940  40.390  0.00  0.00    -0.080 A 
ATOM      5  CAK B65 d          17.259  50.574  39.092  0.00  0.00    -0.077 A 
ATOM      6  CAT B65 d          16.498  51.023  38.019  0.00  0.00    -0.056 A 
ATOM      7  H6  B65 d          14.811  52.191  37.414  0.00  0.00     0.088 H 
ATOM      8  H7  B65 d          15.530  52.023  41.634  0.00  0.00     0.087 H 
ATOM      9  H8  B65 d          17.504  50.593  41.226  0.00  0.00     0.083 H 
ATOM     10  H9  B65 d          18.123  49.943  38.921  0.00  0.00     0.084 H 
ENDROOT
BRANCH   6  11
ATOM     11  CAQ B65 d          16.821  50.598  36.582  0.00  0.00    -0.041 C 
ATOM     12  H10 B65 d          16.074  51.037  35.904  0.00  0.00     0.040 H 
ATOM     13  H11 B65 d          16.776  49.502  36.516  0.00  0.00     0.040 H 
BRANCH  11  14
ATOM     14  CAP B65 d          18.214  51.064  36.153  0.00  0.00    -0.059 C 
ATOM     15  H12 B65 d          18.499  50.557  35.219  0.00  0.00     0.033 H 
ATOM     16  H13 B65 d          18.942  50.818  36.940  0.00  0.00     0.033 H 
BRANCH  14  17
ATOM     17  CAR B65 d          18.197  52.576  35.928  0.00  0.00    -0.034 C 
ATOM     18  H14 B65 d          17.343  53.004  36.475  0.00  0.00     0.036 H 
ATOM     19  H15 B65 d          18.077  52.770  34.852  0.00  0.00     0.036 H 
BRANCH  17  20
ATOM     20  CAW B65 d          19.480  53.260  36.410  0.00  0.00     0.169 C 
ATOM     21  H16 B65 d          19.830  53.946  35.625  0.00  0.00     0.090 H 
BRANCH  20  22
ATOM     22  PAX B65 d          20.802  52.027  36.743  0.00  0.00     0.281 P 
ATOM     23  OAB B65 d          21.328  51.499  35.317  0.00  0.00    -0.639 OA
ATOM     24  OAC B65 d          22.014  52.851  37.414  0.00  0.00    -0.639 OA
ATOM     25  OAA B65 d          20.335  50.917  37.607  0.00  0.00    -0.639 OA
ENDBRANCH  20  22
BRANCH  20  26
ATOM     26  SAY B65 d          19.120  54.223  37.922  0.00  0.00     0.119 S 
ATOM     27  OAF B65 d          17.788  54.741  37.850  0.00  0.00    -0.594 OA
ATOM     28  OAE B65 d          20.085  55.363  38.038  0.00  0.00    -0.594 OA
ATOM     29  OAD B65 d          19.274  53.338  39.128  0.00  0.00    -0.594 OA
ENDBRANCH  20  26
ENDBRANCH  17  20
ENDBRANCH  14  17
ENDBRANCH  11  14
ENDBRANCH   6  11
BRANCH   1  30
ATOM     30  OAS B65 d          13.872  52.869  39.706  0.00  0.00    -0.311 OA
BRANCH  30  31
ATOM     31  CAU B65 d          13.956  54.080  40.328  0.00  0.00     0.076 A 
ATOM     32  CAL B65 d          13.159  54.354  41.427  0.00  0.00    -0.050 A 
ATOM     33  CAH B65 d          13.382  55.521  42.163  0.00  0.00    -0.080 A 
ATOM     34  H1  B65 d          12.370  53.669  41.715  0.00  0.00     0.087 H 
ATOM     35  CAG B65 d          14.393  56.401  41.794  0.00  0.00    -0.083 A 
ATOM     36  H2  B65 d          12.763  55.741  43.025  0.00  0.00     0.083 H 
ATOM     37  CAI B65 d          15.185  56.124  40.690  0.00  0.00    -0.080 A 
ATOM     38  H3  B65 d          14.562  57.304  42.369  0.00  0.00     0.083 H 
ATOM     39  CAM B65 d          14.963  54.962  39.952  0.00  0.00    -0.050 A 
ATOM     40  H4  B65 d          15.974  56.809  40.401  0.00  0.00     0.083 H 
ATOM     41  H5  B65 d          15.577  54.745  39.085  0.00  0.00     0.087 H 
ENDBRANCH  30  31
ENDBRANCH   1  30
TORSDOF 8
ENDMDL
MODEL 8
REMARK VINA RESULT:      -7.9      2.928      4.194
REMARK  8 active torsions:
REMARK  status: ('A' for Active; 'I' for Inactive)
REMARK    1  A    between atoms: CAU_6  and  OAS_7 
REMARK    2  A    between atoms: OAS_7  and  CAV_8 
REMARK    3  A    between atoms: CAT_13  and  CAQ_14 
REMARK    4  A    between atoms: CAQ_14  and  CAP_15 
REMARK    5  A    between atoms: CAP_15  and  CAR_16 
REMARK    6  A    between atoms: CAR_16  and  CAW_17 
REMARK    7  A    between atoms: CAW_17  and  PAX_18 
REMARK    8  A    between atoms: CAW_17  and  SAY_22 
ROOT
ATOM      1  CAV B65 d          14.997  53.710  38.957  0.00  0.00     0.076 A 
ATOM      2  CAO B65 d          16.086  52.867  38.749  0.00  0.00    -0.044 A 
ATOM      3  CAN B65 d          14.829  54.827  38.148  0.00  0.00    -0.050 A 
ATOM      4  CAJ B65 d          15.753  55.096  37.145  0.00  0.00    -0.080 A 
ATOM      5  CAK B65 d          16.847  54.256  36.948  0.00  0.00    -0.077 A 
ATOM      6  CAT B65 d          17.013  53.137  37.756  0.00  0.00    -0.056 A 
ATOM      7  H6  B65 d          16.210  51.989  39.372  0.00  0.00     0.088 H 
ATOM      8  H7  B65 d          13.981  55.486  38.297  0.00  0.00     0.087 H 
ATOM      9  H8  B65 d          15.622  55.965  36.512  0.00  0.00     0.083 H 
ATOM     10  H9  B65 d          17.566  54.475  36.167  0.00  0.00     0.084 H 
ENDROOT
BRANCH   6  11
ATOM     11  CAQ B65 d          18.232  52.220  37.605  0.00  0.00    -0.041 C 
ATOM     12  H10 B65 d          18.198  51.450  38.389  0.00  0.00     0.040 H 
ATOM     13  H11 B65 d          19.146  52.821  37.721  0.00  0.00     0.040 H 
BRANCH  11  14
ATOM     14  CAP B65 d          18.260  51.535  36.236  0.00  0.00    -0.059 C 
ATOM     15  H12 B65 d          18.244  52.298  35.444  0.00  0.00     0.033 H 
ATOM     16  H13 B65 d          17.379  50.883  36.135  0.00  0.00     0.033 H 
BRANCH  14  17
ATOM     17  CAR B65 d          19.533  50.698  36.114  0.00  0.00    -0.034 C 
ATOM     18  H14 B65 d          19.341  49.864  35.421  0.00  0.00     0.036 H 
ATOM     19  H15 B65 d          19.787  50.298  37.106  0.00  0.00     0.036 H 
BRANCH  17  20
ATOM     20  CAW B65 d          20.724  51.505  35.591  0.00  0.00     0.169 C 
ATOM     21  H16 B65 d          20.387  52.529  35.370  0.00  0.00     0.090 H 
BRANCH  20  22
ATOM     22  PAX B65 d          21.399  50.766  34.049  0.00  0.00     0.281 P 
ATOM     23  OAB B65 d          22.359  49.551  34.487  0.00  0.00    -0.639 OA
ATOM     24  OAC B65 d          20.139  50.115  33.284  0.00  0.00    -0.639 OA
ATOM     25  OAA B65 d          22.109  51.759  33.210  0.00  0.00    -0.639 OA
ENDBRANCH  20  22
BRANCH  20  26
ATOM     26  SAY B65 d          22.021  51.573  36.878  0.00  0.00     0.119 S 
ATOM     27  OAF B65 d          23.195  52.187  36.337  0.00  0.00    -0.594 OA
ATOM     28  OAE B65 d          22.357  50.186  37.332  0.00  0.00    -0.594 OA
ATOM     29  OAD B65 d          21.516  52.357  38.058  0.00  0.00    -0.594 OA
ENDBRANCH  20  26
ENDBRANCH  17  20
ENDBRANCH  14  17
ENDBRANCH  11  14
ENDBRANCH   6  11
BRANCH   1  30
ATOM     30  OAS B65 d          14.210  53.458  40.034  0.00  0.00    -0.311 OA
BRANCH  30  31
ATOM     31  CAU B65 d          13.887  54.531  40.812  0.00  0.00     0.076 A 
ATOM     32  CAL B65 d          12.774  54.483  41.635  0.00  0.00    -0.050 A 
ATOM     33  CAH B65 d          12.557  55.511  42.557  0.00  0.00    -0.080 A 
ATOM     34  H1  B65 d          12.078  53.655  41.566  0.00  0.00     0.087 H 
ATOM     35  CAG B65 d          13.449  56.574  42.645  0.00  0.00    -0.083 A 
ATOM     36  H2  B65 d          11.690  55.479  43.206  0.00  0.00     0.083 H 
ATOM     37  CAI B65 d          14.559  56.620  41.815  0.00  0.00    -0.080 A 
ATOM     38  H3  B65 d          13.276  57.368  43.363  0.00  0.00     0.083 H 
ATOM     39  CAM B65 d          14.776  55.597  40.893  0.00  0.00    -0.050 A 
ATOM     40  H4  B65 d          15.255  57.448  41.883  0.00  0.00     0.083 H 
ATOM     41  H5  B65 d          15.640  55.633  40.238  0.00  0.00     0.087 H 
ENDBRANCH  30  31
ENDBRANCH   1  30
TORSDOF 8
ENDMDL
MODEL 9
REMARK VINA RESULT:      -7.9      2.548      4.043
REMARK  8 active torsions:
REMARK  status: ('A' for Active; 'I' for Inactive)
REMARK    1  A    between atoms: CAU_6  and  OAS_7 
REMARK    2  A    between atoms: OAS_7  and  CAV_8 
REMARK    3  A    between atoms: CAT_13  and  CAQ_14 
REMARK    4  A    between atoms: CAQ_14  and  CAP_15 
REMARK    5  A    between atoms: CAP_15  and  CAR_16 
REMARK    6  A    between atoms: CAR_16  and  CAW_17 
REMARK    7  A    between atoms: CAW_17  and  PAX_18 
REMARK    8  A    between atoms: CAW_17  and  SAY_22 
ROOT
ATOM      1  CAV B65 d          15.133  56.146  38.767  0.00  0.00     0.076 A 
ATOM      2  CAO B65 d          16.275  56.192  37.969  0.00  0.00    -0.044 A 
ATOM      3  CAN B65 d          13.885  56.359  38.195  0.00  0.00    -0.050 A 
ATOM      4  CAJ B65 d          13.789  56.623  36.834  0.00  0.00    -0.080 A 
ATOM      5  CAK B65 d          14.933  56.679  36.041  0.00  0.00    -0.077 A 
ATOM      6  CAT B65 d          16.182  56.463  36.614  0.00  0.00    -0.056 A 
ATOM      7  H6  B65 d          17.247  56.013  38.414  0.00  0.00     0.088 H 
ATOM      8  H7  B65 d          12.991  56.319  38.806  0.00  0.00     0.087 H 
ATOM      9  H8  B65 d          12.816  56.788  36.386  0.00  0.00     0.083 H 
ATOM     10  H9  B65 d          14.850  56.891  34.982  0.00  0.00     0.084 H 
ENDROOT
BRANCH   6  11
ATOM     11  CAQ B65 d          17.467  56.570  35.785  0.00  0.00    -0.041 C 
ATOM     12  H10 B65 d          18.285  56.909  36.438  0.00  0.00     0.040 H 
ATOM     13  H11 B65 d          17.312  57.305  34.982  0.00  0.00     0.040 H 
BRANCH  11  14
ATOM     14  CAP B65 d          17.852  55.227  35.162  0.00  0.00    -0.059 C 
ATOM     15  H12 B65 d          18.912  55.249  34.868  0.00  0.00     0.033 H 
ATOM     16  H13 B65 d          17.230  55.042  34.274  0.00  0.00     0.033 H 
BRANCH  14  17
ATOM     17  CAR B65 d          17.629  54.111  36.183  0.00  0.00    -0.034 C 
ATOM     18  H14 B65 d          16.906  53.393  35.768  0.00  0.00     0.036 H 
ATOM     19  H15 B65 d          17.220  54.553  37.103  0.00  0.00     0.036 H 
BRANCH  17  20
ATOM     20  CAW B65 d          18.919  53.362  36.531  0.00  0.00     0.169 C 
ATOM     21  H16 B65 d          19.641  53.504  35.714  0.00  0.00     0.090 H 
BRANCH  20  22
ATOM     22  PAX B65 d          18.605  51.561  36.729  0.00  0.00     0.281 P 
ATOM     23  OAB B65 d          19.367  51.092  38.067  0.00  0.00    -0.639 OA
ATOM     24  OAC B65 d          17.025  51.418  37.014  0.00  0.00    -0.639 OA
ATOM     25  OAA B65 d          19.032  50.780  35.544  0.00  0.00    -0.639 OA
ENDBRANCH  20  22
BRANCH  20  26
ATOM     26  SAY B65 d          19.623  54.053  38.071  0.00  0.00     0.119 S 
ATOM     27  OAF B65 d          19.825  55.460  37.912  0.00  0.00    -0.594 OA
ATOM     28  OAE B65 d          20.937  53.398  38.366  0.00  0.00    -0.594 OA
ATOM     29  OAD B65 d          18.685  53.784  39.215  0.00  0.00    -0.594 OA
ENDBRANCH  20  26
ENDBRANCH  17  20
ENDBRANCH  14  17
ENDBRANCH  11  14
ENDBRANCH   6  11
BRANCH   1  30
ATOM     30  OAS B65 d          15.315  56.012  40.106  0.00  0.00    -0.311 OA
BRANCH  30  31
ATOM     31  CAU B65 d          14.218  55.648  40.832  0.00  0.00     0.076 A 
ATOM     32  CAL B65 d          13.681  54.379  40.690  0.00  0.00    -0.050 A 
ATOM     33  CAH B65 d          12.676  53.958  41.564  0.00  0.00    -0.080 A 
ATOM     34  H1  B65 d          14.037  53.719  39.908  0.00  0.00     0.087 H 
ATOM     35  CAG B65 d          12.217  54.805  42.567  0.00  0.00    -0.083 A 
ATOM     36  H2  B65 d          12.252  52.965  41.461  0.00  0.00     0.083 H 
ATOM     37  CAI B65 d          12.755  56.076  42.702  0.00  0.00    -0.080 A 
ATOM     38  H3  B65 d          11.438  54.471  43.243  0.00  0.00     0.083 H 
ATOM     39  CAM B65 d          13.756  56.500  41.828  0.00  0.00    -0.050 A 
ATOM     40  H4  B65 d          12.398  56.737  43.483  0.00  0.00     0.083 H 
ATOM     41  H5  B65 d          14.174  57.496  41.927  0.00  0.00     0.087 H 
ENDBRANCH  30  31
ENDBRANCH   1  30
TORSDOF 8
ENDMDL
MODEL 10
REMARK VINA RESULT:      -7.7      1.893      4.464
REMARK  8 active torsions:
REMARK  status: ('A' for Active; 'I' for Inactive)
REMARK    1  A    between atoms: CAU_6  and  OAS_7 
REMARK    2  A    between atoms: OAS_7  and  CAV_8 
REMARK    3  A    between atoms: CAT_13  and  CAQ_14 
REMARK    4  A    between atoms: CAQ_14  and  CAP_15 
REMARK    5  A    between atoms: CAP_15  and  CAR_16 
REMARK    6  A    between atoms: CAR_16  and  CAW_17 
REMARK    7  A    between atoms: CAW_17  and  PAX_18 
REMARK    8  A    between atoms: CAW_17  and  SAY_22 
ROOT
ATOM      1  CAV B65 d          14.598  54.095  39.256  0.00  0.00     0.076 A 
ATOM      2  CAO B65 d          15.118  54.339  37.987  0.00  0.00    -0.044 A 
ATOM      3  CAN B65 d          14.420  55.151  40.141  0.00  0.00    -0.050 A 
ATOM      4  CAJ B65 d          14.770  56.439  39.754  0.00  0.00    -0.080 A 
ATOM      5  CAK B65 d          15.300  56.678  38.488  0.00  0.00    -0.077 A 
ATOM      6  CAT B65 d          15.475  55.621  37.602  0.00  0.00    -0.056 A 
ATOM      7  H6  B65 d          15.245  53.517  37.292  0.00  0.00     0.088 H 
ATOM      8  H7  B65 d          14.010  54.971  41.128  0.00  0.00     0.087 H 
ATOM      9  H8  B65 d          14.630  57.264  40.443  0.00  0.00     0.083 H 
ATOM     10  H9  B65 d          15.574  57.685  38.196  0.00  0.00     0.084 H 
ENDROOT
BRANCH   6  11
ATOM     11  CAQ B65 d          16.105  55.837  36.221  0.00  0.00    -0.041 C 
ATOM     12  H10 B65 d          15.893  56.864  35.889  0.00  0.00     0.040 H 
ATOM     13  H11 B65 d          15.660  55.124  35.511  0.00  0.00     0.040 H 
BRANCH  11  14
ATOM     14  CAP B65 d          17.621  55.627  36.251  0.00  0.00    -0.059 C 
ATOM     15  H12 B65 d          18.079  56.354  36.938  0.00  0.00     0.033 H 
ATOM     16  H13 B65 d          18.031  55.769  35.239  0.00  0.00     0.033 H 
BRANCH  14  17
ATOM     17  CAR B65 d          17.927  54.208  36.730  0.00  0.00    -0.034 C 
ATOM     18  H14 B65 d          17.451  53.493  36.042  0.00  0.00     0.036 H 
ATOM     19  H15 B65 d          17.509  54.080  37.739  0.00  0.00     0.036 H 
BRANCH  17  20
ATOM     20  CAW B65 d          19.429  53.913  36.781  0.00  0.00     0.169 C 
ATOM     21  H16 B65 d          19.945  54.587  36.082  0.00  0.00     0.090 H 
BRANCH  20  22
ATOM     22  PAX B65 d          19.779  52.177  36.288  0.00  0.00     0.281 P 
ATOM     23  OAB B65 d          21.211  52.172  35.553  0.00  0.00    -0.639 OA
ATOM     24  OAC B65 d          19.955  51.354  37.662  0.00  0.00    -0.639 OA
ATOM     25  OAA B65 d          18.713  51.608  35.429  0.00  0.00    -0.639 OA
ENDBRANCH  20  22
BRANCH  20  26
ATOM     26  SAY B65 d          20.049  54.224  38.473  0.00  0.00     0.119 S 
ATOM     27  OAF B65 d          20.115  55.636  38.702  0.00  0.00    -0.594 OA
ATOM     28  OAE B65 d          21.419  53.637  38.627  0.00  0.00    -0.594 OA
ATOM     29  OAD B65 d          19.132  53.573  39.471  0.00  0.00    -0.594 OA
ENDBRANCH  20  26
ENDBRANCH  17  20
ENDBRANCH  14  17
ENDBRANCH  11  14
ENDBRANCH   6  11
BRANCH   1  30
ATOM     30  OAS B65 d          14.402  52.798  39.609  0.00  0.00    -0.311 OA
BRANCH  30  31
ATOM     31  CAU B65 d          15.405  51.928  39.299  0.00  0.00     0.076 A 
ATOM     32  CAL B65 d          16.297  51.518  40.276  0.00  0.00    -0.050 A 
ATOM     33  CAH B65 d          17.203  50.493  39.992  0.00  0.00    -0.080 A 
ATOM     34  H1  B65 d          16.291  51.988  41.253  0.00  0.00     0.087 H 
ATOM     35  CAG B65 d          17.212  49.891  38.738  0.00  0.00    -0.083 A 
ATOM     36  H2  B65 d          17.903  50.166  40.752  0.00  0.00     0.083 H 
ATOM     37  CAI B65 d          16.320  50.309  37.762  0.00  0.00    -0.080 A 
ATOM     38  H3  B65 d          17.917  49.096  38.524  0.00  0.00     0.083 H 
ATOM     39  CAM B65 d          15.416  51.333  38.042  0.00  0.00    -0.050 A 
ATOM     40  H4  B65 d          16.325  49.840  36.785  0.00  0.00     0.083 H 
ATOM     41  H5  B65 d          14.722  51.666  37.279  0.00  0.00     0.087 H 
ENDBRANCH  30  31
ENDBRANCH   1  30
TORSDOF 8
ENDMDL
