MODEL 1
REMARK VINA RESULT:      -8.4      0.000      0.000
REMARK  3 active torsions:
REMARK  status: ('A' for Active; 'I' for Inactive)
REMARK    1  A    between atoms: C13_2  and  C15_3 
REMARK       I    between atoms: C13_2  and  N12_12 
REMARK    2  A    between atoms: N12_12  and  C8_13 
REMARK    3  A    between atoms: C6_18  and  C2_19 
ROOT
ATOM      1  O14 MOL d          -8.870  55.246  13.379  0.00  0.00    -0.267 OA
ATOM      2  C13 MOL d          -8.920  55.402  12.149  0.00  0.00     0.256 C 
ATOM      3  N12 MOL d          -8.237  54.604  11.318  0.00  0.00    -0.323 N 
ATOM      4  H6  MOL d          -8.319  54.773  10.336  0.00  0.00     0.169 HD
ENDROOT
BRANCH   3   5
ATOM      5  C8  MOL d          -7.414  53.548  11.731  0.00  0.00     0.035 A 
ATOM      6  C7  MOL d          -6.062  53.820  11.915  0.00  0.00    -0.043 A 
ATOM      7  C6  MOL d          -5.221  52.793  12.353  0.00  0.00     0.014 A 
ATOM      8  H7  MOL d          -5.668  54.811  11.722  0.00  0.00     0.088 H 
ATOM      9  C11 MOL d          -5.680  51.514  12.615  0.00  0.00    -0.069 A 
ATOM     10  C10 MOL d          -7.033  51.265  12.395  0.00  0.00    -0.080 A 
ATOM     11  H10 MOL d          -5.015  50.739  12.978  0.00  0.00     0.085 H 
ATOM     12  C9  MOL d          -7.905  52.246  11.927  0.00  0.00    -0.057 A 
ATOM     13  H9  MOL d          -7.421  50.272  12.594  0.00  0.00     0.083 H 
ATOM     14  H8  MOL d          -8.942  52.009  11.718  0.00  0.00     0.086 H 
BRANCH   7  15
ATOM     15  C2  MOL d          -3.798  53.081  12.570  0.00  0.00     0.168 A 
ATOM     16  N3  MOL d          -2.832  52.955  11.644  0.00  0.00    -0.268 N 
ATOM     17  N4  MOL d          -1.646  53.263  12.277  0.00  0.00    -0.005 NA
ATOM     18  H11 MOL d          -2.953  52.682  10.658  0.00  0.00     0.185 HD
ATOM     19  N5  MOL d          -1.917  53.564  13.570  0.00  0.00     0.018 NA
ATOM     20  N1  MOL d          -3.253  53.469  13.737  0.00  0.00    -0.142 NA
ENDBRANCH   7  15
ENDBRANCH   3   5
BRANCH   2  21
ATOM     21  C15 MOL d          -9.724  56.529  11.572  0.00  0.00     0.033 A 
ATOM     22  C20 MOL d         -10.864  56.938  12.276  0.00  0.00    -0.054 A 
ATOM     23  C19 MOL d         -11.584  58.024  11.810  0.00  0.00     0.012 A 
ATOM     24  H1  MOL d         -11.176  56.412  13.171  0.00  0.00     0.086 H 
ATOM     25  C23 MOL d         -12.782  58.635  12.320  0.00  0.00     0.008 A 
ATOM     26  C18 MOL d         -11.182  58.684  10.659  0.00  0.00     0.088 A 
ATOM     27  N22 MOL d         -13.052  59.649  11.471  0.00  0.00    -0.288 N 
ATOM     28  H2  MOL d         -13.350  58.341  13.202  0.00  0.00     0.115 H 
ATOM     29  N21 MOL d         -12.086  59.681  10.462  0.00  0.00    -0.175 NA
ATOM     30  H3  MOL d         -13.847  60.299  11.554  0.00  0.00     0.188 HD
ATOM     31  C17 MOL d         -10.053  58.295   9.946  0.00  0.00    -0.052 A 
ATOM     32  C16 MOL d          -9.304  57.224  10.415  0.00  0.00    -0.065 A 
ATOM     33  H4  MOL d          -9.764  58.817   9.041  0.00  0.00     0.087 H 
ATOM     34  H5  MOL d          -8.402  56.923   9.896  0.00  0.00     0.085 H 
ENDBRANCH   2  21
TORSDOF 3
ENDMDL
MODEL 2
REMARK VINA RESULT:      -7.1      1.616      8.304
REMARK  3 active torsions:
REMARK  status: ('A' for Active; 'I' for Inactive)
REMARK    1  A    between atoms: C13_2  and  C15_3 
REMARK       I    between atoms: C13_2  and  N12_12 
REMARK    2  A    between atoms: N12_12  and  C8_13 
REMARK    3  A    between atoms: C6_18  and  C2_19 
ROOT
ATOM      1  O14 MOL d          -8.738  53.741  13.394  0.00  0.00    -0.267 OA
ATOM      2  C13 MOL d          -7.999  53.610  12.405  0.00  0.00     0.256 C 
ATOM      3  N12 MOL d          -8.422  53.930  11.175  0.00  0.00    -0.323 N 
ATOM      4  H6  MOL d          -7.783  53.809  10.416  0.00  0.00     0.169 HD
ENDROOT
BRANCH   3   5
ATOM      5  C8  MOL d          -9.700  54.423  10.879  0.00  0.00     0.035 A 
ATOM      6  C7  MOL d          -9.920  55.785  11.056  0.00  0.00    -0.043 A 
ATOM      7  C6  MOL d         -11.177  56.311  10.742  0.00  0.00     0.014 A 
ATOM      8  H7  MOL d          -9.131  56.427  11.430  0.00  0.00     0.088 H 
ATOM      9  C11 MOL d         -12.212  55.531  10.258  0.00  0.00    -0.069 A 
ATOM     10  C10 MOL d         -11.970  54.165  10.118  0.00  0.00    -0.080 A 
ATOM     11  H10 MOL d         -13.172  55.964   9.999  0.00  0.00     0.085 H 
ATOM     12  C9  MOL d         -10.746  53.589  10.449  0.00  0.00    -0.057 A 
ATOM     13  H9  MOL d         -12.762  53.530   9.739  0.00  0.00     0.083 H 
ATOM     14  H8  MOL d         -10.603  52.517  10.375  0.00  0.00     0.086 H 
BRANCH   7  15
ATOM     15  C2  MOL d         -11.408  57.751  10.906  0.00  0.00     0.168 A 
ATOM     16  N3  MOL d         -11.046  58.478  11.977  0.00  0.00    -0.268 N 
ATOM     17  N4  MOL d         -11.504  59.759  11.750  0.00  0.00    -0.005 NA
ATOM     18  H11 MOL d         -10.529  58.145  12.803  0.00  0.00     0.185 HD
ATOM     19  N5  MOL d         -12.137  59.781  10.552  0.00  0.00     0.018 NA
ATOM     20  N1  MOL d         -12.054  58.539  10.027  0.00  0.00    -0.142 NA
ENDBRANCH   7  15
ENDBRANCH   3   5
BRANCH   2  21
ATOM     21  C15 MOL d          -6.621  53.044  12.572  0.00  0.00     0.033 A 
ATOM     22  C20 MOL d          -5.560  53.950  12.693  0.00  0.00    -0.054 A 
ATOM     23  C19 MOL d          -4.286  53.461  12.925  0.00  0.00     0.012 A 
ATOM     24  H1  MOL d          -5.734  55.017  12.607  0.00  0.00     0.086 H 
ATOM     25  C23 MOL d          -3.034  54.155  13.070  0.00  0.00     0.008 A 
ATOM     26  C18 MOL d          -4.072  52.094  13.024  0.00  0.00     0.088 A 
ATOM     27  N22 MOL d          -2.114  53.187  13.267  0.00  0.00    -0.288 N 
ATOM     28  H2  MOL d          -2.866  55.230  13.029  0.00  0.00     0.115 H 
ATOM     29  N21 MOL d          -2.738  51.938  13.238  0.00  0.00    -0.175 NA
ATOM     30  H3  MOL d          -1.107  53.346  13.417  0.00  0.00     0.188 HD
ATOM     31  C17 MOL d          -5.111  51.179  12.908  0.00  0.00    -0.052 A 
ATOM     32  C16 MOL d          -6.400  51.654  12.702  0.00  0.00    -0.065 A 
ATOM     33  H4  MOL d          -4.920  50.114  12.976  0.00  0.00     0.087 H 
ATOM     34  H5  MOL d          -7.232  50.963  12.643  0.00  0.00     0.085 H 
ENDBRANCH   2  21
TORSDOF 3
ENDMDL
MODEL 3
REMARK VINA RESULT:      -6.4      2.225      2.459
REMARK  3 active torsions:
REMARK  status: ('A' for Active; 'I' for Inactive)
REMARK    1  A    between atoms: C13_2  and  C15_3 
REMARK       I    between atoms: C13_2  and  N12_12 
REMARK    2  A    between atoms: N12_12  and  C8_13 
REMARK    3  A    between atoms: C6_18  and  C2_19 
ROOT
ATOM      1  O14 MOL d          -7.826  56.123  12.402  0.00  0.00    -0.267 OA
ATOM      2  C13 MOL d          -8.518  55.248  11.859  0.00  0.00     0.256 C 
ATOM      3  N12 MOL d          -8.260  53.946  12.039  0.00  0.00    -0.323 N 
ATOM      4  H6  MOL d          -8.854  53.285  11.580  0.00  0.00     0.169 HD
ENDROOT
BRANCH   3   5
ATOM      5  C8  MOL d          -7.214  53.446  12.826  0.00  0.00     0.035 A 
ATOM      6  C7  MOL d          -5.965  53.318  12.228  0.00  0.00    -0.043 A 
ATOM      7  C6  MOL d          -4.895  52.849  12.995  0.00  0.00     0.014 A 
ATOM      8  H7  MOL d          -5.823  53.579  11.185  0.00  0.00     0.088 H 
ATOM      9  C11 MOL d          -5.027  52.508  14.330  0.00  0.00    -0.069 A 
ATOM     10  C10 MOL d          -6.297  52.620  14.893  0.00  0.00    -0.080 A 
ATOM     11  H10 MOL d          -4.179  52.168  14.913  0.00  0.00     0.085 H 
ATOM     12  C9  MOL d          -7.401  53.051  14.161  0.00  0.00    -0.057 A 
ATOM     13  H9  MOL d          -6.430  52.362  15.938  0.00  0.00     0.083 H 
ATOM     14  H8  MOL d          -8.386  53.082  14.613  0.00  0.00     0.086 H 
BRANCH   7  15
ATOM     15  C2  MOL d          -3.569  52.733  12.375  0.00  0.00     0.168 A 
ATOM     16  N3  MOL d          -3.334  52.673  11.053  0.00  0.00    -0.268 N 
ATOM     17  N4  MOL d          -1.972  52.506  10.908  0.00  0.00    -0.005 NA
ATOM     18  H11 MOL d          -4.031  52.739  10.298  0.00  0.00     0.185 HD
ATOM     19  N5  MOL d          -1.413  52.464  12.142  0.00  0.00     0.018 NA
ATOM     20  N1  MOL d          -2.406  52.626  13.043  0.00  0.00    -0.142 NA
ENDBRANCH   7  15
ENDBRANCH   3   5
BRANCH   2  21
ATOM     21  C15 MOL d          -9.641  55.644  10.948  0.00  0.00     0.033 A 
ATOM     22  C20 MOL d         -10.574  54.657  10.604  0.00  0.00    -0.054 A 
ATOM     23  C19 MOL d         -11.664  55.010   9.826  0.00  0.00     0.012 A 
ATOM     24  H1  MOL d         -10.445  53.636  10.941  0.00  0.00     0.086 H 
ATOM     25  C23 MOL d         -12.746  54.207   9.322  0.00  0.00     0.008 A 
ATOM     26  C18 MOL d         -11.816  56.318   9.391  0.00  0.00     0.088 A 
ATOM     27  N22 MOL d         -13.519  55.059   8.616  0.00  0.00    -0.288 N 
ATOM     28  H2  MOL d         -12.906  53.141   9.476  0.00  0.00     0.115 H 
ATOM     29  N21 MOL d         -12.958  56.338   8.653  0.00  0.00    -0.175 NA
ATOM     30  H3  MOL d         -14.388  54.805   8.124  0.00  0.00     0.188 HD
ATOM     31  C17 MOL d         -10.902  57.311   9.722  0.00  0.00    -0.052 A 
ATOM     32  C16 MOL d          -9.817  56.981  10.524  0.00  0.00    -0.065 A 
ATOM     33  H4  MOL d         -11.032  58.325   9.361  0.00  0.00     0.087 H 
ATOM     34  H5  MOL d          -9.110  57.745  10.824  0.00  0.00     0.085 H 
ENDBRANCH   2  21
TORSDOF 3
ENDMDL
MODEL 4
REMARK VINA RESULT:      -6.3      2.053      2.403
REMARK  3 active torsions:
REMARK  status: ('A' for Active; 'I' for Inactive)
REMARK    1  A    between atoms: C13_2  and  C15_3 
REMARK       I    between atoms: C13_2  and  N12_12 
REMARK    2  A    between atoms: N12_12  and  C8_13 
REMARK    3  A    between atoms: C6_18  and  C2_19 
ROOT
ATOM      1  O14 MOL d         -10.482  53.467  11.110  0.00  0.00    -0.267 OA
ATOM      2  C13 MOL d         -10.195  54.458  10.419  0.00  0.00     0.256 C 
ATOM      3  N12 MOL d          -8.971  54.608   9.895  0.00  0.00    -0.323 N 
ATOM      4  H6  MOL d          -8.798  55.423   9.342  0.00  0.00     0.169 HD
ENDROOT
BRANCH   3   5
ATOM      5  C8  MOL d          -7.918  53.701  10.067  0.00  0.00     0.035 A 
ATOM      6  C7  MOL d          -7.069  53.901  11.151  0.00  0.00    -0.043 A 
ATOM      7  C6  MOL d          -6.025  52.997  11.366  0.00  0.00     0.014 A 
ATOM      8  H7  MOL d          -7.216  54.743  11.818  0.00  0.00     0.088 H 
ATOM      9  C11 MOL d          -5.802  51.906  10.544  0.00  0.00    -0.069 A 
ATOM     10  C10 MOL d          -6.651  51.749   9.450  0.00  0.00    -0.080 A 
ATOM     11  H10 MOL d          -5.001  51.204  10.742  0.00  0.00     0.085 H 
ATOM     12  C9  MOL d          -7.685  52.641   9.175  0.00  0.00    -0.057 A 
ATOM     13  H9  MOL d          -6.502  50.902   8.790  0.00  0.00     0.083 H 
ATOM     14  H8  MOL d          -8.299  52.520   8.289  0.00  0.00     0.086 H 
BRANCH   7  15
ATOM     15  C2  MOL d          -5.140  53.190  12.521  0.00  0.00     0.168 A 
ATOM     16  N3  MOL d          -5.452  52.898  13.795  0.00  0.00    -0.268 N 
ATOM     17  N4  MOL d          -4.372  53.288  14.559  0.00  0.00    -0.005 NA
ATOM     18  H11 MOL d          -6.325  52.469  14.134  0.00  0.00     0.185 HD
ATOM     19  N5  MOL d          -3.432  53.811  13.734  0.00  0.00     0.018 NA
ATOM     20  N1  MOL d          -3.907  53.728  12.473  0.00  0.00    -0.142 NA
ENDBRANCH   7  15
ENDBRANCH   3   5
BRANCH   2  21
ATOM     21  C15 MOL d         -11.215  55.533  10.196  0.00  0.00     0.033 A 
ATOM     22  C20 MOL d         -10.870  56.840  10.565  0.00  0.00    -0.054 A 
ATOM     23  C19 MOL d         -11.761  57.866  10.301  0.00  0.00     0.012 A 
ATOM     24  H1  MOL d          -9.922  57.043  11.048  0.00  0.00     0.086 H 
ATOM     25  C23 MOL d         -11.669  59.274  10.585  0.00  0.00     0.008 A 
ATOM     26  C18 MOL d         -12.976  57.595   9.691  0.00  0.00     0.088 A 
ATOM     27  N22 MOL d         -12.822  59.803  10.122  0.00  0.00    -0.288 N 
ATOM     28  H2  MOL d         -10.847  59.798  11.069  0.00  0.00     0.115 H 
ATOM     29  N21 MOL d         -13.617  58.790   9.582  0.00  0.00    -0.175 NA
ATOM     30  H3  MOL d         -13.076  60.801  10.162  0.00  0.00     0.188 HD
ATOM     31  C17 MOL d         -13.337  56.306   9.316  0.00  0.00    -0.052 A 
ATOM     32  C16 MOL d         -12.444  55.268   9.549  0.00  0.00    -0.065 A 
ATOM     33  H4  MOL d         -14.298  56.113   8.852  0.00  0.00     0.087 H 
ATOM     34  H5  MOL d         -12.687  54.260   9.235  0.00  0.00     0.085 H 
ENDBRANCH   2  21
TORSDOF 3
ENDMDL
