REMARK  16 active torsions:
REMARK  status: ('A' for Active; 'I' for Inactive)
REMARK    1  A    between atoms: CBC_6  and  CAS_7 
REMARK    2  A    between atoms: CAS_7  and  CBG_8 
REMARK    3  A    between atoms: CBG_8  and  NAW_9 
REMARK    4  A    between atoms: CBG_8  and  P1_21 
REMARK       I    between atoms: NAW_9  and  CBB_10 
REMARK    5  A    between atoms: CBB_10  and  CBF_12 
REMARK    6  A    between atoms: CBF_12  and  CAR_13 
REMARK    7  A    between atoms: CBF_12  and  NAU_17 
REMARK    8  A    between atoms: CAR_13  and  CAZ_14 
REMARK       I    between atoms: NAU_17  and  CAX_18 
REMARK    9  A    between atoms: CAX_18  and  CAA_19 
REMARK   10  A    between atoms: P1_21  and  CAT_24 
REMARK   11  A    between atoms: CAT_24  and  CBD_25 
REMARK   12  A    between atoms: CBD_25  and  CAB_26 
REMARK   13  A    between atoms: CBD_25  and  CBA_27 
REMARK       I    between atoms: CBA_27  and  N_29 
REMARK   14  A    between atoms: N_29  and  CA_30 
REMARK   15  A    between atoms: CA_30  and  CB_31 
REMARK   16  A    between atoms: CA_30  and  C_32 
REMARK       I    between atoms: C_32  and  NAD_34 
ROOT
ATOM      1  CBG RX4 d          26.507   0.389  44.788  0.00  0.00     0.091 C 
ATOM      2  H8  RX4 d          25.681   0.569  44.084  0.00  0.00     0.089 H 
ENDROOT
BRANCH   1   3
ATOM      3  CAS RX4 d          27.850   0.849  44.103  0.00  0.00    -0.013 C 
ATOM      4  H6  RX4 d          28.698   0.711  44.790  0.00  0.00     0.044 H 
ATOM      5  H7  RX4 d          28.027   0.275  43.182  0.00  0.00     0.044 H 
BRANCH   3   6
ATOM      6  CBC RX4 d          27.660   2.352  43.775  0.00  0.00    -0.056 A 
ATOM      7  CAP RX4 d          28.171   3.265  44.732  0.00  0.00    -0.077 A 
ATOM      8  CAN RX4 d          28.042   4.642  44.615  0.00  0.00    -0.082 A 
ATOM      9  H1  RX4 d          28.688   2.868  45.598  0.00  0.00     0.084 H 
ATOM     10  CAM RX4 d          27.323   5.065  43.474  0.00  0.00    -0.083 A 
ATOM     11  H2  RX4 d          28.458   5.335  45.338  0.00  0.00     0.083 H 
ATOM     12  CAO RX4 d          26.773   4.178  42.519  0.00  0.00    -0.082 A 
ATOM     13  H3  RX4 d          27.185   6.129  43.322  0.00  0.00     0.083 H 
ATOM     14  CAQ RX4 d          26.937   2.791  42.668  0.00  0.00    -0.077 A 
ATOM     15  H4  RX4 d          26.224   4.570  41.670  0.00  0.00     0.083 H 
ATOM     16  H5  RX4 d          26.519   2.092  41.952  0.00  0.00     0.084 H 
ENDBRANCH   3   6
ENDBRANCH   1   3
BRANCH   1  17
ATOM     17  NAW RX4 d          26.273   1.128  46.025  0.00  0.00    -0.345 N 
ATOM     18  CBB RX4 d          25.181   1.895  46.091  0.00  0.00     0.241 C 
ATOM     19  OAI RX4 d          24.346   1.945  45.170  0.00  0.00    -0.271 OA
ATOM     20  H9  RX4 d          26.907   1.062  46.795  0.00  0.00     0.163 HD
BRANCH  18  21
ATOM     21  CBF RX4 d          25.039   2.909  47.238  0.00  0.00     0.098 C 
ATOM     22  H10 RX4 d          26.026   3.321  47.496  0.00  0.00     0.088 H 
BRANCH  21  23
ATOM     23  CAR RX4 d          24.460   2.284  48.467  0.00  0.00     0.043 C 
ATOM     24  H11 RX4 d          24.901   1.290  48.633  0.00  0.00     0.052 H 
ATOM     25  H12 RX4 d          23.368   2.190  48.369  0.00  0.00     0.052 H 
BRANCH  23  26
ATOM     26  CAZ RX4 d          24.814   3.231  49.638  0.00  0.00     0.175 C 
ATOM     27  OAK RX4 d          26.022   3.373  49.982  0.00  0.00    -0.648 OA
ATOM     28  OAG RX4 d          23.873   3.848  50.130  0.00  0.00    -0.648 OA
ENDBRANCH  23  26
ENDBRANCH  21  23
BRANCH  21  29
ATOM     29  NAU RX4 d          24.172   3.998  46.665  0.00  0.00    -0.348 N 
ATOM     30  CAX RX4 d          24.600   5.264  46.506  0.00  0.00     0.214 C 
ATOM     31  OAE RX4 d          25.734   5.668  46.859  0.00  0.00    -0.274 OA
ATOM     32  H13 RX4 d          23.238   3.771  46.391  0.00  0.00     0.163 HD
BRANCH  30  33
ATOM     33  CAA RX4 d          23.582   6.241  45.848  0.00  0.00    -0.003 C 
ATOM     34  H14 RX4 d          24.033   7.241  45.767  0.00  0.00     0.040 H 
ATOM     35  H15 RX4 d          22.675   6.297  46.467  0.00  0.00     0.040 H 
ATOM     36  H16 RX4 d          23.319   5.875  44.844  0.00  0.00     0.040 H 
ENDBRANCH  30  33
ENDBRANCH  21  29
ENDBRANCH  18  21
ENDBRANCH   1  17
BRANCH   1  37
ATOM     37  P1  RX4 d          26.519  -1.353  45.266  0.00  0.00     0.130 P 
ATOM     38  O4  RX4 d          25.172  -1.763  45.836  0.00  0.00    -0.666 OA
ATOM     39  O3  RX4 d          27.435  -1.658  46.430  0.00  0.00    -0.666 OA
BRANCH  37  40
ATOM     40  CAT RX4 d          26.906  -2.300  43.801  0.00  0.00     0.020 C 
ATOM     41  H17 RX4 d          27.714  -1.776  43.270  0.00  0.00     0.050 H 
ATOM     42  H18 RX4 d          26.005  -2.319  43.170  0.00  0.00     0.050 H 
BRANCH  40  43
ATOM     43  CBD RX4 d          27.355  -3.750  44.011  0.00  0.00     0.029 C 
ATOM     44  H19 RX4 d          26.902  -4.162  44.925  0.00  0.00     0.054 H 
BRANCH  43  45
ATOM     45  CAB RX4 d          27.055  -4.699  42.746  0.00  0.00    -0.064 C 
ATOM     46  H20 RX4 d          27.401  -5.720  42.964  0.00  0.00     0.028 H 
ATOM     47  H21 RX4 d          27.586  -4.312  41.864  0.00  0.00     0.028 H 
ATOM     48  H22 RX4 d          25.973  -4.713  42.546  0.00  0.00     0.028 H 
ENDBRANCH  43  45
BRANCH  43  49
ATOM     49  CBA RX4 d          28.930  -3.715  44.087  0.00  0.00     0.222 C 
ATOM     50  OAH RX4 d          29.562  -2.793  43.548  0.00  0.00    -0.273 OA
ATOM     51  N   RX4 d          29.532  -4.748  44.661  0.00  0.00    -0.348 N 
ATOM     52  H23 RX4 d          28.999  -5.491  45.066  0.00  0.00     0.163 HD
BRANCH  51  53
ATOM     53  CA  RX4 d          31.042  -4.776  44.688  0.00  0.00     0.086 C 
ATOM     54  H24 RX4 d          31.447  -3.845  45.111  0.00  0.00     0.086 H 
BRANCH  53  55
ATOM     55  CB  RX4 d          31.523  -5.983  45.506  0.00  0.00    -0.049 C 
ATOM     56  H25 RX4 d          32.623  -6.000  45.523  0.00  0.00     0.030 H 
ATOM     57  H26 RX4 d          31.149  -6.910  45.046  0.00  0.00     0.030 H 
ATOM     58  H27 RX4 d          31.142  -5.904  46.535  0.00  0.00     0.030 H 
ENDBRANCH  53  55
BRANCH  53  59
ATOM     59  C   RX4 d          31.475  -4.950  43.192  0.00  0.00     0.237 C 
ATOM     60  O   RX4 d          30.648  -5.448  42.356  0.00  0.00    -0.271 OA
ATOM     61  NAD RX4 d          32.680  -4.535  42.843  0.00  0.00    -0.368 N 
ATOM     62  H28 RX4 d          32.987  -4.631  41.896  0.00  0.00     0.159 HD
ATOM     63  H29 RX4 d          33.285  -4.125  43.526  0.00  0.00     0.159 HD
ENDBRANCH  53  59
ENDBRANCH  51  53
ENDBRANCH  43  49
ENDBRANCH  40  43
ENDBRANCH  37  40
ENDBRANCH   1  37
TORSDOF 16
