MODEL 1
REMARK VINA RESULT:      -6.8      0.000      0.000
REMARK  16 active torsions:
REMARK  status: ('A' for Active; 'I' for Inactive)
REMARK    1  A    between atoms: CBC_6  and  CAS_7 
REMARK    2  A    between atoms: CAS_7  and  CBG_8 
REMARK    3  A    between atoms: CBG_8  and  NAW_9 
REMARK    4  A    between atoms: CBG_8  and  P1_21 
REMARK       I    between atoms: NAW_9  and  CBB_10 
REMARK    5  A    between atoms: CBB_10  and  CBF_12 
REMARK    6  A    between atoms: CBF_12  and  CAR_13 
REMARK    7  A    between atoms: CBF_12  and  NAU_17 
REMARK    8  A    between atoms: CAR_13  and  CAZ_14 
REMARK       I    between atoms: NAU_17  and  CAX_18 
REMARK    9  A    between atoms: CAX_18  and  CAA_19 
REMARK   10  A    between atoms: P1_21  and  CAT_24 
REMARK   11  A    between atoms: CAT_24  and  CBD_25 
REMARK   12  A    between atoms: CBD_25  and  CAB_26 
REMARK   13  A    between atoms: CBD_25  and  CBA_27 
REMARK       I    between atoms: CBA_27  and  N_29 
REMARK   14  A    between atoms: N_29  and  CA_30 
REMARK   15  A    between atoms: CA_30  and  CB_31 
REMARK   16  A    between atoms: CA_30  and  C_32 
REMARK       I    between atoms: C_32  and  NAD_34 
ROOT
ATOM      1  CBG RX4 d          26.656   2.137  43.688  0.00  0.00     0.091 C 
ATOM      2  H8  RX4 d          25.799   1.461  43.823  0.00  0.00     0.089 H 
ENDROOT
BRANCH   1   3
ATOM      3  CAS RX4 d          26.651   2.649  42.197  0.00  0.00    -0.013 C 
ATOM      4  H6  RX4 d          27.516   2.246  41.650  0.00  0.00     0.044 H 
ATOM      5  H7  RX4 d          25.723   2.347  41.691  0.00  0.00     0.044 H 
BRANCH   3   6
ATOM      6  CBC RX4 d          26.740   4.194  42.285  0.00  0.00    -0.056 A 
ATOM      7  CAP RX4 d          25.566   4.905  41.929  0.00  0.00    -0.077 A 
ATOM      8  CAN RX4 d          25.492   6.290  41.907  0.00  0.00    -0.082 A 
ATOM      9  H1  RX4 d          24.682   4.337  41.661  0.00  0.00     0.084 H 
ATOM     10  CAM RX4 d          26.701   6.944  42.235  0.00  0.00    -0.083 A 
ATOM     11  H2  RX4 d          24.582   6.827  41.659  0.00  0.00     0.083 H 
ATOM     12  CAO RX4 d          27.897   6.264  42.562  0.00  0.00    -0.082 A 
ATOM     13  H3  RX4 d          26.713   8.028  42.237  0.00  0.00     0.083 H 
ATOM     14  CAQ RX4 d          27.927   4.860  42.586  0.00  0.00    -0.077 A 
ATOM     15  H4  RX4 d          28.794   6.828  42.796  0.00  0.00     0.083 H 
ATOM     16  H5  RX4 d          28.834   4.317  42.827  0.00  0.00     0.084 H 
ENDBRANCH   3   6
ENDBRANCH   1   3
BRANCH   1  17
ATOM     17  NAW RX4 d          26.558   3.254  44.623  0.00  0.00    -0.345 N 
ATOM     18  CBB RX4 d          25.415   3.396  45.300  0.00  0.00     0.241 C 
ATOM     19  OAI RX4 d          24.477   2.584  45.201  0.00  0.00    -0.271 OA
ATOM     20  H9  RX4 d          27.319   3.888  44.753  0.00  0.00     0.163 HD
BRANCH  18  21
ATOM     21  CBF RX4 d          25.150   4.702  46.067  0.00  0.00     0.098 C 
ATOM     22  H10 RX4 d          24.857   4.474  47.102  0.00  0.00     0.088 H 
BRANCH  21  23
ATOM     23  CAR RX4 d          24.055   5.505  45.440  0.00  0.00     0.043 C 
ATOM     24  H11 RX4 d          23.321   4.841  44.961  0.00  0.00     0.052 H 
ATOM     25  H12 RX4 d          24.470   6.196  44.691  0.00  0.00     0.052 H 
BRANCH  23  26
ATOM     26  CAZ RX4 d          23.391   6.298  46.591  0.00  0.00     0.175 C 
ATOM     27  OAK RX4 d          23.980   6.391  47.705  0.00  0.00    -0.648 OA
ATOM     28  OAG RX4 d          22.330   6.852  46.315  0.00  0.00    -0.648 OA
ENDBRANCH  23  26
ENDBRANCH  21  23
BRANCH  21  29
ATOM     29  NAU RX4 d          26.478   5.411  46.063  0.00  0.00    -0.348 N 
ATOM     30  CAX RX4 d          27.369   5.295  47.065  0.00  0.00     0.214 C 
ATOM     31  OAE RX4 d          27.164   4.632  48.110  0.00  0.00    -0.274 OA
ATOM     32  H13 RX4 d          26.708   5.992  45.283  0.00  0.00     0.163 HD
BRANCH  30  33
ATOM     33  CAA RX4 d          28.711   6.059  46.863  0.00  0.00    -0.003 C 
ATOM     34  H14 RX4 d          29.102   6.378  47.841  0.00  0.00     0.040 H 
ATOM     35  H15 RX4 d          28.539   6.942  46.231  0.00  0.00     0.040 H 
ATOM     36  H16 RX4 d          29.441   5.394  46.376  0.00  0.00     0.040 H 
ENDBRANCH  30  33
ENDBRANCH  21  29
ENDBRANCH  18  21
ENDBRANCH   1  17
BRANCH   1  37
ATOM     37  P1  RX4 d          28.178   1.272  44.132  0.00  0.00     0.130 P 
ATOM     38  O4  RX4 d          28.464   1.417  45.617  0.00  0.00    -0.666 OA
ATOM     39  O3  RX4 d          29.424   1.886  43.533  0.00  0.00    -0.666 OA
BRANCH  37  40
ATOM     40  CAT RX4 d          27.959  -0.445  43.690  0.00  0.00     0.020 C 
ATOM     41  H17 RX4 d          28.893  -0.791  43.225  0.00  0.00     0.050 H 
ATOM     42  H18 RX4 d          27.142  -0.497  42.954  0.00  0.00     0.050 H 
BRANCH  40  43
ATOM     43  CBD RX4 d          27.620  -1.416  44.826  0.00  0.00     0.029 C 
ATOM     44  H19 RX4 d          28.196  -1.164  45.729  0.00  0.00     0.054 H 
BRANCH  43  45
ATOM     45  CAB RX4 d          26.046  -1.489  45.153  0.00  0.00    -0.064 C 
ATOM     46  H20 RX4 d          25.558  -0.562  44.817  0.00  0.00     0.028 H 
ATOM     47  H21 RX4 d          25.902  -1.607  46.237  0.00  0.00     0.028 H 
ATOM     48  H22 RX4 d          25.601  -2.349  44.628  0.00  0.00     0.028 H 
ENDBRANCH  43  45
BRANCH  43  49
ATOM     49  CBA RX4 d          27.957  -2.859  44.285  0.00  0.00     0.222 C 
ATOM     50  OAH RX4 d          27.054  -3.695  44.127  0.00  0.00    -0.273 OA
ATOM     51  N   RX4 d          29.237  -3.154  44.103  0.00  0.00    -0.348 N 
ATOM     52  H23 RX4 d          29.948  -2.469  44.262  0.00  0.00     0.163 HD
BRANCH  51  53
ATOM     53  CA  RX4 d          29.596  -4.550  43.651  0.00  0.00     0.086 C 
ATOM     54  H24 RX4 d          28.772  -5.005  43.081  0.00  0.00     0.086 H 
BRANCH  53  55
ATOM     55  CB  RX4 d          30.871  -4.506  42.796  0.00  0.00    -0.049 C 
ATOM     56  H25 RX4 d          31.108  -3.461  42.545  0.00  0.00     0.030 H 
ATOM     57  H26 RX4 d          30.711  -5.079  41.870  0.00  0.00     0.030 H 
ATOM     58  H27 RX4 d          31.706  -4.946  43.361  0.00  0.00     0.030 H 
ENDBRANCH  53  55
BRANCH  53  59
ATOM     59  C   RX4 d          29.876  -5.348  44.970  0.00  0.00     0.237 C 
ATOM     60  O   RX4 d          31.081  -5.498  45.366  0.00  0.00    -0.271 OA
ATOM     61  NAD RX4 d          28.840  -5.807  45.649  0.00  0.00    -0.368 N 
ATOM     62  H28 RX4 d          28.984  -6.320  46.495  0.00  0.00     0.159 HD
ATOM     63  H29 RX4 d          27.911  -5.642  45.316  0.00  0.00     0.159 HD
ENDBRANCH  53  59
ENDBRANCH  51  53
ENDBRANCH  43  49
ENDBRANCH  40  43
ENDBRANCH  37  40
ENDBRANCH   1  37
TORSDOF 16
ENDMDL
MODEL 2
REMARK VINA RESULT:      -6.4      2.497      4.778
REMARK  16 active torsions:
REMARK  status: ('A' for Active; 'I' for Inactive)
REMARK    1  A    between atoms: CBC_6  and  CAS_7 
REMARK    2  A    between atoms: CAS_7  and  CBG_8 
REMARK    3  A    between atoms: CBG_8  and  NAW_9 
REMARK    4  A    between atoms: CBG_8  and  P1_21 
REMARK       I    between atoms: NAW_9  and  CBB_10 
REMARK    5  A    between atoms: CBB_10  and  CBF_12 
REMARK    6  A    between atoms: CBF_12  and  CAR_13 
REMARK    7  A    between atoms: CBF_12  and  NAU_17 
REMARK    8  A    between atoms: CAR_13  and  CAZ_14 
REMARK       I    between atoms: NAU_17  and  CAX_18 
REMARK    9  A    between atoms: CAX_18  and  CAA_19 
REMARK   10  A    between atoms: P1_21  and  CAT_24 
REMARK   11  A    between atoms: CAT_24  and  CBD_25 
REMARK   12  A    between atoms: CBD_25  and  CAB_26 
REMARK   13  A    between atoms: CBD_25  and  CBA_27 
REMARK       I    between atoms: CBA_27  and  N_29 
REMARK   14  A    between atoms: N_29  and  CA_30 
REMARK   15  A    between atoms: CA_30  and  CB_31 
REMARK   16  A    between atoms: CA_30  and  C_32 
REMARK       I    between atoms: C_32  and  NAD_34 
ROOT
ATOM      1  CBG RX4 d          26.608   2.332  46.981  0.00  0.00     0.091 C 
ATOM      2  H8  RX4 d          27.626   1.915  47.004  0.00  0.00     0.089 H 
ENDROOT
BRANCH   1   3
ATOM      3  CAS RX4 d          26.115   2.513  48.468  0.00  0.00    -0.013 C 
ATOM      4  H6  RX4 d          25.350   1.761  48.712  0.00  0.00     0.044 H 
ATOM      5  H7  RX4 d          26.959   2.418  49.166  0.00  0.00     0.044 H 
BRANCH   3   6
ATOM      6  CBC RX4 d          25.512   3.939  48.539  0.00  0.00    -0.056 A 
ATOM      7  CAP RX4 d          26.340   4.934  49.118  0.00  0.00    -0.077 A 
ATOM      8  CAN RX4 d          25.936   6.249  49.301  0.00  0.00    -0.082 A 
ATOM      9  H1  RX4 d          27.338   4.653  49.435  0.00  0.00     0.084 H 
ATOM     10  CAM RX4 d          24.608   6.513  48.893  0.00  0.00    -0.083 A 
ATOM     11  H2  RX4 d          26.583   7.010  49.722  0.00  0.00     0.083 H 
ATOM     12  CAO RX4 d          23.747   5.535  48.342  0.00  0.00    -0.082 A 
ATOM     13  H3  RX4 d          24.229   7.521  49.009  0.00  0.00     0.083 H 
ATOM     14  CAQ RX4 d          24.200   4.217  48.162  0.00  0.00    -0.077 A 
ATOM     15  H4  RX4 d          22.736   5.803  48.057  0.00  0.00     0.083 H 
ATOM     16  H5  RX4 d          23.556   3.450  47.747  0.00  0.00     0.084 H 
ENDBRANCH   3   6
ENDBRANCH   1   3
BRANCH   1  17
ATOM     17  NAW RX4 d          26.612   3.609  46.274  0.00  0.00    -0.345 N 
ATOM     18  CBB RX4 d          27.690   3.910  45.545  0.00  0.00     0.241 C 
ATOM     19  OAI RX4 d          28.641   3.120  45.407  0.00  0.00    -0.271 OA
ATOM     20  H9  RX4 d          25.835   4.236  46.333  0.00  0.00     0.163 HD
BRANCH  18  21
ATOM     21  CBF RX4 d          27.873   5.345  45.025  0.00  0.00     0.098 C 
ATOM     22  H10 RX4 d          28.856   5.444  44.540  0.00  0.00     0.088 H 
BRANCH  21  23
ATOM     23  CAR RX4 d          27.796   6.352  46.128  0.00  0.00     0.043 C 
ATOM     24  H11 RX4 d          27.126   5.995  46.924  0.00  0.00     0.052 H 
ATOM     25  H12 RX4 d          27.426   7.314  45.741  0.00  0.00     0.052 H 
BRANCH  23  26
ATOM     26  CAZ RX4 d          29.237   6.509  46.668  0.00  0.00     0.175 C 
ATOM     27  OAK RX4 d          29.510   6.116  47.838  0.00  0.00    -0.648 OA
ATOM     28  OAG RX4 d          30.058   6.964  45.877  0.00  0.00    -0.648 OA
ENDBRANCH  23  26
ENDBRANCH  21  23
BRANCH  21  29
ATOM     29  NAU RX4 d          26.785   5.509  43.998  0.00  0.00    -0.348 N 
ATOM     30  CAX RX4 d          26.954   5.198  42.700  0.00  0.00     0.214 C 
ATOM     31  OAE RX4 d          28.036   4.789  42.214  0.00  0.00    -0.274 OA
ATOM     32  H13 RX4 d          25.899   5.865  44.293  0.00  0.00     0.163 HD
BRANCH  30  33
ATOM     33  CAA RX4 d          25.701   5.383  41.795  0.00  0.00    -0.003 C 
ATOM     34  H14 RX4 d          24.990   4.564  41.980  0.00  0.00     0.040 H 
ATOM     35  H15 RX4 d          26.006   5.371  40.738  0.00  0.00     0.040 H 
ATOM     36  H16 RX4 d          25.220   6.345  42.027  0.00  0.00     0.040 H 
ENDBRANCH  30  33
ENDBRANCH  21  29
ENDBRANCH  18  21
ENDBRANCH   1  17
BRANCH   1  37
ATOM     37  P1  RX4 d          25.537   1.250  46.009  0.00  0.00     0.130 P 
ATOM     38  O4  RX4 d          25.237   1.867  44.654  0.00  0.00    -0.666 OA
ATOM     39  O3  RX4 d          24.144   1.102  46.578  0.00  0.00    -0.666 OA
BRANCH  37  40
ATOM     40  CAT RX4 d          26.389  -0.310  45.825  0.00  0.00     0.020 C 
ATOM     41  H17 RX4 d          25.758  -1.089  46.277  0.00  0.00     0.050 H 
ATOM     42  H18 RX4 d          27.336  -0.239  46.380  0.00  0.00     0.050 H 
BRANCH  40  43
ATOM     43  CBD RX4 d          26.722  -0.754  44.397  0.00  0.00     0.029 C 
ATOM     44  H19 RX4 d          25.818  -0.735  43.770  0.00  0.00     0.054 H 
BRANCH  43  45
ATOM     45  CAB RX4 d          27.905   0.104  43.722  0.00  0.00    -0.064 C 
ATOM     46  H20 RX4 d          27.686   0.252  42.655  0.00  0.00     0.028 H 
ATOM     47  H21 RX4 d          28.857  -0.436  43.831  0.00  0.00     0.028 H 
ATOM     48  H22 RX4 d          27.979   1.082  44.221  0.00  0.00     0.028 H 
ENDBRANCH  43  45
BRANCH  43  49
ATOM     49  CBA RX4 d          27.334  -2.203  44.519  0.00  0.00     0.222 C 
ATOM     50  OAH RX4 d          27.909  -2.553  45.562  0.00  0.00    -0.273 OA
ATOM     51  N   RX4 d          27.287  -2.973  43.441  0.00  0.00    -0.348 N 
ATOM     52  H23 RX4 d          26.840  -2.657  42.604  0.00  0.00     0.163 HD
BRANCH  51  53
ATOM     53  CA  RX4 d          27.926  -4.340  43.506  0.00  0.00     0.086 C 
ATOM     54  H24 RX4 d          28.960  -4.276  43.877  0.00  0.00     0.086 H 
BRANCH  53  55
ATOM     55  CB  RX4 d          27.094  -5.258  44.413  0.00  0.00    -0.049 C 
ATOM     56  H25 RX4 d          27.181  -6.298  44.062  0.00  0.00     0.030 H 
ATOM     57  H26 RX4 d          26.039  -4.948  44.379  0.00  0.00     0.030 H 
ATOM     58  H27 RX4 d          27.465  -5.188  45.446  0.00  0.00     0.030 H 
ENDBRANCH  53  55
BRANCH  53  59
ATOM     59  C   RX4 d          27.888  -4.881  42.035  0.00  0.00     0.237 C 
ATOM     60  O   RX4 d          28.681  -5.821  41.694  0.00  0.00    -0.271 OA
ATOM     61  NAD RX4 d          27.000  -4.360  41.207  0.00  0.00    -0.368 N 
ATOM     62  H28 RX4 d          26.949  -4.683  40.262  0.00  0.00     0.159 HD
ATOM     63  H29 RX4 d          26.379  -3.644  41.525  0.00  0.00     0.159 HD
ENDBRANCH  53  59
ENDBRANCH  51  53
ENDBRANCH  43  49
ENDBRANCH  40  43
ENDBRANCH  37  40
ENDBRANCH   1  37
TORSDOF 16
ENDMDL
MODEL 3
REMARK VINA RESULT:      -6.3      1.577      2.219
REMARK  16 active torsions:
REMARK  status: ('A' for Active; 'I' for Inactive)
REMARK    1  A    between atoms: CBC_6  and  CAS_7 
REMARK    2  A    between atoms: CAS_7  and  CBG_8 
REMARK    3  A    between atoms: CBG_8  and  NAW_9 
REMARK    4  A    between atoms: CBG_8  and  P1_21 
REMARK       I    between atoms: NAW_9  and  CBB_10 
REMARK    5  A    between atoms: CBB_10  and  CBF_12 
REMARK    6  A    between atoms: CBF_12  and  CAR_13 
REMARK    7  A    between atoms: CBF_12  and  NAU_17 
REMARK    8  A    between atoms: CAR_13  and  CAZ_14 
REMARK       I    between atoms: NAU_17  and  CAX_18 
REMARK    9  A    between atoms: CAX_18  and  CAA_19 
REMARK   10  A    between atoms: P1_21  and  CAT_24 
REMARK   11  A    between atoms: CAT_24  and  CBD_25 
REMARK   12  A    between atoms: CBD_25  and  CAB_26 
REMARK   13  A    between atoms: CBD_25  and  CBA_27 
REMARK       I    between atoms: CBA_27  and  N_29 
REMARK   14  A    between atoms: N_29  and  CA_30 
REMARK   15  A    between atoms: CA_30  and  CB_31 
REMARK   16  A    between atoms: CA_30  and  C_32 
REMARK       I    between atoms: C_32  and  NAD_34 
ROOT
ATOM      1  CBG RX4 d          27.131   3.311  45.227  0.00  0.00     0.091 C 
ATOM      2  H8  RX4 d          26.203   2.991  44.729  0.00  0.00     0.089 H 
ENDROOT
BRANCH   1   3
ATOM      3  CAS RX4 d          28.163   3.746  44.118  0.00  0.00    -0.013 C 
ATOM      4  H6  RX4 d          28.921   4.419  44.543  0.00  0.00     0.044 H 
ATOM      5  H7  RX4 d          28.656   2.864  43.686  0.00  0.00     0.044 H 
BRANCH   3   6
ATOM      6  CBC RX4 d          27.331   4.484  43.038  0.00  0.00    -0.056 A 
ATOM      7  CAP RX4 d          27.592   5.870  42.893  0.00  0.00    -0.077 A 
ATOM      8  CAN RX4 d          26.903   6.686  42.007  0.00  0.00    -0.082 A 
ATOM      9  H1  RX4 d          28.368   6.314  43.506  0.00  0.00     0.084 H 
ATOM     10  CAM RX4 d          25.886   6.027  41.279  0.00  0.00    -0.083 A 
ATOM     11  H2  RX4 d          27.126   7.740  41.884  0.00  0.00     0.083 H 
ATOM     12  CAO RX4 d          25.580   4.654  41.424  0.00  0.00    -0.082 A 
ATOM     13  H3  RX4 d          25.309   6.607  40.568  0.00  0.00     0.083 H 
ATOM     14  CAQ RX4 d          26.310   3.860  42.324  0.00  0.00    -0.077 A 
ATOM     15  H4  RX4 d          24.780   4.213  40.839  0.00  0.00     0.083 H 
ATOM     16  H5  RX4 d          26.089   2.806  42.456  0.00  0.00     0.084 H 
ENDBRANCH   3   6
ENDBRANCH   1   3
BRANCH   1  17
ATOM     17  NAW RX4 d          26.847   4.416  46.138  0.00  0.00    -0.345 N 
ATOM     18  CBB RX4 d          25.579   4.595  46.519  0.00  0.00     0.241 C 
ATOM     19  OAI RX4 d          24.666   3.824  46.175  0.00  0.00    -0.271 OA
ATOM     20  H9  RX4 d          27.576   5.016  46.466  0.00  0.00     0.163 HD
BRANCH  18  21
ATOM     21  CBF RX4 d          25.182   5.898  47.231  0.00  0.00     0.098 C 
ATOM     22  H10 RX4 d          24.654   5.665  48.168  0.00  0.00     0.088 H 
BRANCH  21  23
ATOM     23  CAR RX4 d          24.283   6.743  46.387  0.00  0.00     0.043 C 
ATOM     24  H11 RX4 d          24.265   6.367  45.354  0.00  0.00     0.052 H 
ATOM     25  H12 RX4 d          24.626   7.789  46.391  0.00  0.00     0.052 H 
BRANCH  23  26
ATOM     26  CAZ RX4 d          22.875   6.639  47.021  0.00  0.00     0.175 C 
ATOM     27  OAK RX4 d          21.870   7.060  46.381  0.00  0.00    -0.648 OA
ATOM     28  OAG RX4 d          22.821   6.080  48.113  0.00  0.00    -0.648 OA
ENDBRANCH  23  26
ENDBRANCH  21  23
BRANCH  21  29
ATOM     29  NAU RX4 d          26.495   6.564  47.545  0.00  0.00    -0.348 N 
ATOM     30  CAX RX4 d          27.311   6.142  48.529  0.00  0.00     0.214 C 
ATOM     31  OAE RX4 d          27.039   5.193  49.303  0.00  0.00    -0.274 OA
ATOM     32  H13 RX4 d          26.773   7.354  46.999  0.00  0.00     0.163 HD
BRANCH  30  33
ATOM     33  CAA RX4 d          28.651   6.921  48.672  0.00  0.00    -0.003 C 
ATOM     34  H14 RX4 d          29.044   6.791  49.691  0.00  0.00     0.040 H 
ATOM     35  H15 RX4 d          28.477   7.990  48.480  0.00  0.00     0.040 H 
ATOM     36  H16 RX4 d          29.380   6.532  47.945  0.00  0.00     0.040 H 
ENDBRANCH  30  33
ENDBRANCH  21  29
ENDBRANCH  18  21
ENDBRANCH   1  17
BRANCH   1  37
ATOM     37  P1  RX4 d          27.742   1.972  46.274  0.00  0.00     0.130 P 
ATOM     38  O4  RX4 d          27.624   2.341  47.743  0.00  0.00    -0.666 OA
ATOM     39  O3  RX4 d          29.231   1.734  46.150  0.00  0.00    -0.666 OA
BRANCH  37  40
ATOM     40  CAT RX4 d          26.766   0.522  45.901  0.00  0.00     0.020 C 
ATOM     41  H17 RX4 d          25.722   0.747  46.163  0.00  0.00     0.050 H 
ATOM     42  H18 RX4 d          27.134  -0.298  46.535  0.00  0.00     0.050 H 
BRANCH  40  43
ATOM     43  CBD RX4 d          26.783   0.029  44.450  0.00  0.00     0.029 C 
ATOM     44  H19 RX4 d          25.936   0.454  43.892  0.00  0.00     0.054 H 
BRANCH  43  45
ATOM     45  CAB RX4 d          28.173   0.324  43.693  0.00  0.00    -0.064 C 
ATOM     46  H20 RX4 d          28.091   1.267  43.133  0.00  0.00     0.028 H 
ATOM     47  H21 RX4 d          28.393  -0.498  42.997  0.00  0.00     0.028 H 
ATOM     48  H22 RX4 d          28.983   0.406  44.433  0.00  0.00     0.028 H 
ENDBRANCH  43  45
BRANCH  43  49
ATOM     49  CBA RX4 d          26.723  -1.546  44.521  0.00  0.00     0.222 C 
ATOM     50  OAH RX4 d          26.274  -2.110  45.531  0.00  0.00    -0.273 OA
ATOM     51  N   RX4 d          27.254  -2.218  43.508  0.00  0.00    -0.348 N 
ATOM     52  H23 RX4 d          27.633  -1.738  42.717  0.00  0.00     0.163 HD
BRANCH  51  53
ATOM     53  CA  RX4 d          27.273  -3.727  43.579  0.00  0.00     0.086 C 
ATOM     54  H24 RX4 d          26.686  -4.090  44.435  0.00  0.00     0.086 H 
BRANCH  53  55
ATOM     55  CB  RX4 d          26.722  -4.314  42.272  0.00  0.00    -0.049 C 
ATOM     56  H25 RX4 d          25.655  -4.062  42.177  0.00  0.00     0.030 H 
ATOM     57  H26 RX4 d          26.841  -5.407  42.282  0.00  0.00     0.030 H 
ATOM     58  H27 RX4 d          27.275  -3.892  41.419  0.00  0.00     0.030 H 
ENDBRANCH  53  55
BRANCH  53  59
ATOM     59  C   RX4 d          28.785  -4.110  43.730  0.00  0.00     0.237 C 
ATOM     60  O   RX4 d          29.592  -3.274  44.260  0.00  0.00    -0.271 OA
ATOM     61  NAD RX4 d          29.163  -5.312  43.332  0.00  0.00    -0.368 N 
ATOM     62  H28 RX4 d          30.120  -5.589  43.415  0.00  0.00     0.159 HD
ATOM     63  H29 RX4 d          28.491  -5.946  42.948  0.00  0.00     0.159 HD
ENDBRANCH  53  59
ENDBRANCH  51  53
ENDBRANCH  43  49
ENDBRANCH  40  43
ENDBRANCH  37  40
ENDBRANCH   1  37
TORSDOF 16
ENDMDL
MODEL 4
REMARK VINA RESULT:      -6.2      2.353      4.672
REMARK  16 active torsions:
REMARK  status: ('A' for Active; 'I' for Inactive)
REMARK    1  A    between atoms: CBC_6  and  CAS_7 
REMARK    2  A    between atoms: CAS_7  and  CBG_8 
REMARK    3  A    between atoms: CBG_8  and  NAW_9 
REMARK    4  A    between atoms: CBG_8  and  P1_21 
REMARK       I    between atoms: NAW_9  and  CBB_10 
REMARK    5  A    between atoms: CBB_10  and  CBF_12 
REMARK    6  A    between atoms: CBF_12  and  CAR_13 
REMARK    7  A    between atoms: CBF_12  and  NAU_17 
REMARK    8  A    between atoms: CAR_13  and  CAZ_14 
REMARK       I    between atoms: NAU_17  and  CAX_18 
REMARK    9  A    between atoms: CAX_18  and  CAA_19 
REMARK   10  A    between atoms: P1_21  and  CAT_24 
REMARK   11  A    between atoms: CAT_24  and  CBD_25 
REMARK   12  A    between atoms: CBD_25  and  CAB_26 
REMARK   13  A    between atoms: CBD_25  and  CBA_27 
REMARK       I    between atoms: CBA_27  and  N_29 
REMARK   14  A    between atoms: N_29  and  CA_30 
REMARK   15  A    between atoms: CA_30  and  CB_31 
REMARK   16  A    between atoms: CA_30  and  C_32 
REMARK       I    between atoms: C_32  and  NAD_34 
ROOT
ATOM      1  CBG RX4 d          26.757   3.278  46.650  0.00  0.00     0.091 C 
ATOM      2  H8  RX4 d          27.777   3.059  46.301  0.00  0.00     0.089 H 
ENDROOT
BRANCH   1   3
ATOM      3  CAS RX4 d          26.844   3.805  48.133  0.00  0.00    -0.013 C 
ATOM      4  H6  RX4 d          26.717   2.974  48.843  0.00  0.00     0.044 H 
ATOM      5  H7  RX4 d          27.812   4.294  48.310  0.00  0.00     0.044 H 
BRANCH   3   6
ATOM      6  CBC RX4 d          25.687   4.825  48.284  0.00  0.00    -0.056 A 
ATOM      7  CAP RX4 d          26.031   6.186  48.089  0.00  0.00    -0.077 A 
ATOM      8  CAN RX4 d          25.126   7.229  48.235  0.00  0.00    -0.082 A 
ATOM      9  H1  RX4 d          27.052   6.425  47.814  0.00  0.00     0.084 H 
ATOM     10  CAM RX4 d          23.831   6.825  48.630  0.00  0.00    -0.083 A 
ATOM     11  H2  RX4 d          25.391   8.266  48.059  0.00  0.00     0.083 H 
ATOM     12  CAO RX4 d          23.465   5.479  48.864  0.00  0.00    -0.082 A 
ATOM     13  H3  RX4 d          23.075   7.590  48.762  0.00  0.00     0.083 H 
ATOM     14  CAQ RX4 d          24.408   4.452  48.693  0.00  0.00    -0.077 A 
ATOM     15  H4  RX4 d          22.454   5.239  49.175  0.00  0.00     0.083 H 
ATOM     16  H5  RX4 d          24.152   3.413  48.873  0.00  0.00     0.084 H 
ENDBRANCH   3   6
ENDBRANCH   1   3
BRANCH   1  17
ATOM     17  NAW RX4 d          26.140   4.274  45.779  0.00  0.00    -0.345 N 
ATOM     18  CBB RX4 d          26.633   4.407  44.544  0.00  0.00     0.241 C 
ATOM     19  OAI RX4 d          27.541   3.677  44.108  0.00  0.00    -0.271 OA
ATOM     20  H9  RX4 d          25.376   4.835  46.095  0.00  0.00     0.163 HD
BRANCH  18  21
ATOM     21  CBF RX4 d          26.224   5.622  43.695  0.00  0.00     0.098 C 
ATOM     22  H10 RX4 d          25.805   5.283  42.735  0.00  0.00     0.088 H 
BRANCH  21  23
ATOM     23  CAR RX4 d          27.387   6.516  43.405  0.00  0.00     0.043 C 
ATOM     24  H11 RX4 d          28.260   6.213  44.002  0.00  0.00     0.052 H 
ATOM     25  H12 RX4 d          27.131   7.561  43.633  0.00  0.00     0.052 H 
BRANCH  23  26
ATOM     26  CAZ RX4 d          27.687   6.355  41.895  0.00  0.00     0.175 C 
ATOM     27  OAK RX4 d          28.872   6.490  41.477  0.00  0.00    -0.648 OA
ATOM     28  OAG RX4 d          26.732   6.036  41.192  0.00  0.00    -0.648 OA
ENDBRANCH  23  26
ENDBRANCH  21  23
BRANCH  21  29
ATOM     29  NAU RX4 d          25.149   6.295  44.505  0.00  0.00    -0.348 N 
ATOM     30  CAX RX4 d          23.881   5.847  44.551  0.00  0.00     0.214 C 
ATOM     31  OAE RX4 d          23.463   4.863  43.894  0.00  0.00    -0.274 OA
ATOM     32  H13 RX4 d          25.387   7.111  45.031  0.00  0.00     0.163 HD
BRANCH  30  33
ATOM     33  CAA RX4 d          22.920   6.640  45.484  0.00  0.00    -0.003 C 
ATOM     34  H14 RX4 d          23.391   6.772  46.469  0.00  0.00     0.040 H 
ATOM     35  H15 RX4 d          21.979   6.083  45.599  0.00  0.00     0.040 H 
ATOM     36  H16 RX4 d          22.711   7.626  45.042  0.00  0.00     0.040 H 
ENDBRANCH  30  33
ENDBRANCH  21  29
ENDBRANCH  18  21
ENDBRANCH   1  17
BRANCH   1  37
ATOM     37  P1  RX4 d          25.735   1.798  46.484  0.00  0.00     0.130 P 
ATOM     38  O4  RX4 d          24.639   2.014  45.456  0.00  0.00    -0.666 OA
ATOM     39  O3  RX4 d          24.921   1.480  47.719  0.00  0.00    -0.666 OA
BRANCH  37  40
ATOM     40  CAT RX4 d          26.816   0.462  45.993  0.00  0.00     0.020 C 
ATOM     41  H17 RX4 d          26.578  -0.407  46.623  0.00  0.00     0.050 H 
ATOM     42  H18 RX4 d          27.850   0.783  46.187  0.00  0.00     0.050 H 
BRANCH  40  43
ATOM     43  CBD RX4 d          26.738   0.010  44.531  0.00  0.00     0.029 C 
ATOM     44  H19 RX4 d          25.870   0.470  44.034  0.00  0.00     0.054 H 
BRANCH  43  45
ATOM     45  CAB RX4 d          28.088   0.294  43.703  0.00  0.00    -0.064 C 
ATOM     46  H20 RX4 d          28.470  -0.651  43.290  0.00  0.00     0.028 H 
ATOM     47  H21 RX4 d          28.842   0.733  44.373  0.00  0.00     0.028 H 
ATOM     48  H22 RX4 d          27.875   0.994  42.881  0.00  0.00     0.028 H 
ENDBRANCH  43  45
BRANCH  43  49
ATOM     49  CBA RX4 d          26.643  -1.564  44.563  0.00  0.00     0.222 C 
ATOM     50  OAH RX4 d          26.214  -2.145  45.573  0.00  0.00    -0.273 OA
ATOM     51  N   RX4 d          27.124  -2.222  43.517  0.00  0.00    -0.348 N 
ATOM     52  H23 RX4 d          27.488  -1.730  42.726  0.00  0.00     0.163 HD
BRANCH  51  53
ATOM     53  CA  RX4 d          27.111  -3.732  43.549  0.00  0.00     0.086 C 
ATOM     54  H24 RX4 d          26.304  -4.107  44.196  0.00  0.00     0.086 H 
BRANCH  53  55
ATOM     55  CB  RX4 d          26.943  -4.278  42.123  0.00  0.00    -0.049 C 
ATOM     56  H25 RX4 d          25.873  -4.338  41.876  0.00  0.00     0.030 H 
ATOM     57  H26 RX4 d          27.391  -5.282  42.061  0.00  0.00     0.030 H 
ATOM     58  H27 RX4 d          27.447  -3.607  41.412  0.00  0.00     0.030 H 
ENDBRANCH  53  55
BRANCH  53  59
ATOM     59  C   RX4 d          28.516  -4.143  44.106  0.00  0.00     0.237 C 
ATOM     60  O   RX4 d          29.521  -4.157  43.318  0.00  0.00    -0.271 OA
ATOM     61  NAD RX4 d          28.615  -4.425  45.393  0.00  0.00    -0.368 N 
ATOM     62  H28 RX4 d          29.498  -4.690  45.781  0.00  0.00     0.159 HD
ATOM     63  H29 RX4 d          27.806  -4.373  45.980  0.00  0.00     0.159 HD
ENDBRANCH  53  59
ENDBRANCH  51  53
ENDBRANCH  43  49
ENDBRANCH  40  43
ENDBRANCH  37  40
ENDBRANCH   1  37
TORSDOF 16
ENDMDL
MODEL 5
REMARK VINA RESULT:      -6.0      1.308      2.499
REMARK  16 active torsions:
REMARK  status: ('A' for Active; 'I' for Inactive)
REMARK    1  A    between atoms: CBC_6  and  CAS_7 
REMARK    2  A    between atoms: CAS_7  and  CBG_8 
REMARK    3  A    between atoms: CBG_8  and  NAW_9 
REMARK    4  A    between atoms: CBG_8  and  P1_21 
REMARK       I    between atoms: NAW_9  and  CBB_10 
REMARK    5  A    between atoms: CBB_10  and  CBF_12 
REMARK    6  A    between atoms: CBF_12  and  CAR_13 
REMARK    7  A    between atoms: CBF_12  and  NAU_17 
REMARK    8  A    between atoms: CAR_13  and  CAZ_14 
REMARK       I    between atoms: NAU_17  and  CAX_18 
REMARK    9  A    between atoms: CAX_18  and  CAA_19 
REMARK   10  A    between atoms: P1_21  and  CAT_24 
REMARK   11  A    between atoms: CAT_24  and  CBD_25 
REMARK   12  A    between atoms: CBD_25  and  CAB_26 
REMARK   13  A    between atoms: CBD_25  and  CBA_27 
REMARK       I    between atoms: CBA_27  and  N_29 
REMARK   14  A    between atoms: N_29  and  CA_30 
REMARK   15  A    between atoms: CA_30  and  CB_31 
REMARK   16  A    between atoms: CA_30  and  C_32 
REMARK       I    between atoms: C_32  and  NAD_34 
ROOT
ATOM      1  CBG RX4 d          26.685   2.506  43.771  0.00  0.00     0.091 C 
ATOM      2  H8  RX4 d          25.803   1.902  44.030  0.00  0.00     0.089 H 
ENDROOT
BRANCH   1   3
ATOM      3  CAS RX4 d          26.578   2.914  42.252  0.00  0.00    -0.013 C 
ATOM      4  H6  RX4 d          27.373   2.428  41.667  0.00  0.00     0.044 H 
ATOM      5  H7  RX4 d          25.597   2.627  41.846  0.00  0.00     0.044 H 
BRANCH   3   6
ATOM      6  CBC RX4 d          26.747   4.454  42.219  0.00  0.00    -0.056 A 
ATOM      7  CAP RX4 d          25.629   5.191  41.753  0.00  0.00    -0.077 A 
ATOM      8  CAN RX4 d          25.631   6.572  41.615  0.00  0.00    -0.082 A 
ATOM      9  H1  RX4 d          24.728   4.649  41.490  0.00  0.00     0.084 H 
ATOM     10  CAM RX4 d          26.859   7.189  41.946  0.00  0.00    -0.083 A 
ATOM     11  H2  RX4 d          24.763   7.131  41.282  0.00  0.00     0.083 H 
ATOM     12  CAO RX4 d          28.002   6.479  42.382  0.00  0.00    -0.082 A 
ATOM     13  H3  RX4 d          26.929   8.267  41.860  0.00  0.00     0.083 H 
ATOM     14  CAQ RX4 d          27.954   5.082  42.520  0.00  0.00    -0.077 A 
ATOM     15  H4  RX4 d          28.917   7.014  42.611  0.00  0.00     0.083 H 
ATOM     16  H5  RX4 d          28.819   4.516  42.847  0.00  0.00     0.084 H 
ENDBRANCH   3   6
ENDBRANCH   1   3
BRANCH   1  17
ATOM     17  NAW RX4 d          26.743   3.689  44.625  0.00  0.00    -0.345 N 
ATOM     18  CBB RX4 d          25.635   4.028  45.290  0.00  0.00     0.241 C 
ATOM     19  OAI RX4 d          24.598   3.341  45.248  0.00  0.00    -0.271 OA
ATOM     20  H9  RX4 d          27.582   4.225  44.710  0.00  0.00     0.163 HD
BRANCH  18  21
ATOM     21  CBF RX4 d          25.550   5.407  45.963  0.00  0.00     0.098 C 
ATOM     22  H10 RX4 d          25.137   6.142  45.256  0.00  0.00     0.088 H 
BRANCH  21  23
ATOM     23  CAR RX4 d          26.892   5.894  46.409  0.00  0.00     0.043 C 
ATOM     24  H11 RX4 d          26.896   6.992  46.476  0.00  0.00     0.052 H 
ATOM     25  H12 RX4 d          27.671   5.566  45.703  0.00  0.00     0.052 H 
BRANCH  23  26
ATOM     26  CAZ RX4 d          27.134   5.269  47.803  0.00  0.00     0.175 C 
ATOM     27  OAK RX4 d          27.498   4.062  47.891  0.00  0.00    -0.648 OA
ATOM     28  OAG RX4 d          27.012   6.031  48.759  0.00  0.00    -0.648 OA
ENDBRANCH  23  26
ENDBRANCH  21  23
BRANCH  21  29
ATOM     29  NAU RX4 d          24.587   5.206  47.102  0.00  0.00    -0.348 N 
ATOM     30  CAX RX4 d          23.654   6.116  47.438  0.00  0.00     0.214 C 
ATOM     31  OAE RX4 d          23.527   7.229  46.873  0.00  0.00    -0.274 OA
ATOM     32  H13 RX4 d          24.643   4.360  47.631  0.00  0.00     0.163 HD
BRANCH  30  33
ATOM     33  CAA RX4 d          22.711   5.712  48.610  0.00  0.00    -0.003 C 
ATOM     34  H14 RX4 d          21.699   6.097  48.416  0.00  0.00     0.040 H 
ATOM     35  H15 RX4 d          23.092   6.137  49.550  0.00  0.00     0.040 H 
ATOM     36  H16 RX4 d          22.677   4.615  48.691  0.00  0.00     0.040 H 
ENDBRANCH  30  33
ENDBRANCH  21  29
ENDBRANCH  18  21
ENDBRANCH   1  17
BRANCH   1  37
ATOM     37  P1  RX4 d          28.184   1.570  44.146  0.00  0.00     0.130 P 
ATOM     38  O4  RX4 d          28.675   1.882  45.550  0.00  0.00    -0.666 OA
ATOM     39  O3  RX4 d          29.381   1.981  43.319  0.00  0.00    -0.666 OA
BRANCH  37  40
ATOM     40  CAT RX4 d          27.779  -0.163  43.983  0.00  0.00     0.020 C 
ATOM     41  H17 RX4 d          28.721  -0.712  43.844  0.00  0.00     0.050 H 
ATOM     42  H18 RX4 d          27.153  -0.274  43.086  0.00  0.00     0.050 H 
BRANCH  40  43
ATOM     43  CBD RX4 d          27.033  -0.813  45.153  0.00  0.00     0.029 C 
ATOM     44  H19 RX4 d          27.331  -0.347  46.104  0.00  0.00     0.054 H 
BRANCH  43  45
ATOM     45  CAB RX4 d          25.433  -0.787  44.981  0.00  0.00    -0.064 C 
ATOM     46  H20 RX4 d          24.959  -0.727  45.971  0.00  0.00     0.028 H 
ATOM     47  H21 RX4 d          25.104  -1.706  44.472  0.00  0.00     0.028 H 
ATOM     48  H22 RX4 d          25.142   0.088  44.381  0.00  0.00     0.028 H 
ENDBRANCH  43  45
BRANCH  43  49
ATOM     49  CBA RX4 d          27.390  -2.349  45.101  0.00  0.00     0.222 C 
ATOM     50  OAH RX4 d          27.860  -2.916  46.099  0.00  0.00    -0.273 OA
ATOM     51  N   RX4 d          27.253  -2.964  43.934  0.00  0.00    -0.348 N 
ATOM     52  H23 RX4 d          26.894  -2.476  43.137  0.00  0.00     0.163 HD
BRANCH  51  53
ATOM     53  CA  RX4 d          27.651  -4.417  43.835  0.00  0.00     0.086 C 
ATOM     54  H24 RX4 d          27.600  -4.908  44.818  0.00  0.00     0.086 H 
BRANCH  53  55
ATOM     55  CB  RX4 d          26.737  -5.138  42.835  0.00  0.00    -0.049 C 
ATOM     56  H25 RX4 d          25.687  -5.009  43.137  0.00  0.00     0.030 H 
ATOM     57  H26 RX4 d          26.985  -6.211  42.819  0.00  0.00     0.030 H 
ATOM     58  H27 RX4 d          26.884  -4.713  41.831  0.00  0.00     0.030 H 
ENDBRANCH  53  55
BRANCH  53  59
ATOM     59  C   RX4 d          29.120  -4.403  43.289  0.00  0.00     0.237 C 
ATOM     60  O   RX4 d          30.067  -4.016  44.052  0.00  0.00    -0.271 OA
ATOM     61  NAD RX4 d          29.327  -4.832  42.056  0.00  0.00    -0.368 N 
ATOM     62  H28 RX4 d          30.252  -4.837  41.677  0.00  0.00     0.159 HD
ATOM     63  H29 RX4 d          28.558  -5.153  41.503  0.00  0.00     0.159 HD
ENDBRANCH  53  59
ENDBRANCH  51  53
ENDBRANCH  43  49
ENDBRANCH  40  43
ENDBRANCH  37  40
ENDBRANCH   1  37
TORSDOF 16
ENDMDL
MODEL 6
REMARK VINA RESULT:      -5.9      1.882      3.258
REMARK  16 active torsions:
REMARK  status: ('A' for Active; 'I' for Inactive)
REMARK    1  A    between atoms: CBC_6  and  CAS_7 
REMARK    2  A    between atoms: CAS_7  and  CBG_8 
REMARK    3  A    between atoms: CBG_8  and  NAW_9 
REMARK    4  A    between atoms: CBG_8  and  P1_21 
REMARK       I    between atoms: NAW_9  and  CBB_10 
REMARK    5  A    between atoms: CBB_10  and  CBF_12 
REMARK    6  A    between atoms: CBF_12  and  CAR_13 
REMARK    7  A    between atoms: CBF_12  and  NAU_17 
REMARK    8  A    between atoms: CAR_13  and  CAZ_14 
REMARK       I    between atoms: NAU_17  and  CAX_18 
REMARK    9  A    between atoms: CAX_18  and  CAA_19 
REMARK   10  A    between atoms: P1_21  and  CAT_24 
REMARK   11  A    between atoms: CAT_24  and  CBD_25 
REMARK   12  A    between atoms: CBD_25  and  CAB_26 
REMARK   13  A    between atoms: CBD_25  and  CBA_27 
REMARK       I    between atoms: CBA_27  and  N_29 
REMARK   14  A    between atoms: N_29  and  CA_30 
REMARK   15  A    between atoms: CA_30  and  CB_31 
REMARK   16  A    between atoms: CA_30  and  C_32 
REMARK       I    between atoms: C_32  and  NAD_34 
ROOT
ATOM      1  CBG RX4 d          26.704   3.164  45.541  0.00  0.00     0.091 C 
ATOM      2  H8  RX4 d          25.760   3.298  44.992  0.00  0.00     0.089 H 
ENDROOT
BRANCH   1   3
ATOM      3  CAS RX4 d          27.896   3.490  44.562  0.00  0.00    -0.013 C 
ATOM      4  H6  RX4 d          28.656   4.100  45.073  0.00  0.00     0.044 H 
ATOM      5  H7  RX4 d          28.356   2.561  44.196  0.00  0.00     0.044 H 
BRANCH   3   6
ATOM      6  CBC RX4 d          27.269   4.283  43.387  0.00  0.00    -0.056 A 
ATOM      7  CAP RX4 d          27.797   5.580  43.162  0.00  0.00    -0.077 A 
ATOM      8  CAN RX4 d          27.317   6.438  42.183  0.00  0.00    -0.082 A 
ATOM      9  H1  RX4 d          28.617   5.917  43.786  0.00  0.00     0.084 H 
ATOM     10  CAM RX4 d          26.225   5.927  41.445  0.00  0.00    -0.083 A 
ATOM     11  H2  RX4 d          27.743   7.418  42.000  0.00  0.00     0.083 H 
ATOM     12  CAO RX4 d          25.655   4.652  41.668  0.00  0.00    -0.082 A 
ATOM     13  H3  RX4 d          25.801   6.547  40.664  0.00  0.00     0.083 H 
ATOM     14  CAQ RX4 d          26.179   3.808  42.661  0.00  0.00    -0.077 A 
ATOM     15  H4  RX4 d          24.811   4.325  41.070  0.00  0.00     0.083 H 
ATOM     16  H5  RX4 d          25.755   2.829  42.853  0.00  0.00     0.084 H 
ENDBRANCH   3   6
ENDBRANCH   1   3
BRANCH   1  17
ATOM     17  NAW RX4 d          26.729   4.045  46.705  0.00  0.00    -0.345 N 
ATOM     18  CBB RX4 d          25.989   5.156  46.656  0.00  0.00     0.241 C 
ATOM     19  OAI RX4 d          25.248   5.421  45.693  0.00  0.00    -0.271 OA
ATOM     20  H9  RX4 d          27.280   3.825  47.509  0.00  0.00     0.163 HD
BRANCH  18  21
ATOM     21  CBF RX4 d          26.201   6.252  47.714  0.00  0.00     0.098 C 
ATOM     22  H10 RX4 d          26.642   7.144  47.245  0.00  0.00     0.088 H 
BRANCH  21  23
ATOM     23  CAR RX4 d          27.116   5.801  48.808  0.00  0.00     0.043 C 
ATOM     24  H11 RX4 d          27.168   4.703  48.834  0.00  0.00     0.052 H 
ATOM     25  H12 RX4 d          26.762   6.176  49.780  0.00  0.00     0.052 H 
BRANCH  23  26
ATOM     26  CAZ RX4 d          28.506   6.396  48.478  0.00  0.00     0.175 C 
ATOM     27  OAK RX4 d          29.071   6.094  47.388  0.00  0.00    -0.648 OA
ATOM     28  OAG RX4 d          28.953   7.197  49.295  0.00  0.00    -0.648 OA
ENDBRANCH  23  26
ENDBRANCH  21  23
BRANCH  21  29
ATOM     29  NAU RX4 d          24.813   6.572  48.201  0.00  0.00    -0.348 N 
ATOM     30  CAX RX4 d          24.031   5.670  48.822  0.00  0.00     0.214 C 
ATOM     31  OAE RX4 d          24.360   4.474  49.014  0.00  0.00    -0.274 OA
ATOM     32  H13 RX4 d          24.456   7.494  48.055  0.00  0.00     0.163 HD
BRANCH  30  33
ATOM     33  CAA RX4 d          22.647   6.196  49.302  0.00  0.00    -0.003 C 
ATOM     34  H14 RX4 d          22.771   6.746  50.247  0.00  0.00     0.040 H 
ATOM     35  H15 RX4 d          21.966   5.347  49.459  0.00  0.00     0.040 H 
ATOM     36  H16 RX4 d          22.226   6.868  48.539  0.00  0.00     0.040 H 
ENDBRANCH  30  33
ENDBRANCH  21  29
ENDBRANCH  18  21
ENDBRANCH   1  17
BRANCH   1  37
ATOM     37  P1  RX4 d          26.777   1.487  46.208  0.00  0.00     0.130 P 
ATOM     38  O4  RX4 d          26.034   1.402  47.530  0.00  0.00    -0.666 OA
ATOM     39  O3  RX4 d          28.166   1.059  46.626  0.00  0.00    -0.666 OA
BRANCH  37  40
ATOM     40  CAT RX4 d          26.043   0.403  44.993  0.00  0.00     0.020 C 
ATOM     41  H17 RX4 d          25.331   0.998  44.403  0.00  0.00     0.050 H 
ATOM     42  H18 RX4 d          25.500  -0.385  45.536  0.00  0.00     0.050 H 
BRANCH  40  43
ATOM     43  CBD RX4 d          26.997  -0.285  44.011  0.00  0.00     0.029 C 
ATOM     44  H19 RX4 d          26.510  -0.417  43.033  0.00  0.00     0.054 H 
BRANCH  43  45
ATOM     45  CAB RX4 d          28.405   0.480  43.849  0.00  0.00    -0.064 C 
ATOM     46  H20 RX4 d          28.232   1.478  43.422  0.00  0.00     0.028 H 
ATOM     47  H21 RX4 d          29.060  -0.098  43.181  0.00  0.00     0.028 H 
ATOM     48  H22 RX4 d          28.883   0.581  44.835  0.00  0.00     0.028 H 
ENDBRANCH  43  45
BRANCH  43  49
ATOM     49  CBA RX4 d          27.393  -1.661  44.673  0.00  0.00     0.222 C 
ATOM     50  OAH RX4 d          27.301  -1.813  45.901  0.00  0.00    -0.273 OA
ATOM     51  N   RX4 d          27.906  -2.590  43.878  0.00  0.00    -0.348 N 
ATOM     52  H23 RX4 d          27.993  -2.432  42.894  0.00  0.00     0.163 HD
BRANCH  51  53
ATOM     53  CA  RX4 d          28.358  -3.893  44.494  0.00  0.00     0.086 C 
ATOM     54  H24 RX4 d          28.519  -3.783  45.577  0.00  0.00     0.086 H 
BRANCH  53  55
ATOM     55  CB  RX4 d          27.313  -4.985  44.222  0.00  0.00    -0.049 C 
ATOM     56  H25 RX4 d          26.312  -4.606  44.477  0.00  0.00     0.030 H 
ATOM     57  H26 RX4 d          27.539  -5.869  44.837  0.00  0.00     0.030 H 
ATOM     58  H27 RX4 d          27.341  -5.261  43.157  0.00  0.00     0.030 H 
ENDBRANCH  53  55
BRANCH  53  59
ATOM     59  C   RX4 d          29.695  -4.251  43.760  0.00  0.00     0.237 C 
ATOM     60  O   RX4 d          30.802  -4.143  44.388  0.00  0.00    -0.271 OA
ATOM     61  NAD RX4 d          29.620  -4.693  42.517  0.00  0.00    -0.368 N 
ATOM     62  H28 RX4 d          30.455  -4.931  42.019  0.00  0.00     0.159 HD
ATOM     63  H29 RX4 d          28.729  -4.789  42.073  0.00  0.00     0.159 HD
ENDBRANCH  53  59
ENDBRANCH  51  53
ENDBRANCH  43  49
ENDBRANCH  40  43
ENDBRANCH  37  40
ENDBRANCH   1  37
TORSDOF 16
ENDMDL
MODEL 7
REMARK VINA RESULT:      -5.7      1.847      2.852
REMARK  16 active torsions:
REMARK  status: ('A' for Active; 'I' for Inactive)
REMARK    1  A    between atoms: CBC_6  and  CAS_7 
REMARK    2  A    between atoms: CAS_7  and  CBG_8 
REMARK    3  A    between atoms: CBG_8  and  NAW_9 
REMARK    4  A    between atoms: CBG_8  and  P1_21 
REMARK       I    between atoms: NAW_9  and  CBB_10 
REMARK    5  A    between atoms: CBB_10  and  CBF_12 
REMARK    6  A    between atoms: CBF_12  and  CAR_13 
REMARK    7  A    between atoms: CBF_12  and  NAU_17 
REMARK    8  A    between atoms: CAR_13  and  CAZ_14 
REMARK       I    between atoms: NAU_17  and  CAX_18 
REMARK    9  A    between atoms: CAX_18  and  CAA_19 
REMARK   10  A    between atoms: P1_21  and  CAT_24 
REMARK   11  A    between atoms: CAT_24  and  CBD_25 
REMARK   12  A    between atoms: CBD_25  and  CAB_26 
REMARK   13  A    between atoms: CBD_25  and  CBA_27 
REMARK       I    between atoms: CBA_27  and  N_29 
REMARK   14  A    between atoms: N_29  and  CA_30 
REMARK   15  A    between atoms: CA_30  and  CB_31 
REMARK   16  A    between atoms: CA_30  and  C_32 
REMARK       I    between atoms: C_32  and  NAD_34 
ROOT
ATOM      1  CBG RX4 d          26.092   2.692  46.903  0.00  0.00     0.091 C 
ATOM      2  H8  RX4 d          25.804   2.367  47.914  0.00  0.00     0.089 H 
ENDROOT
BRANCH   1   3
ATOM      3  CAS RX4 d          24.830   2.573  45.967  0.00  0.00    -0.013 C 
ATOM      4  H6  RX4 d          24.783   1.572  45.511  0.00  0.00     0.044 H 
ATOM      5  H7  RX4 d          23.909   2.759  46.538  0.00  0.00     0.044 H 
BRANCH   3   6
ATOM      6  CBC RX4 d          25.016   3.656  44.873  0.00  0.00    -0.056 A 
ATOM      7  CAP RX4 d          24.272   4.850  45.050  0.00  0.00    -0.077 A 
ATOM      8  CAN RX4 d          24.287   5.898  44.140  0.00  0.00    -0.082 A 
ATOM      9  H1  RX4 d          23.662   4.949  45.940  0.00  0.00     0.084 H 
ATOM     10  CAM RX4 d          25.082   5.664  42.995  0.00  0.00    -0.083 A 
ATOM     11  H2  RX4 d          23.736   6.819  44.295  0.00  0.00     0.083 H 
ATOM     12  CAO RX4 d          25.809   4.470  42.774  0.00  0.00    -0.082 A 
ATOM     13  H3  RX4 d          25.137   6.442  42.243  0.00  0.00     0.083 H 
ATOM     14  CAQ RX4 d          25.777   3.438  43.726  0.00  0.00    -0.077 A 
ATOM     15  H4  RX4 d          26.392   4.353  41.868  0.00  0.00     0.083 H 
ATOM     16  H5  RX4 d          26.321   2.513  43.575  0.00  0.00     0.084 H 
ENDBRANCH   3   6
ENDBRANCH   1   3
BRANCH   1  17
ATOM     17  NAW RX4 d          26.582   4.066  46.946  0.00  0.00    -0.345 N 
ATOM     18  CBB RX4 d          26.900   4.573  48.140  0.00  0.00     0.241 C 
ATOM     19  OAI RX4 d          26.849   3.899  49.185  0.00  0.00    -0.271 OA
ATOM     20  H9  RX4 d          26.676   4.608  46.111  0.00  0.00     0.163 HD
BRANCH  18  21
ATOM     21  CBF RX4 d          27.137   6.086  48.279  0.00  0.00     0.098 C 
ATOM     22  H10 RX4 d          28.123   6.269  48.732  0.00  0.00     0.088 H 
BRANCH  21  23
ATOM     23  CAR RX4 d          26.101   6.737  49.140  0.00  0.00     0.043 C 
ATOM     24  H11 RX4 d          26.314   7.811  49.246  0.00  0.00     0.052 H 
ATOM     25  H12 RX4 d          26.081   6.266  50.134  0.00  0.00     0.052 H 
BRANCH  23  26
ATOM     26  CAZ RX4 d          24.749   6.526  48.418  0.00  0.00     0.175 C 
ATOM     27  OAK RX4 d          24.465   7.229  47.407  0.00  0.00    -0.648 OA
ATOM     28  OAG RX4 d          24.047   5.617  48.854  0.00  0.00    -0.648 OA
ENDBRANCH  23  26
ENDBRANCH  21  23
BRANCH  21  29
ATOM     29  NAU RX4 d          27.131   6.594  46.862  0.00  0.00    -0.348 N 
ATOM     30  CAX RX4 d          28.254   6.742  46.135  0.00  0.00     0.214 C 
ATOM     31  OAE RX4 d          29.407   6.519  46.577  0.00  0.00    -0.274 OA
ATOM     32  H13 RX4 d          26.256   6.832  46.443  0.00  0.00     0.163 HD
BRANCH  30  33
ATOM     33  CAA RX4 d          28.049   7.229  44.671  0.00  0.00    -0.003 C 
ATOM     34  H14 RX4 d          27.535   6.447  44.093  0.00  0.00     0.040 H 
ATOM     35  H15 RX4 d          29.026   7.439  44.214  0.00  0.00     0.040 H 
ATOM     36  H16 RX4 d          27.439   8.145  44.671  0.00  0.00     0.040 H 
ENDBRANCH  30  33
ENDBRANCH  21  29
ENDBRANCH  18  21
ENDBRANCH   1  17
BRANCH   1  37
ATOM     37  P1  RX4 d          27.491   1.702  46.331  0.00  0.00     0.130 P 
ATOM     38  O4  RX4 d          28.583   1.655  47.387  0.00  0.00    -0.666 OA
ATOM     39  O3  RX4 d          28.236   2.318  45.168  0.00  0.00    -0.666 OA
BRANCH  37  40
ATOM     40  CAT RX4 d          26.871   0.064  45.981  0.00  0.00     0.020 C 
ATOM     41  H17 RX4 d          25.842   0.008  46.365  0.00  0.00     0.050 H 
ATOM     42  H18 RX4 d          27.504  -0.654  46.524  0.00  0.00     0.050 H 
BRANCH  40  43
ATOM     43  CBD RX4 d          26.840  -0.366  44.511  0.00  0.00     0.029 C 
ATOM     44  H19 RX4 d          25.899  -0.044  44.038  0.00  0.00     0.054 H 
BRANCH  43  45
ATOM     45  CAB RX4 d          28.110   0.152  43.668  0.00  0.00    -0.064 C 
ATOM     46  H20 RX4 d          28.313  -0.549  42.845  0.00  0.00     0.028 H 
ATOM     47  H21 RX4 d          28.988   0.208  44.328  0.00  0.00     0.028 H 
ATOM     48  H22 RX4 d          27.895   1.150  43.257  0.00  0.00     0.028 H 
ENDBRANCH  43  45
BRANCH  43  49
ATOM     49  CBA RX4 d          27.004  -1.935  44.508  0.00  0.00     0.222 C 
ATOM     50  OAH RX4 d          27.029  -2.563  45.578  0.00  0.00    -0.273 OA
ATOM     51  N   RX4 d          27.204  -2.521  43.336  0.00  0.00    -0.348 N 
ATOM     52  H23 RX4 d          27.204  -1.988  42.490  0.00  0.00     0.163 HD
BRANCH  51  53
ATOM     53  CA  RX4 d          27.434  -4.014  43.308  0.00  0.00     0.086 C 
ATOM     54  H24 RX4 d          26.985  -4.499  44.188  0.00  0.00     0.086 H 
BRANCH  53  55
ATOM     55  CB  RX4 d          26.845  -4.605  42.019  0.00  0.00    -0.049 C 
ATOM     56  H25 RX4 d          27.226  -5.627  41.876  0.00  0.00     0.030 H 
ATOM     57  H26 RX4 d          27.139  -3.981  41.162  0.00  0.00     0.030 H 
ATOM     58  H27 RX4 d          25.748  -4.631  42.096  0.00  0.00     0.030 H 
ENDBRANCH  53  55
BRANCH  53  59
ATOM     59  C   RX4 d          28.991  -4.189  43.302  0.00  0.00     0.237 C 
ATOM     60  O   RX4 d          29.509  -5.155  42.646  0.00  0.00    -0.271 OA
ATOM     61  NAD RX4 d          29.717  -3.298  43.953  0.00  0.00    -0.368 N 
ATOM     62  H28 RX4 d          30.714  -3.380  43.968  0.00  0.00     0.159 HD
ATOM     63  H29 RX4 d          29.271  -2.541  44.431  0.00  0.00     0.159 HD
ENDBRANCH  53  59
ENDBRANCH  51  53
ENDBRANCH  43  49
ENDBRANCH  40  43
ENDBRANCH  37  40
ENDBRANCH   1  37
TORSDOF 16
ENDMDL
MODEL 8
REMARK VINA RESULT:      -5.4      1.634      1.747
REMARK  16 active torsions:
REMARK  status: ('A' for Active; 'I' for Inactive)
REMARK    1  A    between atoms: CBC_6  and  CAS_7 
REMARK    2  A    between atoms: CAS_7  and  CBG_8 
REMARK    3  A    between atoms: CBG_8  and  NAW_9 
REMARK    4  A    between atoms: CBG_8  and  P1_21 
REMARK       I    between atoms: NAW_9  and  CBB_10 
REMARK    5  A    between atoms: CBB_10  and  CBF_12 
REMARK    6  A    between atoms: CBF_12  and  CAR_13 
REMARK    7  A    between atoms: CBF_12  and  NAU_17 
REMARK    8  A    between atoms: CAR_13  and  CAZ_14 
REMARK       I    between atoms: NAU_17  and  CAX_18 
REMARK    9  A    between atoms: CAX_18  and  CAA_19 
REMARK   10  A    between atoms: P1_21  and  CAT_24 
REMARK   11  A    between atoms: CAT_24  and  CBD_25 
REMARK   12  A    between atoms: CBD_25  and  CAB_26 
REMARK   13  A    between atoms: CBD_25  and  CBA_27 
REMARK       I    between atoms: CBA_27  and  N_29 
REMARK   14  A    between atoms: N_29  and  CA_30 
REMARK   15  A    between atoms: CA_30  and  CB_31 
REMARK   16  A    between atoms: CA_30  and  C_32 
REMARK       I    between atoms: C_32  and  NAD_34 
ROOT
ATOM      1  CBG RX4 d          26.216   2.094  44.897  0.00  0.00     0.091 C 
ATOM      2  H8  RX4 d          25.363   1.438  45.125  0.00  0.00     0.089 H 
ENDROOT
BRANCH   1   3
ATOM      3  CAS RX4 d          25.959   2.772  43.498  0.00  0.00    -0.013 C 
ATOM      4  H6  RX4 d          26.594   2.311  42.726  0.00  0.00     0.044 H 
ATOM      5  H7  RX4 d          24.902   2.672  43.211  0.00  0.00     0.044 H 
BRANCH   3   6
ATOM      6  CBC RX4 d          26.330   4.265  43.680  0.00  0.00    -0.056 A 
ATOM      7  CAP RX4 d          25.242   5.159  43.846  0.00  0.00    -0.077 A 
ATOM      8  CAN RX4 d          25.397   6.532  43.974  0.00  0.00    -0.082 A 
ATOM      9  H1  RX4 d          24.239   4.750  43.875  0.00  0.00     0.084 H 
ATOM     10  CAM RX4 d          26.736   6.978  43.889  0.00  0.00    -0.083 A 
ATOM     11  H2  RX4 d          24.562   7.207  44.126  0.00  0.00     0.083 H 
ATOM     12  CAO RX4 d          27.840   6.115  43.691  0.00  0.00    -0.082 A 
ATOM     13  H3  RX4 d          26.929   8.040  43.980  0.00  0.00     0.083 H 
ATOM     14  CAQ RX4 d          27.640   4.729  43.579  0.00  0.00    -0.077 A 
ATOM     15  H4  RX4 d          28.842   6.524  43.626  0.00  0.00     0.083 H 
ATOM     16  H5  RX4 d          28.470   4.049  43.421  0.00  0.00     0.084 H 
ENDBRANCH   3   6
ENDBRANCH   1   3
BRANCH   1  17
ATOM     17  NAW RX4 d          26.359   3.101  45.945  0.00  0.00    -0.345 N 
ATOM     18  CBB RX4 d          25.678   2.915  47.080  0.00  0.00     0.241 C 
ATOM     19  OAI RX4 d          24.991   1.899  47.285  0.00  0.00    -0.271 OA
ATOM     20  H9  RX4 d          26.946   3.900  45.818  0.00  0.00     0.163 HD
BRANCH  18  21
ATOM     21  CBF RX4 d          25.560   4.071  48.087  0.00  0.00     0.098 C 
ATOM     22  H10 RX4 d          26.028   3.783  49.040  0.00  0.00     0.088 H 
BRANCH  21  23
ATOM     23  CAR RX4 d          24.135   4.431  48.358  0.00  0.00     0.043 C 
ATOM     24  H11 RX4 d          23.887   4.240  49.413  0.00  0.00     0.052 H 
ATOM     25  H12 RX4 d          23.464   3.847  47.711  0.00  0.00     0.052 H 
BRANCH  23  26
ATOM     26  CAZ RX4 d          24.006   5.940  48.041  0.00  0.00     0.175 C 
ATOM     27  OAK RX4 d          24.301   6.791  48.928  0.00  0.00    -0.648 OA
ATOM     28  OAG RX4 d          23.673   6.219  46.892  0.00  0.00    -0.648 OA
ENDBRANCH  23  26
ENDBRANCH  21  23
BRANCH  21  29
ATOM     29  NAU RX4 d          26.344   5.192  47.458  0.00  0.00    -0.348 N 
ATOM     30  CAX RX4 d          27.428   5.740  48.038  0.00  0.00     0.214 C 
ATOM     31  OAE RX4 d          27.859   5.407  49.168  0.00  0.00    -0.274 OA
ATOM     32  H13 RX4 d          26.046   5.545  46.572  0.00  0.00     0.163 HD
BRANCH  30  33
ATOM     33  CAA RX4 d          28.141   6.852  47.216  0.00  0.00    -0.003 C 
ATOM     34  H14 RX4 d          27.819   6.796  46.165  0.00  0.00     0.040 H 
ATOM     35  H15 RX4 d          29.230   6.710  47.274  0.00  0.00     0.040 H 
ATOM     36  H16 RX4 d          27.878   7.839  47.627  0.00  0.00     0.040 H 
ENDBRANCH  30  33
ENDBRANCH  21  29
ENDBRANCH  18  21
ENDBRANCH   1  17
BRANCH   1  37
ATOM     37  P1  RX4 d          27.743   1.131  44.946  0.00  0.00     0.130 P 
ATOM     38  O4  RX4 d          28.909   1.996  45.394  0.00  0.00    -0.666 OA
ATOM     39  O3  RX4 d          28.221   0.679  43.584  0.00  0.00    -0.666 OA
BRANCH  37  40
ATOM     40  CAT RX4 d          27.479  -0.221  46.083  0.00  0.00     0.020 C 
ATOM     41  H17 RX4 d          27.202   0.211  47.056  0.00  0.00     0.050 H 
ATOM     42  H18 RX4 d          28.431  -0.764  46.181  0.00  0.00     0.050 H 
BRANCH  40  43
ATOM     43  CBD RX4 d          26.400  -1.243  45.707  0.00  0.00     0.029 C 
ATOM     44  H19 RX4 d          26.028  -1.754  46.607  0.00  0.00     0.054 H 
BRANCH  43  45
ATOM     45  CAB RX4 d          25.185  -0.605  44.866  0.00  0.00    -0.064 C 
ATOM     46  H20 RX4 d          24.663  -1.401  44.315  0.00  0.00     0.028 H 
ATOM     47  H21 RX4 d          25.580   0.135  44.155  0.00  0.00     0.028 H 
ATOM     48  H22 RX4 d          24.481  -0.113  45.555  0.00  0.00     0.028 H 
ENDBRANCH  43  45
BRANCH  43  49
ATOM     49  CBA RX4 d          27.076  -2.240  44.689  0.00  0.00     0.222 C 
ATOM     50  OAH RX4 d          26.654  -2.328  43.525  0.00  0.00    -0.273 OA
ATOM     51  N   RX4 d          28.034  -3.028  45.158  0.00  0.00    -0.348 N 
ATOM     52  H23 RX4 d          28.339  -2.954  46.107  0.00  0.00     0.163 HD
BRANCH  51  53
ATOM     53  CA  RX4 d          28.654  -4.041  44.224  0.00  0.00     0.086 C 
ATOM     54  H24 RX4 d          28.348  -3.858  43.183  0.00  0.00     0.086 H 
BRANCH  53  55
ATOM     55  CB  RX4 d          30.184  -3.989  44.344  0.00  0.00    -0.049 C 
ATOM     56  H25 RX4 d          30.534  -4.840  44.947  0.00  0.00     0.030 H 
ATOM     57  H26 RX4 d          30.481  -3.048  44.832  0.00  0.00     0.030 H 
ATOM     58  H27 RX4 d          30.632  -4.041  43.341  0.00  0.00     0.030 H 
ENDBRANCH  53  55
BRANCH  53  59
ATOM     59  C   RX4 d          28.135  -5.432  44.726  0.00  0.00     0.237 C 
ATOM     60  O   RX4 d          26.968  -5.823  44.387  0.00  0.00    -0.271 OA
ATOM     61  NAD RX4 d          28.950  -6.169  45.460  0.00  0.00    -0.368 N 
ATOM     62  H28 RX4 d          28.650  -7.062  45.796  0.00  0.00     0.159 HD
ATOM     63  H29 RX4 d          29.867  -5.835  45.679  0.00  0.00     0.159 HD
ENDBRANCH  53  59
ENDBRANCH  51  53
ENDBRANCH  43  49
ENDBRANCH  40  43
ENDBRANCH  37  40
ENDBRANCH   1  37
TORSDOF 16
ENDMDL
MODEL 9
REMARK VINA RESULT:      -5.3      3.365      7.455
REMARK  16 active torsions:
REMARK  status: ('A' for Active; 'I' for Inactive)
REMARK    1  A    between atoms: CBC_6  and  CAS_7 
REMARK    2  A    between atoms: CAS_7  and  CBG_8 
REMARK    3  A    between atoms: CBG_8  and  NAW_9 
REMARK    4  A    between atoms: CBG_8  and  P1_21 
REMARK       I    between atoms: NAW_9  and  CBB_10 
REMARK    5  A    between atoms: CBB_10  and  CBF_12 
REMARK    6  A    between atoms: CBF_12  and  CAR_13 
REMARK    7  A    between atoms: CBF_12  and  NAU_17 
REMARK    8  A    between atoms: CAR_13  and  CAZ_14 
REMARK       I    between atoms: NAU_17  and  CAX_18 
REMARK    9  A    between atoms: CAX_18  and  CAA_19 
REMARK   10  A    between atoms: P1_21  and  CAT_24 
REMARK   11  A    between atoms: CAT_24  and  CBD_25 
REMARK   12  A    between atoms: CBD_25  and  CAB_26 
REMARK   13  A    between atoms: CBD_25  and  CBA_27 
REMARK       I    between atoms: CBA_27  and  N_29 
REMARK   14  A    between atoms: N_29  and  CA_30 
REMARK   15  A    between atoms: CA_30  and  CB_31 
REMARK   16  A    between atoms: CA_30  and  C_32 
REMARK       I    between atoms: C_32  and  NAD_34 
ROOT
ATOM      1  CBG RX4 d          27.218   2.538  45.119  0.00  0.00     0.091 C 
ATOM      2  H8  RX4 d          28.067   1.865  45.308  0.00  0.00     0.089 H 
ENDROOT
BRANCH   1   3
ATOM      3  CAS RX4 d          25.987   1.667  44.659  0.00  0.00    -0.013 C 
ATOM      4  H6  RX4 d          25.188   1.704  45.413  0.00  0.00     0.044 H 
ATOM      5  H7  RX4 d          25.600   2.028  43.695  0.00  0.00     0.044 H 
BRANCH   3   6
ATOM      6  CBC RX4 d          26.528   0.221  44.516  0.00  0.00    -0.056 A 
ATOM      7  CAP RX4 d          25.796  -0.785  45.196  0.00  0.00    -0.077 A 
ATOM      8  CAN RX4 d          26.171  -2.121  45.210  0.00  0.00    -0.082 A 
ATOM      9  H1  RX4 d          24.899  -0.496  45.731  0.00  0.00     0.084 H 
ATOM     10  CAM RX4 d          27.371  -2.397  44.516  0.00  0.00    -0.083 A 
ATOM     11  H2  RX4 d          25.592  -2.889  45.711  0.00  0.00     0.083 H 
ATOM     12  CAO RX4 d          28.141  -1.411  43.856  0.00  0.00    -0.082 A 
ATOM     13  H3  RX4 d          27.722  -3.422  44.489  0.00  0.00     0.083 H 
ATOM     14  CAQ RX4 d          27.720  -0.071  43.855  0.00  0.00    -0.077 A 
ATOM     15  H4  RX4 d          29.059  -1.690  43.350  0.00  0.00     0.083 H 
ATOM     16  H5  RX4 d          28.297   0.703  43.361  0.00  0.00     0.084 H 
ENDBRANCH   3   6
ENDBRANCH   1   3
BRANCH   1  17
ATOM     17  NAW RX4 d          26.901   3.288  46.331  0.00  0.00    -0.345 N 
ATOM     18  CBB RX4 d          27.325   2.790  47.496  0.00  0.00     0.241 C 
ATOM     19  OAI RX4 d          28.020   1.760  47.566  0.00  0.00    -0.271 OA
ATOM     20  H9  RX4 d          26.386   4.144  46.290  0.00  0.00     0.163 HD
BRANCH  18  21
ATOM     21  CBF RX4 d          26.778   3.371  48.809  0.00  0.00     0.098 C 
ATOM     22  H10 RX4 d          27.555   3.332  49.587  0.00  0.00     0.088 H 
BRANCH  21  23
ATOM     23  CAR RX4 d          25.587   2.612  49.302  0.00  0.00     0.043 C 
ATOM     24  H11 RX4 d          25.206   3.062  50.231  0.00  0.00     0.052 H 
ATOM     25  H12 RX4 d          25.855   1.560  49.487  0.00  0.00     0.052 H 
BRANCH  23  26
ATOM     26  CAZ RX4 d          24.524   2.706  48.183  0.00  0.00     0.175 C 
ATOM     27  OAK RX4 d          24.025   3.830  47.889  0.00  0.00    -0.648 OA
ATOM     28  OAG RX4 d          24.272   1.658  47.594  0.00  0.00    -0.648 OA
ENDBRANCH  23  26
ENDBRANCH  21  23
BRANCH  21  29
ATOM     29  NAU RX4 d          26.467   4.806  48.479  0.00  0.00    -0.348 N 
ATOM     30  CAX RX4 d          27.327   5.813  48.719  0.00  0.00     0.214 C 
ATOM     31  OAE RX4 d          28.440   5.663  49.278  0.00  0.00    -0.274 OA
ATOM     32  H13 RX4 d          25.584   5.021  48.064  0.00  0.00     0.163 HD
BRANCH  30  33
ATOM     33  CAA RX4 d          26.856   7.224  48.261  0.00  0.00    -0.003 C 
ATOM     34  H14 RX4 d          27.503   7.991  48.711  0.00  0.00     0.040 H 
ATOM     35  H15 RX4 d          25.817   7.386  48.583  0.00  0.00     0.040 H 
ATOM     36  H16 RX4 d          26.914   7.293  47.164  0.00  0.00     0.040 H 
ENDBRANCH  30  33
ENDBRANCH  21  29
ENDBRANCH  18  21
ENDBRANCH   1  17
BRANCH   1  37
ATOM     37  P1  RX4 d          27.698   3.781  43.899  0.00  0.00     0.130 P 
ATOM     38  O4  RX4 d          26.587   3.996  42.885  0.00  0.00    -0.666 OA
ATOM     39  O3  RX4 d          28.834   3.345  43.001  0.00  0.00    -0.666 OA
BRANCH  37  40
ATOM     40  CAT RX4 d          28.047   5.289  44.791  0.00  0.00     0.020 C 
ATOM     41  H17 RX4 d          29.120   5.291  45.033  0.00  0.00     0.050 H 
ATOM     42  H18 RX4 d          27.461   5.268  45.722  0.00  0.00     0.050 H 
BRANCH  40  43
ATOM     43  CBD RX4 d          27.732   6.607  44.075  0.00  0.00     0.029 C 
ATOM     44  H19 RX4 d          28.079   7.461  44.676  0.00  0.00     0.054 H 
BRANCH  43  45
ATOM     45  CAB RX4 d          28.330   6.679  42.582  0.00  0.00    -0.064 C 
ATOM     46  H20 RX4 d          27.505   6.634  41.855  0.00  0.00     0.028 H 
ATOM     47  H21 RX4 d          29.010   5.831  42.418  0.00  0.00     0.028 H 
ATOM     48  H22 RX4 d          28.882   7.622  42.453  0.00  0.00     0.028 H 
ENDBRANCH  43  45
BRANCH  43  49
ATOM     49  CBA RX4 d          26.171   6.624  43.854  0.00  0.00     0.222 C 
ATOM     50  OAH RX4 d          25.686   7.183  42.858  0.00  0.00    -0.273 OA
ATOM     51  N   RX4 d          25.417   6.106  44.815  0.00  0.00    -0.348 N 
ATOM     52  H23 RX4 d          25.834   5.683  45.620  0.00  0.00     0.163 HD
BRANCH  51  53
ATOM     53  CA  RX4 d          23.916   6.169  44.664  0.00  0.00     0.086 C 
ATOM     54  H24 RX4 d          23.628   6.864  43.861  0.00  0.00     0.086 H 
BRANCH  53  55
ATOM     55  CB  RX4 d          23.365   4.766  44.373  0.00  0.00    -0.049 C 
ATOM     56  H25 RX4 d          22.314   4.843  44.056  0.00  0.00     0.030 H 
ATOM     57  H26 RX4 d          23.430   4.151  45.283  0.00  0.00     0.030 H 
ATOM     58  H27 RX4 d          23.956   4.299  43.571  0.00  0.00     0.030 H 
ENDBRANCH  53  55
BRANCH  53  59
ATOM     59  C   RX4 d          23.385   6.663  46.053  0.00  0.00     0.237 C 
ATOM     60  O   RX4 d          24.201   7.193  46.881  0.00  0.00    -0.271 OA
ATOM     61  NAD RX4 d          22.093   6.544  46.301  0.00  0.00    -0.368 N 
ATOM     62  H28 RX4 d          21.722   6.850  47.178  0.00  0.00     0.159 HD
ATOM     63  H29 RX4 d          21.486   6.148  45.612  0.00  0.00     0.159 HD
ENDBRANCH  53  59
ENDBRANCH  51  53
ENDBRANCH  43  49
ENDBRANCH  40  43
ENDBRANCH  37  40
ENDBRANCH   1  37
TORSDOF 16
ENDMDL
MODEL 10
REMARK VINA RESULT:      -5.3      2.910      7.760
REMARK  16 active torsions:
REMARK  status: ('A' for Active; 'I' for Inactive)
REMARK    1  A    between atoms: CBC_6  and  CAS_7 
REMARK    2  A    between atoms: CAS_7  and  CBG_8 
REMARK    3  A    between atoms: CBG_8  and  NAW_9 
REMARK    4  A    between atoms: CBG_8  and  P1_21 
REMARK       I    between atoms: NAW_9  and  CBB_10 
REMARK    5  A    between atoms: CBB_10  and  CBF_12 
REMARK    6  A    between atoms: CBF_12  and  CAR_13 
REMARK    7  A    between atoms: CBF_12  and  NAU_17 
REMARK    8  A    between atoms: CAR_13  and  CAZ_14 
REMARK       I    between atoms: NAU_17  and  CAX_18 
REMARK    9  A    between atoms: CAX_18  and  CAA_19 
REMARK   10  A    between atoms: P1_21  and  CAT_24 
REMARK   11  A    between atoms: CAT_24  and  CBD_25 
REMARK   12  A    between atoms: CBD_25  and  CAB_26 
REMARK   13  A    between atoms: CBD_25  and  CBA_27 
REMARK       I    between atoms: CBA_27  and  N_29 
REMARK   14  A    between atoms: N_29  and  CA_30 
REMARK   15  A    between atoms: CA_30  and  CB_31 
REMARK   16  A    between atoms: CA_30  and  C_32 
REMARK       I    between atoms: C_32  and  NAD_34 
ROOT
ATOM      1  CBG RX4 d          26.519   0.507  44.138  0.00  0.00     0.091 C 
ATOM      2  H8  RX4 d          25.937   0.068  43.314  0.00  0.00     0.089 H 
ENDROOT
BRANCH   1   3
ATOM      3  CAS RX4 d          27.974  -0.096  44.091  0.00  0.00    -0.013 C 
ATOM      4  H6  RX4 d          28.538   0.327  43.247  0.00  0.00     0.044 H 
ATOM      5  H7  RX4 d          28.507   0.113  45.030  0.00  0.00     0.044 H 
BRANCH   3   6
ATOM      6  CBC RX4 d          27.789  -1.624  43.904  0.00  0.00    -0.056 A 
ATOM      7  CAP RX4 d          28.804  -2.444  44.458  0.00  0.00    -0.077 A 
ATOM      8  CAN RX4 d          28.816  -3.827  44.338  0.00  0.00    -0.082 A 
ATOM      9  H1  RX4 d          29.612  -1.968  45.002  0.00  0.00     0.084 H 
ATOM     10  CAM RX4 d          27.744  -4.355  43.582  0.00  0.00    -0.083 A 
ATOM     11  H2  RX4 d          29.582  -4.450  44.786  0.00  0.00     0.083 H 
ATOM     12  CAO RX4 d          26.735  -3.561  42.990  0.00  0.00    -0.082 A 
ATOM     13  H3  RX4 d          27.693  -5.429  43.449  0.00  0.00     0.083 H 
ATOM     14  CAQ RX4 d          26.753  -2.165  43.146  0.00  0.00    -0.077 A 
ATOM     15  H4  RX4 d          25.945  -4.031  42.414  0.00  0.00     0.083 H 
ATOM     16  H5  RX4 d          25.993  -1.536  42.695  0.00  0.00     0.084 H 
ENDBRANCH   3   6
ENDBRANCH   1   3
BRANCH   1  17
ATOM     17  NAW RX4 d          26.552   1.960  44.002  0.00  0.00    -0.345 N 
ATOM     18  CBB RX4 d          26.696   2.464  42.773  0.00  0.00     0.241 C 
ATOM     19  OAI RX4 d          26.737   1.744  41.759  0.00  0.00    -0.271 OA
ATOM     20  H9  RX4 d          26.471   2.556  44.800  0.00  0.00     0.163 HD
BRANCH  18  21
ATOM     21  CBF RX4 d          27.028   3.955  42.602  0.00  0.00     0.098 C 
ATOM     22  H10 RX4 d          26.922   4.243  41.546  0.00  0.00     0.088 H 
BRANCH  21  23
ATOM     23  CAR RX4 d          28.426   4.268  43.032  0.00  0.00     0.043 C 
ATOM     24  H11 RX4 d          29.057   4.476  42.154  0.00  0.00     0.052 H 
ATOM     25  H12 RX4 d          28.850   3.424  43.596  0.00  0.00     0.052 H 
BRANCH  23  26
ATOM     26  CAZ RX4 d          28.329   5.521  43.933  0.00  0.00     0.175 C 
ATOM     27  OAK RX4 d          28.313   6.670  43.405  0.00  0.00    -0.648 OA
ATOM     28  OAG RX4 d          28.207   5.307  45.136  0.00  0.00    -0.648 OA
ENDBRANCH  23  26
ENDBRANCH  21  23
BRANCH  21  29
ATOM     29  NAU RX4 d          25.986   4.664  43.425  0.00  0.00    -0.348 N 
ATOM     30  CAX RX4 d          25.158   5.593  42.911  0.00  0.00     0.214 C 
ATOM     31  OAE RX4 d          25.205   5.989  41.722  0.00  0.00    -0.274 OA
ATOM     32  H13 RX4 d          25.905   4.435  44.394  0.00  0.00     0.163 HD
BRANCH  30  33
ATOM     33  CAA RX4 d          24.109   6.180  43.900  0.00  0.00    -0.003 C 
ATOM     34  H14 RX4 d          23.398   6.813  43.348  0.00  0.00     0.040 H 
ATOM     35  H15 RX4 d          24.621   6.784  44.663  0.00  0.00     0.040 H 
ATOM     36  H16 RX4 d          23.565   5.357  44.388  0.00  0.00     0.040 H 
ENDBRANCH  30  33
ENDBRANCH  21  29
ENDBRANCH  18  21
ENDBRANCH   1  17
BRANCH   1  37
ATOM     37  P1  RX4 d          25.674   0.192  45.703  0.00  0.00     0.130 P 
ATOM     38  O4  RX4 d          25.881  -1.246  46.146  0.00  0.00    -0.666 OA
ATOM     39  O3  RX4 d          24.166   0.254  45.604  0.00  0.00    -0.666 OA
BRANCH  37  40
ATOM     40  CAT RX4 d          26.347   1.331  46.905  0.00  0.00     0.020 C 
ATOM     41  H17 RX4 d          26.843   2.142  46.353  0.00  0.00     0.050 H 
ATOM     42  H18 RX4 d          27.092   0.784  47.501  0.00  0.00     0.050 H 
BRANCH  40  43
ATOM     43  CBD RX4 d          25.356   1.975  47.880  0.00  0.00     0.029 C 
ATOM     44  H19 RX4 d          24.489   1.315  48.037  0.00  0.00     0.054 H 
BRANCH  43  45
ATOM     45  CAB RX4 d          26.023   2.386  49.286  0.00  0.00    -0.064 C 
ATOM     46  H20 RX4 d          26.925   1.781  49.455  0.00  0.00     0.028 H 
ATOM     47  H21 RX4 d          25.303   2.207  50.099  0.00  0.00     0.028 H 
ATOM     48  H22 RX4 d          26.295   3.453  49.266  0.00  0.00     0.028 H 
ENDBRANCH  43  45
BRANCH  43  49
ATOM     49  CBA RX4 d          24.947   3.358  47.241  0.00  0.00     0.222 C 
ATOM     50  OAH RX4 d          25.329   3.657  46.099  0.00  0.00    -0.273 OA
ATOM     51  N   RX4 d          24.270   4.203  48.008  0.00  0.00    -0.348 N 
ATOM     52  H23 RX4 d          23.996   3.947  48.935  0.00  0.00     0.163 HD
BRANCH  51  53
ATOM     53  CA  RX4 d          23.924   5.562  47.447  0.00  0.00     0.086 C 
ATOM     54  H24 RX4 d          23.770   5.513  46.359  0.00  0.00     0.086 H 
BRANCH  53  55
ATOM     55  CB  RX4 d          22.663   6.101  48.138  0.00  0.00    -0.049 C 
ATOM     56  H25 RX4 d          22.630   5.739  49.176  0.00  0.00     0.030 H 
ATOM     57  H26 RX4 d          21.771   5.750  47.598  0.00  0.00     0.030 H 
ATOM     58  H27 RX4 d          22.685   7.201  48.134  0.00  0.00     0.030 H 
ENDBRANCH  53  55
BRANCH  53  59
ATOM     59  C   RX4 d          25.147   6.475  47.802  0.00  0.00     0.237 C 
ATOM     60  O   RX4 d          25.272   6.918  48.993  0.00  0.00    -0.271 OA
ATOM     61  NAD RX4 d          26.032   6.723  46.852  0.00  0.00    -0.368 N 
ATOM     62  H28 RX4 d          26.825   7.301  47.046  0.00  0.00     0.159 HD
ATOM     63  H29 RX4 d          25.909   6.332  45.940  0.00  0.00     0.159 HD
ENDBRANCH  53  59
ENDBRANCH  51  53
ENDBRANCH  43  49
ENDBRANCH  40  43
ENDBRANCH  37  40
ENDBRANCH   1  37
TORSDOF 16
ENDMDL
