MODEL 1
REMARK VINA RESULT:      -8.0      0.000      0.000
REMARK  2 active torsions:
REMARK  status: ('A' for Active; 'I' for Inactive)
REMARK    1  A    between atoms: C6_3  and  S_5 
REMARK    2  A    between atoms: S_5  and  N_10 
ROOT
ATOM      1  C4  SKF d          28.779  46.090  16.755  0.00  0.00    -0.075 A 
ATOM      2  C5  SKF d          28.408  45.475  15.566  0.00  0.00    -0.060 A 
ATOM      3  C6  SKF d          28.061  44.119  15.570  0.00  0.00     0.080 A 
ATOM      4  C7  SKF d          28.090  43.396  16.755  0.00  0.00    -0.052 A 
ATOM      5  C8  SKF d          28.462  44.009  17.937  0.00  0.00    -0.025 A 
ATOM      6  C9  SKF d          28.809  45.365  17.940  0.00  0.00    -0.049 A 
ATOM      7  C1  SKF d          28.412  43.230  19.227  0.00  0.00     0.106 C 
ATOM      8  C2  SKF d          28.877  45.374  20.398  0.00  0.00     0.086 C 
ATOM      9  C3  SKF d          29.500  45.937  19.139  0.00  0.00    -0.018 C 
ATOM     10  N1  SKF d          29.102  43.904  20.351  0.00  0.00    -0.071 N 
ATOM     11  H1  SKF d          29.048  47.140  16.758  0.00  0.00     0.084 H 
ATOM     12  H2  SKF d          28.386  46.042  14.643  0.00  0.00     0.085 H 
ATOM     13  H3  SKF d          27.819  42.347  16.754  0.00  0.00     0.086 H 
ATOM     14  H6  SKF d          28.887  42.252  19.062  0.00  0.00     0.083 H 
ATOM     15  H7  SKF d          27.357  43.083  19.504  0.00  0.00     0.083 H 
ATOM     16  H8  SKF d          27.799  45.593  20.421  0.00  0.00     0.076 H 
ATOM     17  H9  SKF d          29.358  45.805  21.288  0.00  0.00     0.076 H 
ATOM     18  H10 SKF d          29.394  47.031  19.135  0.00  0.00     0.042 H 
ATOM     19  H11 SKF d          30.567  45.671  19.108  0.00  0.00     0.042 H 
ATOM     20  H12 SKF d          30.092  43.736  20.263  0.00  0.00     0.277 HD
ATOM     21  H13 SKF d          28.770  43.503  21.214  0.00  0.00     0.277 HD
ENDROOT
BRANCH   3  22
ATOM     22  S   SKF d          27.594  43.322  14.067  0.00  0.00     0.256 S 
ATOM     23  O1  SKF d          26.159  43.159  13.992  0.00  0.00    -0.201 OA
ATOM     24  O2  SKF d          28.220  42.035  13.905  0.00  0.00    -0.201 OA
BRANCH  22  25
ATOM     25  N   SKF d          28.065  44.258  12.889  0.00  0.00    -0.324 N 
ATOM     26  H4  SKF d          27.850  44.018  11.943  0.00  0.00     0.169 HD
ATOM     27  H5  SKF d          28.578  45.092  13.088  0.00  0.00     0.169 HD
ENDBRANCH  22  25
ENDBRANCH   3  22
TORSDOF 2
ENDMDL
MODEL 2
REMARK VINA RESULT:      -7.2      1.043      2.012
REMARK  2 active torsions:
REMARK  status: ('A' for Active; 'I' for Inactive)
REMARK    1  A    between atoms: C6_3  and  S_5 
REMARK    2  A    between atoms: S_5  and  N_10 
ROOT
ATOM      1  C4  SKF d          27.909  42.475  18.037  0.00  0.00    -0.075 A 
ATOM      2  C5  SKF d          27.649  42.277  16.687  0.00  0.00    -0.060 A 
ATOM      3  C6  SKF d          27.900  43.311  15.777  0.00  0.00     0.080 A 
ATOM      4  C7  SKF d          28.407  44.524  16.225  0.00  0.00    -0.052 A 
ATOM      5  C8  SKF d          28.664  44.720  17.568  0.00  0.00    -0.025 A 
ATOM      6  C9  SKF d          28.415  43.690  18.483  0.00  0.00    -0.049 A 
ATOM      7  C1  SKF d          29.288  46.014  18.026  0.00  0.00     0.106 C 
ATOM      8  C2  SKF d          29.520  44.968  20.269  0.00  0.00     0.086 C 
ATOM      9  C3  SKF d          28.398  44.005  19.947  0.00  0.00    -0.018 C 
ATOM     10  N1  SKF d          29.240  46.206  19.494  0.00  0.00    -0.071 N 
ATOM     11  H1  SKF d          27.717  41.678  18.746  0.00  0.00     0.084 H 
ATOM     12  H2  SKF d          27.253  41.330  16.341  0.00  0.00     0.085 H 
ATOM     13  H3  SKF d          28.603  45.321  15.516  0.00  0.00     0.086 H 
ATOM     14  H6  SKF d          28.752  46.847  17.547  0.00  0.00     0.083 H 
ATOM     15  H7  SKF d          30.341  46.025  17.708  0.00  0.00     0.083 H 
ATOM     16  H8  SKF d          30.488  44.540  19.969  0.00  0.00     0.076 H 
ATOM     17  H9  SKF d          29.535  45.188  21.347  0.00  0.00     0.076 H 
ATOM     18  H10 SKF d          28.534  43.078  20.522  0.00  0.00     0.042 H 
ATOM     19  H11 SKF d          27.434  44.463  20.211  0.00  0.00     0.042 H 
ATOM     20  H12 SKF d          28.320  46.536  19.742  0.00  0.00     0.277 HD
ATOM     21  H13 SKF d          29.925  46.901  19.746  0.00  0.00     0.277 HD
ENDROOT
BRANCH   3  22
ATOM     22  S   SKF d          27.567  43.078  14.061  0.00  0.00     0.256 S 
ATOM     23  O1  SKF d          26.159  43.254  13.778  0.00  0.00    -0.201 OA
ATOM     24  O2  SKF d          27.981  41.782  13.587  0.00  0.00    -0.201 OA
BRANCH  22  25
ATOM     25  N   SKF d          28.386  44.178  13.284  0.00  0.00    -0.324 N 
ATOM     26  H4  SKF d          28.238  45.147  13.485  0.00  0.00     0.169 HD
ATOM     27  H5  SKF d          29.054  43.908  12.592  0.00  0.00     0.169 HD
ENDBRANCH  22  25
ENDBRANCH   3  22
TORSDOF 2
ENDMDL
MODEL 3
REMARK VINA RESULT:      -7.2      3.323      5.503
REMARK  2 active torsions:
REMARK  status: ('A' for Active; 'I' for Inactive)
REMARK    1  A    between atoms: C6_3  and  S_5 
REMARK    2  A    between atoms: S_5  and  N_10 
ROOT
ATOM      1  C4  SKF d          27.609  42.397  17.054  0.00  0.00    -0.075 A 
ATOM      2  C5  SKF d          28.075  42.996  18.217  0.00  0.00    -0.060 A 
ATOM      3  C6  SKF d          28.639  44.275  18.156  0.00  0.00     0.080 A 
ATOM      4  C7  SKF d          28.732  44.938  16.940  0.00  0.00    -0.052 A 
ATOM      5  C8  SKF d          28.270  44.340  15.782  0.00  0.00    -0.025 A 
ATOM      6  C9  SKF d          27.703  43.062  15.837  0.00  0.00    -0.049 A 
ATOM      7  C1  SKF d          28.306  45.106  14.484  0.00  0.00     0.106 C 
ATOM      8  C2  SKF d          26.989  43.245  13.491  0.00  0.00     0.086 C 
ATOM      9  C3  SKF d          27.495  42.303  14.562  0.00  0.00    -0.018 C 
ATOM     10  N1  SKF d          28.058  44.261  13.293  0.00  0.00    -0.071 N 
ATOM     11  H1  SKF d          27.170  41.407  17.095  0.00  0.00     0.084 H 
ATOM     12  H2  SKF d          28.001  42.476  19.165  0.00  0.00     0.085 H 
ATOM     13  H3  SKF d          29.168  45.930  16.898  0.00  0.00     0.086 H 
ATOM     14  H6  SKF d          29.297  45.571  14.382  0.00  0.00     0.083 H 
ATOM     15  H7  SKF d          27.535  45.890  14.520  0.00  0.00     0.083 H 
ATOM     16  H8  SKF d          26.058  43.731  13.818  0.00  0.00     0.076 H 
ATOM     17  H9  SKF d          26.807  42.696  12.556  0.00  0.00     0.076 H 
ATOM     18  H10 SKF d          26.756  41.506  14.728  0.00  0.00     0.042 H 
ATOM     19  H11 SKF d          28.448  41.859  14.240  0.00  0.00     0.042 H 
ATOM     20  H12 SKF d          28.914  43.781  13.060  0.00  0.00     0.277 HD
ATOM     21  H13 SKF d          27.790  44.859  12.528  0.00  0.00     0.277 HD
ENDROOT
BRANCH   3  22
ATOM     22  S   SKF d          29.242  45.045  19.624  0.00  0.00     0.256 S 
ATOM     23  O1  SKF d          29.115  46.485  19.543  0.00  0.00    -0.201 OA
ATOM     24  O2  SKF d          30.616  44.713  19.900  0.00  0.00    -0.201 OA
BRANCH  22  25
ATOM     25  N   SKF d          28.353  44.519  20.814  0.00  0.00    -0.324 N 
ATOM     26  H4  SKF d          27.356  44.535  20.738  0.00  0.00     0.169 HD
ATOM     27  H5  SKF d          28.785  44.169  21.644  0.00  0.00     0.169 HD
ENDBRANCH  22  25
ENDBRANCH   3  22
TORSDOF 2
ENDMDL
MODEL 4
REMARK VINA RESULT:      -6.7      1.315      2.238
REMARK  2 active torsions:
REMARK  status: ('A' for Active; 'I' for Inactive)
REMARK    1  A    between atoms: C6_3  and  S_5 
REMARK    2  A    between atoms: S_5  and  N_10 
ROOT
ATOM      1  C4  SKF d          27.836  42.678  17.986  0.00  0.00    -0.075 A 
ATOM      2  C5  SKF d          27.604  42.624  16.618  0.00  0.00    -0.060 A 
ATOM      3  C6  SKF d          27.901  43.737  15.823  0.00  0.00     0.080 A 
ATOM      4  C7  SKF d          28.424  44.886  16.403  0.00  0.00    -0.052 A 
ATOM      5  C8  SKF d          28.652  44.939  17.765  0.00  0.00    -0.025 A 
ATOM      6  C9  SKF d          28.358  43.829  18.564  0.00  0.00    -0.049 A 
ATOM      7  C1  SKF d          29.294  46.164  18.365  0.00  0.00     0.106 C 
ATOM      8  C2  SKF d          29.447  44.891  20.495  0.00  0.00     0.086 C 
ATOM      9  C3  SKF d          28.312  43.994  20.052  0.00  0.00    -0.018 C 
ATOM     10  N1  SKF d          29.214  46.208  19.844  0.00  0.00    -0.071 N 
ATOM     11  H1  SKF d          27.608  41.818  18.606  0.00  0.00     0.084 H 
ATOM     12  H2  SKF d          27.196  41.726  16.168  0.00  0.00     0.085 H 
ATOM     13  H3  SKF d          28.655  45.745  15.783  0.00  0.00     0.086 H 
ATOM     14  H6  SKF d          28.789  47.054  17.962  0.00  0.00     0.083 H 
ATOM     15  H7  SKF d          30.355  46.181  18.073  0.00  0.00     0.083 H 
ATOM     16  H8  SKF d          30.413  44.472  20.174  0.00  0.00     0.076 H 
ATOM     17  H9  SKF d          29.441  45.001  21.590  0.00  0.00     0.076 H 
ATOM     18  H10 SKF d          28.413  43.011  20.533  0.00  0.00     0.042 H 
ATOM     19  H11 SKF d          27.352  44.447  20.340  0.00  0.00     0.042 H 
ATOM     20  H12 SKF d          28.297  46.534  20.103  0.00  0.00     0.277 HD
ATOM     21  H13 SKF d          29.908  46.857  20.180  0.00  0.00     0.277 HD
ENDROOT
BRANCH   3  22
ATOM     22  S   SKF d          27.605  43.688  14.085  0.00  0.00     0.256 S 
ATOM     23  O1  SKF d          28.103  44.884  13.441  0.00  0.00    -0.201 OA
ATOM     24  O2  SKF d          26.210  43.531  13.765  0.00  0.00    -0.201 OA
BRANCH  22  25
ATOM     25  N   SKF d          28.389  42.440  13.525  0.00  0.00    -0.324 N 
ATOM     26  H4  SKF d          28.387  41.579  14.033  0.00  0.00     0.169 HD
ATOM     27  H5  SKF d          28.887  42.510  12.661  0.00  0.00     0.169 HD
ENDBRANCH  22  25
ENDBRANCH   3  22
TORSDOF 2
ENDMDL
MODEL 5
REMARK VINA RESULT:      -6.7      3.508      5.169
REMARK  2 active torsions:
REMARK  status: ('A' for Active; 'I' for Inactive)
REMARK    1  A    between atoms: C6_3  and  S_5 
REMARK    2  A    between atoms: S_5  and  N_10 
ROOT
ATOM      1  C4  SKF d          28.718  46.149  16.200  0.00  0.00    -0.075 A 
ATOM      2  C5  SKF d          29.009  46.132  17.557  0.00  0.00    -0.060 A 
ATOM      3  C6  SKF d          28.839  44.949  18.285  0.00  0.00     0.080 A 
ATOM      4  C7  SKF d          28.382  43.801  17.650  0.00  0.00    -0.052 A 
ATOM      5  C8  SKF d          28.090  43.820  16.299  0.00  0.00    -0.025 A 
ATOM      6  C9  SKF d          28.259  45.000  15.567  0.00  0.00    -0.049 A 
ATOM      7  C1  SKF d          27.671  42.546  15.611  0.00  0.00     0.106 C 
ATOM      8  C2  SKF d          27.848  43.791  13.466  0.00  0.00     0.086 C 
ATOM      9  C3  SKF d          27.656  45.101  14.199  0.00  0.00    -0.018 C 
ATOM     10  N1  SKF d          27.116  42.763  14.254  0.00  0.00    -0.071 N 
ATOM     11  H1  SKF d          28.848  47.063  15.631  0.00  0.00     0.084 H 
ATOM     12  H2  SKF d          29.366  47.029  18.050  0.00  0.00     0.085 H 
ATOM     13  H3  SKF d          28.254  42.886  18.217  0.00  0.00     0.086 H 
ATOM     14  H6  SKF d          26.904  42.054  16.226  0.00  0.00     0.083 H 
ATOM     15  H7  SKF d          28.550  41.890  15.526  0.00  0.00     0.083 H 
ATOM     16  H8  SKF d          28.917  43.538  13.408  0.00  0.00     0.076 H 
ATOM     17  H9  SKF d          27.432  43.859  12.449  0.00  0.00     0.076 H 
ATOM     18  H10 SKF d          28.149  45.909  13.640  0.00  0.00     0.042 H 
ATOM     19  H11 SKF d          26.582  45.318  14.288  0.00  0.00     0.042 H 
ATOM     20  H12 SKF d          26.156  43.056  14.346  0.00  0.00     0.277 HD
ATOM     21  H13 SKF d          27.154  41.890  13.751  0.00  0.00     0.277 HD
ENDROOT
BRANCH   3  22
ATOM     22  S   SKF d          29.198  44.913  20.012  0.00  0.00     0.256 S 
ATOM     23  O1  SKF d          27.986  44.759  20.789  0.00  0.00    -0.201 OA
ATOM     24  O2  SKF d          29.893  46.093  20.458  0.00  0.00    -0.201 OA
BRANCH  22  25
ATOM     25  N   SKF d          30.126  43.663  20.259  0.00  0.00    -0.324 N 
ATOM     26  H4  SKF d          29.810  42.748  20.008  0.00  0.00     0.169 HD
ATOM     27  H5  SKF d          31.030  43.785  20.666  0.00  0.00     0.169 HD
ENDBRANCH  22  25
ENDBRANCH   3  22
TORSDOF 2
ENDMDL
MODEL 6
REMARK VINA RESULT:      -6.5      3.474      5.191
REMARK  2 active torsions:
REMARK  status: ('A' for Active; 'I' for Inactive)
REMARK    1  A    between atoms: C6_3  and  S_5 
REMARK    2  A    between atoms: S_5  and  N_10 
ROOT
ATOM      1  C4  SKF d          28.706  46.185  16.190  0.00  0.00    -0.075 A 
ATOM      2  C5  SKF d          28.978  46.226  17.551  0.00  0.00    -0.060 A 
ATOM      3  C6  SKF d          28.822  45.069  18.322  0.00  0.00     0.080 A 
ATOM      4  C7  SKF d          28.397  43.888  17.727  0.00  0.00    -0.052 A 
ATOM      5  C8  SKF d          28.124  43.848  16.372  0.00  0.00    -0.025 A 
ATOM      6  C9  SKF d          28.280  45.002  15.596  0.00  0.00    -0.049 A 
ATOM      7  C1  SKF d          27.741  42.540  15.729  0.00  0.00     0.106 C 
ATOM      8  C2  SKF d          27.922  43.704  13.539  0.00  0.00     0.086 C 
ATOM      9  C3  SKF d          27.694  45.037  14.218  0.00  0.00    -0.018 C 
ATOM     10  N1  SKF d          27.201  42.692  14.358  0.00  0.00    -0.071 N 
ATOM     11  H1  SKF d          28.826  47.078  15.588  0.00  0.00     0.084 H 
ATOM     12  H2  SKF d          29.310  47.149  18.013  0.00  0.00     0.085 H 
ATOM     13  H3  SKF d          28.280  42.993  18.327  0.00  0.00     0.086 H 
ATOM     14  H6  SKF d          26.976  42.056  16.353  0.00  0.00     0.083 H 
ATOM     15  H7  SKF d          28.634  41.900  15.682  0.00  0.00     0.083 H 
ATOM     16  H8  SKF d          28.997  43.472  13.506  0.00  0.00     0.076 H 
ATOM     17  H9  SKF d          27.519  43.724  12.516  0.00  0.00     0.076 H 
ATOM     18  H10 SKF d          28.178  45.833  13.635  0.00  0.00     0.042 H 
ATOM     19  H11 SKF d          26.614  45.235  14.284  0.00  0.00     0.042 H 
ATOM     20  H12 SKF d          26.234  42.969  14.425  0.00  0.00     0.277 HD
ATOM     21  H13 SKF d          27.263  41.802  13.890  0.00  0.00     0.277 HD
ENDROOT
BRANCH   3  22
ATOM     22  S   SKF d          29.157  45.108  20.053  0.00  0.00     0.256 S 
ATOM     23  O1  SKF d          30.195  44.162  20.401  0.00  0.00    -0.201 OA
ATOM     24  O2  SKF d          27.989  44.834  20.850  0.00  0.00    -0.201 OA
BRANCH  22  25
ATOM     25  N   SKF d          29.659  46.564  20.388  0.00  0.00    -0.324 N 
ATOM     26  H4  SKF d          30.634  46.782  20.336  0.00  0.00     0.169 HD
ATOM     27  H5  SKF d          29.003  47.271  20.652  0.00  0.00     0.169 HD
ENDBRANCH  22  25
ENDBRANCH   3  22
TORSDOF 2
ENDMDL
