MODEL 1
REMARK VINA RESULT:     -10.4      0.000      0.000
REMARK  13 active torsions:
REMARK  status: ('A' for Active; 'I' for Inactive)
REMARK    1  A    between atoms: C_1  and  CA_4 
REMARK       I    between atoms: NAV_21  and  C_1 
REMARK    2  A    between atoms: CAH_9  and  CAL_13 
REMARK    3  A    between atoms: CAL_13  and  CAT_20 
REMARK    4  A    between atoms: CAL_13  and  CBZ_50 
REMARK    5  A    between atoms: CAL_13  and  CCA_51 
REMARK    6  A    between atoms: CAR_18  and  CAS_19 
REMARK    7  A    between atoms: CAZ_24  and  CAR_18 
REMARK    8  A    between atoms: CAX_22  and  NAV_21 
REMARK    9  A    between atoms: CAX_22  and  CAY_23 
REMARK       I    between atoms: CAY_23  and  NBK_35 
REMARK   10  A    between atoms: NBK_35  and  SBM_37 
REMARK   11  A    between atoms: SBM_37  and  CBN_38 
REMARK   12  A    between atoms: CBV_46  and  CBX_48 
REMARK   13  A    between atoms: CBV_46  and  CBY_49 
ROOT
ATOM      1  N   SU3 d         -15.055  -9.799  13.446  0.00  0.00    -0.334 N 
ATOM      2  CA  SU3 d         -13.642  -9.817  13.903  0.00  0.00     0.094 C 
ATOM      3  CB  SU3 d         -12.918 -10.635  12.871  0.00  0.00    -0.011 C 
ATOM      4  CG  SU3 d         -13.975 -11.658  12.480  0.00  0.00     0.067 C 
ATOM      5  CAF SU3 d         -16.012  -9.055  13.980  0.00  0.00     0.244 C 
ATOM      6  OAG SU3 d         -15.709  -8.303  14.916  0.00  0.00    -0.271 OA
ATOM      7  CAH SU3 d         -17.431  -9.048  13.409  0.00  0.00     0.098 C 
ATOM      8  NAI SU3 d         -18.369  -9.309  14.511  0.00  0.00    -0.323 N 
ATOM      9  CAJ SU3 d         -18.887 -10.505  14.701  0.00  0.00     0.361 C 
ATOM     10  OAK SU3 d         -19.695 -10.592  15.784  0.00  0.00    -0.303 OA
ATOM     11  OAM SU3 d         -18.735 -11.455  13.934  0.00  0.00    -0.238 OA
ATOM     12  CAO SU3 d         -13.449 -13.677  13.644  0.00  0.00     0.371 C 
ATOM     13  OAP SU3 d         -12.512 -13.865  12.853  0.00  0.00    -0.238 OA
ATOM     14  NAQ SU3 d         -13.639 -14.492  14.648  0.00  0.00    -0.278 N 
ATOM     15  CBB SU3 d         -12.826 -15.652  15.038  0.00  0.00     0.000 A 
ATOM     16  CBC SU3 d         -13.452 -16.166  16.313  0.00  0.00    -0.008 A 
ATOM     17  CBD SU3 d         -14.584 -15.420  16.631  0.00  0.00    -0.002 A 
ATOM     18  CBE SU3 d         -14.763 -14.313  15.591  0.00  0.00     0.001 A 
ATOM     19  CBF SU3 d         -13.082 -17.229  17.121  0.00  0.00    -0.071 A 
ATOM     20  CBG SU3 d         -13.820 -17.540  18.246  0.00  0.00    -0.082 A 
ATOM     21  CBH SU3 d         -14.941 -16.794  18.561  0.00  0.00    -0.076 A 
ATOM     22  CBI SU3 d         -15.337 -15.719  17.773  0.00  0.00    -0.046 A 
ATOM     23  CBJ SU3 d         -16.631 -15.066  18.265  0.00  0.00    -0.040 C 
ATOM     24  CBS SU3 d         -16.620 -13.610  18.608  0.00  0.00    -0.061 C 
ATOM     25  CBT SU3 d         -18.097 -13.211  18.745  0.00  0.00    -0.064 C 
ATOM     26  CBU SU3 d         -18.683 -12.903  17.365  0.00  0.00    -0.057 C 
ATOM     27  CBV SU3 d         -20.108 -12.366  17.411  0.00  0.00    -0.025 C 
ATOM     28  CBW SU3 d         -20.369 -11.836  16.020  0.00  0.00     0.037 C 
ATOM     29  CD1 SU3 d         -15.234 -10.792  12.368  0.00  0.00     0.023 C 
ATOM     30  OD2 SU3 d         -14.282 -12.621  13.521  0.00  0.00    -0.296 OA
ATOM     31  H1  SU3 d         -13.535 -10.262  14.902  0.00  0.00     0.088 H 
ATOM     32  H2  SU3 d         -12.030 -11.123  13.299  0.00  0.00     0.040 H 
ATOM     33  H3  SU3 d         -12.620 -10.019  12.010  0.00  0.00     0.040 H 
ATOM     34  H4  SU3 d         -13.712 -12.168  11.541  0.00  0.00     0.086 H 
ATOM     35  H5  SU3 d         -17.516  -9.862  12.674  0.00  0.00     0.088 H 
ATOM     36  H6  SU3 d         -18.619  -8.563  15.129  0.00  0.00     0.165 HD
ATOM     37  H19 SU3 d         -11.958 -16.055  14.519  0.00  0.00     0.113 H 
ATOM     38  H20 SU3 d         -15.547 -13.557  15.554  0.00  0.00     0.113 H 
ATOM     39  H21 SU3 d         -12.209 -17.821  16.869  0.00  0.00     0.084 H 
ATOM     40  H22 SU3 d         -13.521 -18.366  18.881  0.00  0.00     0.083 H 
ATOM     41  H23 SU3 d         -15.521 -17.052  19.439  0.00  0.00     0.084 H 
ATOM     42  H24 SU3 d         -16.944 -15.609  19.169  0.00  0.00     0.040 H 
ATOM     43  H25 SU3 d         -17.383 -15.205  17.475  0.00  0.00     0.040 H 
ATOM     44  H32 SU3 d         -16.136 -13.030  17.809  0.00  0.00     0.033 H 
ATOM     45  H33 SU3 d         -16.087 -13.443  19.557  0.00  0.00     0.033 H 
ATOM     46  H34 SU3 d         -18.176 -12.318  19.382  0.00  0.00     0.033 H 
ATOM     47  H35 SU3 d         -18.658 -14.039  19.202  0.00  0.00     0.033 H 
ATOM     48  H36 SU3 d         -18.680 -13.830  16.771  0.00  0.00     0.034 H 
ATOM     49  H37 SU3 d         -18.045 -12.153  16.876  0.00  0.00     0.034 H 
ATOM     50  H38 SU3 d         -20.016 -12.575  15.285  0.00  0.00     0.076 H 
ATOM     51  H39 SU3 d         -21.451 -11.683  15.894  0.00  0.00     0.076 H 
ATOM     52  H52 SU3 d         -15.290 -10.301  11.385  0.00  0.00     0.068 H 
ATOM     53  H53 SU3 d         -16.141 -11.392  12.529  0.00  0.00     0.068 H 
ENDROOT
BRANCH   2  54
ATOM     54  C   SU3 d         -13.176  -8.363  13.909  0.00  0.00     0.241 C 
ATOM     55  O   SU3 d         -13.143  -7.688  12.878  0.00  0.00    -0.271 OA
ATOM     56  NAV SU3 d         -12.764  -7.918  15.096  0.00  0.00    -0.341 N 
ATOM     57  H15 SU3 d         -12.633  -8.582  15.832  0.00  0.00     0.163 HD
BRANCH  56  58
ATOM     58  CAX SU3 d         -12.496  -6.519  15.372  0.00  0.00     0.119 A 
ATOM     59  CAZ SU3 d         -13.794  -5.672  15.369  0.00  0.00    -0.018 A 
ATOM     60  CBA SU3 d         -13.055  -5.961  16.675  0.00  0.00    -0.027 A 
ATOM     61  H16 SU3 d         -14.764  -6.138  15.140  0.00  0.00     0.044 H 
ATOM     62  H17 SU3 d         -12.525  -5.149  17.195  0.00  0.00     0.038 H 
ATOM     63  H18 SU3 d         -13.499  -6.642  17.416  0.00  0.00     0.038 H 
BRANCH  58  64
ATOM     64  CAY SU3 d         -11.166  -5.917  14.948  0.00  0.00     0.259 C 
ATOM     65  NBK SU3 d         -10.535  -6.550  13.986  0.00  0.00    -0.252 N 
ATOM     66  H26 SU3 d         -10.896  -7.386  13.572  0.00  0.00     0.181 HD
ATOM     67  OBL SU3 d         -10.731  -4.953  15.571  0.00  0.00    -0.270 OA
BRANCH  65  68
ATOM     68  SBM SU3 d          -9.156  -5.899  13.521  0.00  0.00     0.237 S 
ATOM     69  OBO SU3 d          -9.396  -4.727  12.631  0.00  0.00    -0.205 OA
ATOM     70  OBP SU3 d          -8.255  -5.597  14.652  0.00  0.00    -0.205 OA
BRANCH  68  71
ATOM     71  CBN SU3 d          -8.368  -7.160  12.522  0.00  0.00     0.063 A 
ATOM     72  CBQ SU3 d          -7.042  -6.720  11.920  0.00  0.00    -0.046 A 
ATOM     73  CBR SU3 d          -7.070  -7.696  13.109  0.00  0.00    -0.046 A 
ATOM     74  H28 SU3 d          -6.688  -5.688  12.063  0.00  0.00     0.035 H 
ATOM     75  H29 SU3 d          -6.745  -7.075  10.922  0.00  0.00     0.035 H 
ATOM     76  H30 SU3 d          -6.794  -8.750  12.963  0.00  0.00     0.035 H 
ATOM     77  H31 SU3 d          -6.737  -7.363  14.102  0.00  0.00     0.035 H 
ATOM     78  H27 SU3 d          -9.086  -7.798  11.986  0.00  0.00     0.066 H 
ENDBRANCH  68  71
ENDBRANCH  65  68
ENDBRANCH  58  64
BRANCH  59  79
ATOM     79  CAR SU3 d         -13.760  -4.224  14.870  0.00  0.00    -0.062 C 
ATOM     80  H7  SU3 d         -13.891  -3.547  15.728  0.00  0.00     0.033 H 
ATOM     81  H8  SU3 d         -12.787  -4.032  14.396  0.00  0.00     0.033 H 
BRANCH  79  82
ATOM     82  CAS SU3 d         -14.874  -3.959  13.849  0.00  0.00    -0.076 C 
ATOM     83  H9  SU3 d         -15.574  -4.809  13.842  0.00  0.00     0.027 H 
ATOM     84  H10 SU3 d         -14.434  -3.838  12.849  0.00  0.00     0.027 H 
ATOM     85  H11 SU3 d         -15.415  -3.042  14.126  0.00  0.00     0.027 H 
ENDBRANCH  79  82
ENDBRANCH  59  79
ENDBRANCH  56  58
ENDBRANCH   2  54
BRANCH   7  86
ATOM     86  CAL SU3 d         -17.757  -7.726  12.688  0.00  0.00    -0.022 C 
BRANCH  86  87
ATOM     87  CAT SU3 d         -18.105  -6.579  13.654  0.00  0.00    -0.067 C 
ATOM     88  H12 SU3 d         -18.928  -6.891  14.313  0.00  0.00     0.028 H 
ATOM     89  H13 SU3 d         -18.414  -5.695  13.077  0.00  0.00     0.028 H 
ATOM     90  H14 SU3 d         -17.223  -6.330  14.262  0.00  0.00     0.028 H 
ENDBRANCH  86  87
BRANCH  86  91
ATOM     91  CBZ SU3 d         -16.572  -7.326  11.822  0.00  0.00    -0.067 C 
ATOM     92  H46 SU3 d         -15.780  -6.904  12.458  0.00  0.00     0.028 H 
ATOM     93  H47 SU3 d         -16.893  -6.572  11.088  0.00  0.00     0.028 H 
ATOM     94  H48 SU3 d         -16.187  -8.212  11.295  0.00  0.00     0.028 H 
ENDBRANCH  86  91
BRANCH  86  95
ATOM     95  CCA SU3 d         -18.967  -7.951  11.776  0.00  0.00    -0.067 C 
ATOM     96  H49 SU3 d         -19.113  -9.030  11.620  0.00  0.00     0.028 H 
ATOM     97  H50 SU3 d         -18.793  -7.460  10.808  0.00  0.00     0.028 H 
ATOM     98  H51 SU3 d         -19.865  -7.524  12.247  0.00  0.00     0.028 H 
ENDBRANCH  86  95
ENDBRANCH   7  86
BRANCH  27  99
ATOM     99  CBX SU3 d         -21.131 -13.475  17.680  0.00  0.00    -0.067 C 
ATOM    100  H40 SU3 d         -21.185 -14.144  16.807  0.00  0.00     0.028 H 
ATOM    101  H41 SU3 d         -22.120 -13.027  17.860  0.00  0.00     0.028 H 
ATOM    102  H42 SU3 d         -20.823 -14.051  18.564  0.00  0.00     0.028 H 
ENDBRANCH  27  99
BRANCH  27 103
ATOM    103  CBY SU3 d         -20.239 -11.256  18.469  0.00  0.00    -0.067 C 
ATOM    104  H43 SU3 d         -19.350 -11.261  19.117  0.00  0.00     0.028 H 
ATOM    105  H44 SU3 d         -21.138 -11.435  19.078  0.00  0.00     0.028 H 
ATOM    106  H45 SU3 d         -20.324 -10.280  17.968  0.00  0.00     0.028 H 
ENDBRANCH  27 103
TORSDOF 13
ENDMDL
MODEL 2
REMARK VINA RESULT:      -7.8      1.755      3.091
REMARK  13 active torsions:
REMARK  status: ('A' for Active; 'I' for Inactive)
REMARK    1  A    between atoms: C_1  and  CA_4 
REMARK       I    between atoms: NAV_21  and  C_1 
REMARK    2  A    between atoms: CAH_9  and  CAL_13 
REMARK    3  A    between atoms: CAL_13  and  CAT_20 
REMARK    4  A    between atoms: CAL_13  and  CBZ_50 
REMARK    5  A    between atoms: CAL_13  and  CCA_51 
REMARK    6  A    between atoms: CAR_18  and  CAS_19 
REMARK    7  A    between atoms: CAZ_24  and  CAR_18 
REMARK    8  A    between atoms: CAX_22  and  NAV_21 
REMARK    9  A    between atoms: CAX_22  and  CAY_23 
REMARK       I    between atoms: CAY_23  and  NBK_35 
REMARK   10  A    between atoms: NBK_35  and  SBM_37 
REMARK   11  A    between atoms: SBM_37  and  CBN_38 
REMARK   12  A    between atoms: CBV_46  and  CBX_48 
REMARK   13  A    between atoms: CBV_46  and  CBY_49 
ROOT
ATOM      1  N   SU3 d         -15.126 -10.194  13.294  0.00  0.00    -0.334 N 
ATOM      2  CA  SU3 d         -13.704 -10.184  13.724  0.00  0.00     0.094 C 
ATOM      3  CB  SU3 d         -13.008 -11.099  12.757  0.00  0.00    -0.011 C 
ATOM      4  CG  SU3 d         -14.080 -12.143  12.480  0.00  0.00     0.067 C 
ATOM      5  CAF SU3 d         -16.067  -9.396  13.776  0.00  0.00     0.244 C 
ATOM      6  OAG SU3 d         -15.740  -8.564  14.634  0.00  0.00    -0.271 OA
ATOM      7  CAH SU3 d         -17.497  -9.427  13.233  0.00  0.00     0.098 C 
ATOM      8  NAI SU3 d         -18.415  -9.579  14.372  0.00  0.00    -0.323 N 
ATOM      9  CAJ SU3 d         -18.938 -10.748  14.680  0.00  0.00     0.361 C 
ATOM     10  OAK SU3 d         -19.725 -10.728  15.782  0.00  0.00    -0.303 OA
ATOM     11  OAM SU3 d         -18.808 -11.765  14.000  0.00  0.00    -0.238 OA
ATOM     12  CAO SU3 d         -13.545 -14.052  13.813  0.00  0.00     0.371 C 
ATOM     13  OAP SU3 d         -12.626 -14.320  13.025  0.00  0.00    -0.238 OA
ATOM     14  NAQ SU3 d         -13.722 -14.771  14.891  0.00  0.00    -0.278 N 
ATOM     15  CBB SU3 d         -12.911 -15.898  15.369  0.00  0.00     0.000 A 
ATOM     16  CBC SU3 d         -13.515 -16.289  16.697  0.00  0.00    -0.008 A 
ATOM     17  CBD SU3 d         -14.635 -15.507  16.968  0.00  0.00    -0.002 A 
ATOM     18  CBE SU3 d         -14.826 -14.497  15.835  0.00  0.00     0.001 A 
ATOM     19  CBF SU3 d         -13.137 -17.278  17.591  0.00  0.00    -0.071 A 
ATOM     20  CBG SU3 d         -13.855 -17.478  18.753  0.00  0.00    -0.082 A 
ATOM     21  CBH SU3 d         -14.964 -16.696  19.021  0.00  0.00    -0.076 A 
ATOM     22  CBI SU3 d         -15.367 -15.693  18.146  0.00  0.00    -0.046 A 
ATOM     23  CBJ SU3 d         -16.647 -14.987  18.600  0.00  0.00    -0.040 C 
ATOM     24  CBS SU3 d         -16.618 -13.506  18.810  0.00  0.00    -0.061 C 
ATOM     25  CBT SU3 d         -18.089 -13.083  18.937  0.00  0.00    -0.064 C 
ATOM     26  CBU SU3 d         -18.700 -12.896  17.546  0.00  0.00    -0.057 C 
ATOM     27  CBV SU3 d         -20.120 -12.343  17.570  0.00  0.00    -0.025 C 
ATOM     28  CBW SU3 d         -20.403 -11.939  16.142  0.00  0.00     0.037 C 
ATOM     29  CD1 SU3 d         -15.334 -11.279  12.314  0.00  0.00     0.023 C 
ATOM     30  OD2 SU3 d         -14.373 -13.004  13.610  0.00  0.00    -0.296 OA
ATOM     31  H1  SU3 d         -13.581 -10.537  14.757  0.00  0.00     0.088 H 
ATOM     32  H2  SU3 d         -12.114 -11.554  13.211  0.00  0.00     0.040 H 
ATOM     33  H3  SU3 d         -12.722 -10.566  11.838  0.00  0.00     0.040 H 
ATOM     34  H4  SU3 d         -13.839 -12.738  11.587  0.00  0.00     0.086 H 
ATOM     35  H5  SU3 d         -17.603 -10.304  12.577  0.00  0.00     0.088 H 
ATOM     36  H6  SU3 d         -18.647  -8.777  14.924  0.00  0.00     0.165 HD
ATOM     37  H19 SU3 d         -12.056 -16.355  14.873  0.00  0.00     0.113 H 
ATOM     38  H20 SU3 d         -15.605 -13.741  15.744  0.00  0.00     0.113 H 
ATOM     39  H21 SU3 d         -12.274 -17.898  17.378  0.00  0.00     0.084 H 
ATOM     40  H22 SU3 d         -13.550 -18.246  19.455  0.00  0.00     0.083 H 
ATOM     41  H23 SU3 d         -15.529 -16.868  19.929  0.00  0.00     0.084 H 
ATOM     42  H24 SU3 d         -16.946 -15.442  19.556  0.00  0.00     0.040 H 
ATOM     43  H25 SU3 d         -17.416 -15.190  17.841  0.00  0.00     0.040 H 
ATOM     44  H32 SU3 d         -16.145 -13.005  17.952  0.00  0.00     0.033 H 
ATOM     45  H33 SU3 d         -16.065 -13.258  19.729  0.00  0.00     0.033 H 
ATOM     46  H34 SU3 d         -18.149 -12.134  19.492  0.00  0.00     0.033 H 
ATOM     47  H35 SU3 d         -18.647 -13.860  19.479  0.00  0.00     0.033 H 
ATOM     48  H36 SU3 d         -18.716 -13.872  17.040  0.00  0.00     0.034 H 
ATOM     49  H37 SU3 d         -18.066 -12.199  16.979  0.00  0.00     0.034 H 
ATOM     50  H38 SU3 d         -20.070 -12.745  15.471  0.00  0.00     0.076 H 
ATOM     51  H39 SU3 d         -21.486 -11.788  16.024  0.00  0.00     0.076 H 
ATOM     52  H52 SU3 d         -15.405 -10.879  11.292  0.00  0.00     0.068 H 
ATOM     53  H53 SU3 d         -16.242 -11.853  12.547  0.00  0.00     0.068 H 
ENDROOT
BRANCH   2  54
ATOM     54  C   SU3 d         -13.228  -8.739  13.589  0.00  0.00     0.241 C 
ATOM     55  O   SU3 d         -12.849  -8.088  14.565  0.00  0.00    -0.271 OA
ATOM     56  NAV SU3 d         -13.312  -8.240  12.357  0.00  0.00    -0.341 N 
ATOM     57  H15 SU3 d         -13.814  -8.761  11.667  0.00  0.00     0.163 HD
BRANCH  56  58
ATOM     58  CAX SU3 d         -12.711  -6.978  11.966  0.00  0.00     0.119 A 
ATOM     59  CAZ SU3 d         -11.165  -7.073  11.898  0.00  0.00    -0.018 A 
ATOM     60  CBA SU3 d         -11.995  -6.950  10.621  0.00  0.00    -0.027 A 
ATOM     61  H16 SU3 d         -10.651  -8.008  12.163  0.00  0.00     0.044 H 
ATOM     62  H17 SU3 d         -11.965  -6.019  10.037  0.00  0.00     0.038 H 
ATOM     63  H18 SU3 d         -12.080  -7.808   9.938  0.00  0.00     0.038 H 
BRANCH  58  64
ATOM     64  CAY SU3 d         -13.400  -5.676  12.340  0.00  0.00     0.259 C 
ATOM     65  NBK SU3 d         -14.025  -5.674  13.496  0.00  0.00    -0.252 N 
ATOM     66  H26 SU3 d         -14.062  -6.484  14.083  0.00  0.00     0.181 HD
ATOM     67  OBL SU3 d         -13.407  -4.758  11.526  0.00  0.00    -0.270 OA
BRANCH  65  68
ATOM     68  SBM SU3 d         -14.720  -4.298  13.901  0.00  0.00     0.237 S 
ATOM     69  OBO SU3 d         -14.199  -3.175  13.070  0.00  0.00    -0.205 OA
ATOM     70  OBP SU3 d         -16.196  -4.382  13.908  0.00  0.00    -0.205 OA
BRANCH  68  71
ATOM     71  CBN SU3 d         -14.187  -3.994  15.584  0.00  0.00     0.063 A 
ATOM     72  CBQ SU3 d         -14.036  -5.259  16.413  0.00  0.00    -0.046 A 
ATOM     73  CBR SU3 d         -12.793  -4.513  15.898  0.00  0.00    -0.046 A 
ATOM     74  H28 SU3 d         -14.309  -6.235  15.986  0.00  0.00     0.035 H 
ATOM     75  H29 SU3 d         -14.279  -5.248  17.486  0.00  0.00     0.035 H 
ATOM     76  H30 SU3 d         -12.146  -3.968  16.600  0.00  0.00     0.035 H 
ATOM     77  H31 SU3 d         -12.177  -4.955  15.101  0.00  0.00     0.035 H 
ATOM     78  H27 SU3 d         -14.578  -3.052  15.997  0.00  0.00     0.066 H 
ENDBRANCH  68  71
ENDBRANCH  65  68
ENDBRANCH  58  64
BRANCH  59  79
ATOM     79  CAR SU3 d         -10.308  -5.861  12.275  0.00  0.00    -0.062 C 
ATOM     80  H7  SU3 d          -9.521  -5.729  11.518  0.00  0.00     0.033 H 
ATOM     81  H8  SU3 d         -10.946  -4.966  12.302  0.00  0.00     0.033 H 
BRANCH  79  82
ATOM     82  CAS SU3 d          -9.653  -6.047  13.650  0.00  0.00    -0.076 C 
ATOM     83  H9  SU3 d          -9.744  -5.116  14.229  0.00  0.00     0.027 H 
ATOM     84  H10 SU3 d          -8.589  -6.295  13.519  0.00  0.00     0.027 H 
ATOM     85  H11 SU3 d         -10.156  -6.864  14.189  0.00  0.00     0.027 H 
ENDBRANCH  79  82
ENDBRANCH  59  79
ENDBRANCH  56  58
ENDBRANCH   2  54
BRANCH   7  86
ATOM     86  CAL SU3 d         -17.827  -8.173  12.402  0.00  0.00    -0.022 C 
BRANCH  86  87
ATOM     87  CAT SU3 d         -16.601  -7.587  11.676  0.00  0.00    -0.067 C 
ATOM     88  H12 SU3 d         -16.252  -8.298  10.914  0.00  0.00     0.028 H 
ATOM     89  H13 SU3 d         -15.797  -7.405  12.404  0.00  0.00     0.028 H 
ATOM     90  H14 SU3 d         -16.880  -6.639  11.193  0.00  0.00     0.028 H 
ENDBRANCH  86  87
BRANCH  86  91
ATOM     91  CBZ SU3 d         -18.907  -8.518  11.388  0.00  0.00    -0.067 C 
ATOM     92  H46 SU3 d         -18.462  -8.577  10.384  0.00  0.00     0.028 H 
ATOM     93  H47 SU3 d         -19.683  -7.738  11.400  0.00  0.00     0.028 H 
ATOM     94  H48 SU3 d         -19.357  -9.488  11.647  0.00  0.00     0.028 H 
ENDBRANCH  86  91
BRANCH  86  95
ATOM     95  CCA SU3 d         -18.373  -7.093  13.341  0.00  0.00    -0.067 C 
ATOM     96  H49 SU3 d         -19.027  -7.558  14.094  0.00  0.00     0.028 H 
ATOM     97  H50 SU3 d         -18.949  -6.358  12.759  0.00  0.00     0.028 H 
ATOM     98  H51 SU3 d         -17.536  -6.588  13.844  0.00  0.00     0.028 H 
ENDBRANCH  86  95
ENDBRANCH   7  86
BRANCH  27  99
ATOM     99  CBX SU3 d         -21.146 -13.414  17.959  0.00  0.00    -0.067 C 
ATOM    100  H40 SU3 d         -20.752 -14.013  18.793  0.00  0.00     0.028 H 
ATOM    101  H41 SU3 d         -21.337 -14.069  17.096  0.00  0.00     0.028 H 
ATOM    102  H42 SU3 d         -22.083 -12.929  18.266  0.00  0.00     0.028 H 
ENDBRANCH  27  99
BRANCH  27 103
ATOM    103  CBY SU3 d         -20.222 -11.141  18.526  0.00  0.00    -0.067 C 
ATOM    104  H43 SU3 d         -19.378 -11.162  19.232  0.00  0.00     0.028 H 
ATOM    105  H44 SU3 d         -21.169 -11.195  19.083  0.00  0.00     0.028 H 
ATOM    106  H45 SU3 d         -20.191 -10.207  17.944  0.00  0.00     0.028 H 
ENDBRANCH  27 103
TORSDOF 13
ENDMDL
