MODEL 1
REMARK VINA RESULT:      -7.7      0.000      0.000
REMARK  6 active torsions:
REMARK  status: ('A' for Active; 'I' for Inactive)
REMARK    1  A    between atoms: CAX_6  and  CAW_7 
REMARK       I    between atoms: CAW_7  and  NAR_9 
REMARK    2  A    between atoms: CAO_16  and  CAN_18 
REMARK    3  A    between atoms: CAN_18  and  CAL_19 
REMARK    4  A    between atoms: CAL_19  and  NAM_20 
REMARK    5  A    between atoms: CAL_19  and  CAK_21 
REMARK    6  A    between atoms: CAK_21  and  CAG_22 
ROOT
ATOM      1  CAW KR2 d          -3.489   4.563  -8.524  0.00  0.00     0.250 C 
ATOM      2  OAA KR2 d          -4.743   3.894  -8.699  0.00  0.00    -0.199 OA
ATOM      3  NAR KR2 d          -2.539   3.743  -7.753  0.00  0.00    -0.181 NA
ATOM      4  CAV KR2 d          -1.446   3.304  -8.637  0.00  0.00     0.001 C 
ATOM      5  CDD KR2 d          -1.080   1.824  -8.512  0.00  0.00    -0.052 C 
ATOM      6  CNN KR2 d          -2.126   0.890  -9.126  0.00  0.00    -0.062 C 
ATOM      7  CAT KR2 d          -3.272   0.556  -8.166  0.00  0.00    -0.049 C 
ATOM      8  CAS KR2 d          -4.102   1.780  -7.763  0.00  0.00     0.013 C 
ATOM      9  NAQ KR2 d          -3.241   2.776  -7.102  0.00  0.00    -0.288 N 
ATOM     10  CAO KR2 d          -2.881   2.617  -5.833  0.00  0.00     0.170 C 
ATOM     11  OAP KR2 d          -1.775   3.188  -5.293  0.00  0.00    -0.176 OA
ATOM     12  H6  KR2 d          -0.552   3.899  -8.398  0.00  0.00     0.058 H 
ATOM     13  H7  KR2 d          -1.748   3.497  -9.676  0.00  0.00     0.058 H 
ATOM     14  H8  KR2 d          -0.975   1.578  -7.445  0.00  0.00     0.034 H 
ATOM     15  H9  KR2 d          -0.120   1.657  -9.023  0.00  0.00     0.034 H 
ATOM     16  H10 KR2 d          -1.629  -0.047  -9.418  0.00  0.00     0.033 H 
ATOM     17  H11 KR2 d          -2.547   1.376 -10.019  0.00  0.00     0.033 H 
ATOM     18  H12 KR2 d          -2.846   0.108  -7.256  0.00  0.00     0.035 H 
ATOM     19  H13 KR2 d          -3.938  -0.170  -8.656  0.00  0.00     0.035 H 
ATOM     20  H14 KR2 d          -4.898   1.469  -7.070  0.00  0.00     0.066 H 
ATOM     21  H15 KR2 d          -4.553   2.227  -8.661  0.00  0.00     0.066 H 
ENDROOT
BRANCH  10  22
ATOM     22  CAN KR2 d          -3.690   1.677  -4.943  0.00  0.00     0.025 C 
ATOM     23  H16 KR2 d          -3.195   0.696  -4.909  0.00  0.00     0.048 H 
ATOM     24  H17 KR2 d          -4.702   1.563  -5.361  0.00  0.00     0.048 H 
BRANCH  22  25
ATOM     25  CAL KR2 d          -3.789   2.242  -3.526  0.00  0.00     0.111 C 
ATOM     26  H18 KR2 d          -2.906   1.929  -2.949  0.00  0.00     0.085 H 
BRANCH  25  27
ATOM     27  NAM KR2 d          -5.039   1.716  -2.962  0.00  0.00    -0.074 N 
ATOM     28  H19 KR2 d          -5.640   2.483  -2.705  0.00  0.00     0.274 HD
ATOM     29  H20 KR2 d          -4.833   1.163  -2.146  0.00  0.00     0.274 HD
ATOM     30  H21 KR2 d          -5.503   1.142  -3.649  0.00  0.00     0.274 HD
ENDBRANCH  25  27
BRANCH  25  31
ATOM     31  CAK KR2 d          -3.994   3.751  -3.394  0.00  0.00    -0.011 C 
ATOM     32  H22 KR2 d          -4.996   3.966  -3.794  0.00  0.00     0.043 H 
ATOM     33  H23 KR2 d          -3.234   4.226  -4.033  0.00  0.00     0.043 H 
BRANCH  31  34
ATOM     34  CAG KR2 d          -3.920   4.380  -2.156  0.00  0.00    -0.015 A 
ATOM     35  CAH KR2 d          -3.017   3.944  -1.199  0.00  0.00    -0.034 A 
ATOM     36  CAC KR2 d          -3.068   4.392   0.119  0.00  0.00     0.155 A 
ATOM     37  H24 KR2 d          -2.248   3.234  -1.484  0.00  0.00     0.089 H 
ATOM     38  FAB KR2 d          -2.067   4.057   0.953  0.00  0.00    -0.203 F 
ATOM     39  CAD KR2 d          -4.071   5.282   0.489  0.00  0.00     0.157 A 
ATOM     40  FAI KR2 d          -4.407   5.470   1.781  0.00  0.00    -0.203 F 
ATOM     41  CAE KR2 d          -4.921   5.787  -0.485  0.00  0.00    -0.005 A 
ATOM     42  CAF KR2 d          -4.847   5.358  -1.806  0.00  0.00     0.125 A 
ATOM     43  H25 KR2 d          -5.660   6.531  -0.211  0.00  0.00     0.093 H 
ATOM     44  FAJ KR2 d          -5.748   5.842  -2.678  0.00  0.00    -0.205 F 
ENDBRANCH  31  34
ENDBRANCH  25  31
ENDBRANCH  22  25
ENDBRANCH  10  22
BRANCH   1  45
ATOM     45  CAX KR2 d          -3.710   5.784  -7.624  0.00  0.00     0.001 A 
ATOM     46  CAY KR2 d          -2.939   6.930  -7.809  0.00  0.00    -0.072 A 
ATOM     47  CBC KR2 d          -2.948   7.939  -6.849  0.00  0.00    -0.082 A 
ATOM     48  H1  KR2 d          -2.332   7.035  -8.700  0.00  0.00     0.084 H 
ATOM     49  CBB KR2 d          -3.730   7.805  -5.704  0.00  0.00    -0.083 A 
ATOM     50  H2  KR2 d          -2.346   8.829  -6.994  0.00  0.00     0.083 H 
ATOM     51  CBA KR2 d          -4.511   6.665  -5.526  0.00  0.00    -0.082 A 
ATOM     52  H3  KR2 d          -3.731   8.586  -4.953  0.00  0.00     0.083 H 
ATOM     53  CAZ KR2 d          -4.505   5.658  -6.488  0.00  0.00    -0.072 A 
ATOM     54  H4  KR2 d          -5.124   6.562  -4.638  0.00  0.00     0.083 H 
ATOM     55  H5  KR2 d          -5.120   4.776  -6.352  0.00  0.00     0.084 H 
ENDBRANCH   1  45
TORSDOF 6
ENDMDL
MODEL 2
REMARK VINA RESULT:      -7.3      1.677      4.261
REMARK  6 active torsions:
REMARK  status: ('A' for Active; 'I' for Inactive)
REMARK    1  A    between atoms: CAX_6  and  CAW_7 
REMARK       I    between atoms: CAW_7  and  NAR_9 
REMARK    2  A    between atoms: CAO_16  and  CAN_18 
REMARK    3  A    between atoms: CAN_18  and  CAL_19 
REMARK    4  A    between atoms: CAL_19  and  NAM_20 
REMARK    5  A    between atoms: CAL_19  and  CAK_21 
REMARK    6  A    between atoms: CAK_21  and  CAG_22 
ROOT
ATOM      1  CAW KR2 d          -1.966   4.002  -8.655  0.00  0.00     0.250 C 
ATOM      2  OAA KR2 d          -1.118   4.737  -7.764  0.00  0.00    -0.199 OA
ATOM      3  NAR KR2 d          -3.285   4.641  -8.802  0.00  0.00    -0.181 NA
ATOM      4  CAV KR2 d          -3.413   5.185 -10.164  0.00  0.00     0.001 C 
ATOM      5  CDD KR2 d          -3.973   6.607 -10.233  0.00  0.00    -0.052 C 
ATOM      6  CNN KR2 d          -2.979   7.671  -9.762  0.00  0.00    -0.062 C 
ATOM      7  CAT KR2 d          -2.991   7.876  -8.243  0.00  0.00    -0.049 C 
ATOM      8  CAS KR2 d          -2.558   6.632  -7.459  0.00  0.00     0.013 C 
ATOM      9  NAQ KR2 d          -3.456   5.506  -7.765  0.00  0.00    -0.288 N 
ATOM     10  CAO KR2 d          -4.656   5.430  -7.200  0.00  0.00     0.170 C 
ATOM     11  OAP KR2 d          -5.692   4.734  -7.734  0.00  0.00    -0.176 OA
ATOM     12  H6  KR2 d          -4.082   4.525 -10.736  0.00  0.00     0.058 H 
ATOM     13  H7  KR2 d          -2.416   5.186 -10.628  0.00  0.00     0.058 H 
ATOM     14  H8  KR2 d          -4.870   6.661  -9.598  0.00  0.00     0.034 H 
ATOM     15  H9  KR2 d          -4.249   6.824 -11.275  0.00  0.00     0.034 H 
ATOM     16  H10 KR2 d          -3.232   8.626 -10.246  0.00  0.00     0.033 H 
ATOM     17  H11 KR2 d          -1.967   7.362 -10.065  0.00  0.00     0.033 H 
ATOM     18  H12 KR2 d          -4.013   8.144  -7.936  0.00  0.00     0.035 H 
ATOM     19  H13 KR2 d          -2.306   8.700  -7.997  0.00  0.00     0.035 H 
ATOM     20  H14 KR2 d          -2.599   6.849  -6.381  0.00  0.00     0.066 H 
ATOM     21  H15 KR2 d          -1.529   6.365  -7.740  0.00  0.00     0.066 H 
ENDROOT
BRANCH  10  22
ATOM     22  CAN KR2 d          -4.931   6.232  -5.930  0.00  0.00     0.025 C 
ATOM     23  H16 KR2 d          -5.976   6.575  -5.938  0.00  0.00     0.048 H 
ATOM     24  H17 KR2 d          -4.259   7.103  -5.898  0.00  0.00     0.048 H 
BRANCH  22  25
ATOM     25  CAL KR2 d          -4.694   5.365  -4.694  0.00  0.00     0.111 C 
ATOM     26  H18 KR2 d          -4.283   4.394  -5.006  0.00  0.00     0.085 H 
BRANCH  25  27
ATOM     27  NAM KR2 d          -5.998   5.232  -4.030  0.00  0.00    -0.074 N 
ATOM     28  H19 KR2 d          -6.128   5.999  -3.389  0.00  0.00     0.274 HD
ATOM     29  H20 KR2 d          -6.030   4.361  -3.524  0.00  0.00     0.274 HD
ATOM     30  H21 KR2 d          -6.730   5.245  -4.723  0.00  0.00     0.274 HD
ENDBRANCH  25  27
BRANCH  25  31
ATOM     31  CAK KR2 d          -3.835   5.965  -3.582  0.00  0.00    -0.011 C 
ATOM     32  H22 KR2 d          -4.185   6.998  -3.439  0.00  0.00     0.043 H 
ATOM     33  H23 KR2 d          -2.801   5.977  -3.958  0.00  0.00     0.043 H 
BRANCH  31  34
ATOM     34  CAG KR2 d          -3.790   5.386  -2.317  0.00  0.00    -0.015 A 
ATOM     35  CAH KR2 d          -4.220   6.092  -1.205  0.00  0.00    -0.034 A 
ATOM     36  CAC KR2 d          -3.980   5.641   0.091  0.00  0.00     0.155 A 
ATOM     37  H24 KR2 d          -4.759   7.022  -1.347  0.00  0.00     0.089 H 
ATOM     38  FAB KR2 d          -4.565   6.285   1.117  0.00  0.00    -0.203 F 
ATOM     39  CAD KR2 d          -3.265   4.460   0.271  0.00  0.00     0.157 A 
ATOM     40  FAI KR2 d          -2.689   4.158   1.451  0.00  0.00    -0.203 F 
ATOM     41  CAE KR2 d          -2.910   3.708  -0.840  0.00  0.00    -0.005 A 
ATOM     42  CAF KR2 d          -3.177   4.149  -2.131  0.00  0.00     0.125 A 
ATOM     43  H25 KR2 d          -2.413   2.756  -0.698  0.00  0.00     0.093 H 
ATOM     44  FAJ KR2 d          -2.743   3.398  -3.157  0.00  0.00    -0.205 F 
ENDBRANCH  31  34
ENDBRANCH  25  31
ENDBRANCH  22  25
ENDBRANCH  10  22
BRANCH   1  45
ATOM     45  CAX KR2 d          -2.299   2.653  -8.008  0.00  0.00     0.001 A 
ATOM     46  CAY KR2 d          -2.763   1.602  -8.796  0.00  0.00    -0.072 A 
ATOM     47  CBC KR2 d          -3.307   0.468  -8.198  0.00  0.00    -0.082 A 
ATOM     48  H1  KR2 d          -2.700   1.667  -9.876  0.00  0.00     0.084 H 
ATOM     49  CBB KR2 d          -3.386   0.383  -6.809  0.00  0.00    -0.083 A 
ATOM     50  H2  KR2 d          -3.670  -0.347  -8.812  0.00  0.00     0.083 H 
ATOM     51  CBA KR2 d          -2.910   1.429  -6.021  0.00  0.00    -0.082 A 
ATOM     52  H3  KR2 d          -3.817  -0.495  -6.343  0.00  0.00     0.083 H 
ATOM     53  CAZ KR2 d          -2.362   2.560  -6.620  0.00  0.00    -0.072 A 
ATOM     54  H4  KR2 d          -2.966   1.361  -4.940  0.00  0.00     0.083 H 
ATOM     55  H5  KR2 d          -1.983   3.369  -6.005  0.00  0.00     0.084 H 
ENDBRANCH   1  45
TORSDOF 6
ENDMDL
MODEL 3
REMARK VINA RESULT:      -7.1      1.935      2.671
REMARK  6 active torsions:
REMARK  status: ('A' for Active; 'I' for Inactive)
REMARK    1  A    between atoms: CAX_6  and  CAW_7 
REMARK       I    between atoms: CAW_7  and  NAR_9 
REMARK    2  A    between atoms: CAO_16  and  CAN_18 
REMARK    3  A    between atoms: CAN_18  and  CAL_19 
REMARK    4  A    between atoms: CAL_19  and  NAM_20 
REMARK    5  A    between atoms: CAL_19  and  CAK_21 
REMARK    6  A    between atoms: CAK_21  and  CAG_22 
ROOT
ATOM      1  CAW KR2 d          -4.477   4.794  -9.314  0.00  0.00     0.250 C 
ATOM      2  OAA KR2 d          -5.528   4.797  -8.341  0.00  0.00    -0.199 OA
ATOM      3  NAR KR2 d          -3.292   4.064  -8.833  0.00  0.00    -0.181 NA
ATOM      4  CAV KR2 d          -3.137   2.823  -9.609  0.00  0.00     0.001 C 
ATOM      5  CDD KR2 d          -2.847   1.577  -8.769  0.00  0.00    -0.052 C 
ATOM      6  CNN KR2 d          -4.063   1.086  -7.979  0.00  0.00    -0.062 C 
ATOM      7  CAT KR2 d          -4.235   1.797  -6.633  0.00  0.00    -0.049 C 
ATOM      8  CAS KR2 d          -4.503   3.300  -6.771  0.00  0.00     0.013 C 
ATOM      9  NAQ KR2 d          -3.385   3.947  -7.480  0.00  0.00    -0.288 N 
ATOM     10  CAO KR2 d          -2.253   4.220  -6.841  0.00  0.00     0.170 C 
ATOM     11  OAP KR2 d          -1.059   4.374  -7.469  0.00  0.00    -0.176 OA
ATOM     12  H6  KR2 d          -2.305   2.961 -10.315  0.00  0.00     0.058 H 
ATOM     13  H7  KR2 d          -4.067   2.650 -10.168  0.00  0.00     0.058 H 
ATOM     14  H8  KR2 d          -2.041   1.815  -8.058  0.00  0.00     0.034 H 
ATOM     15  H9  KR2 d          -2.517   0.772  -9.440  0.00  0.00     0.034 H 
ATOM     16  H10 KR2 d          -3.946   0.007  -7.793  0.00  0.00     0.033 H 
ATOM     17  H11 KR2 d          -4.965   1.258  -8.585  0.00  0.00     0.033 H 
ATOM     18  H12 KR2 d          -3.315   1.659  -6.045  0.00  0.00     0.035 H 
ATOM     19  H13 KR2 d          -5.082   1.339  -6.102  0.00  0.00     0.035 H 
ATOM     20  H14 KR2 d          -4.607   3.745  -5.771  0.00  0.00     0.066 H 
ATOM     21  H15 KR2 d          -5.432   3.454  -7.339  0.00  0.00     0.066 H 
ENDROOT
BRANCH  10  22
ATOM     22  CAN KR2 d          -2.255   4.280  -5.316  0.00  0.00     0.025 C 
ATOM     23  H16 KR2 d          -1.218   4.348  -4.955  0.00  0.00     0.048 H 
ATOM     24  H17 KR2 d          -2.723   3.367  -4.918  0.00  0.00     0.048 H 
BRANCH  22  25
ATOM     25  CAL KR2 d          -3.038   5.500  -4.834  0.00  0.00     0.111 C 
ATOM     26  H18 KR2 d          -3.322   6.114  -5.701  0.00  0.00     0.085 H 
BRANCH  25  27
ATOM     27  NAM KR2 d          -2.152   6.217  -3.908  0.00  0.00    -0.074 N 
ATOM     28  H19 KR2 d          -1.200   5.919  -4.055  0.00  0.00     0.274 HD
ATOM     29  H20 KR2 d          -2.423   6.017  -2.959  0.00  0.00     0.274 HD
ATOM     30  H21 KR2 d          -2.223   7.209  -4.076  0.00  0.00     0.274 HD
ENDBRANCH  25  27
BRANCH  25  31
ATOM     31  CAK KR2 d          -4.261   5.236  -3.956  0.00  0.00    -0.011 C 
ATOM     32  H22 KR2 d          -4.811   4.407  -4.427  0.00  0.00     0.043 H 
ATOM     33  H23 KR2 d          -4.874   6.149  -3.991  0.00  0.00     0.043 H 
BRANCH  31  34
ATOM     34  CAG KR2 d          -4.122   4.904  -2.612  0.00  0.00    -0.015 A 
ATOM     35  CAH KR2 d          -4.375   5.845  -1.626  0.00  0.00    -0.034 A 
ATOM     36  CAC KR2 d          -4.031   5.625  -0.294  0.00  0.00     0.155 A 
ATOM     37  H24 KR2 d          -4.854   6.779  -1.899  0.00  0.00     0.089 H 
ATOM     38  FAB KR2 d          -4.450   6.505   0.633  0.00  0.00    -0.203 F 
ATOM     39  CAD KR2 d          -3.391   4.438   0.049  0.00  0.00     0.157 A 
ATOM     40  FAI KR2 d          -2.714   4.311   1.207  0.00  0.00    -0.203 F 
ATOM     41  CAE KR2 d          -3.217   3.459  -0.919  0.00  0.00    -0.005 A 
ATOM     42  CAF KR2 d          -3.589   3.672  -2.243  0.00  0.00     0.125 A 
ATOM     43  H25 KR2 d          -2.780   2.508  -0.639  0.00  0.00     0.093 H 
ATOM     44  FAJ KR2 d          -3.326   2.703  -3.135  0.00  0.00    -0.205 F 
ENDBRANCH  31  34
ENDBRANCH  25  31
ENDBRANCH  22  25
ENDBRANCH  10  22
BRANCH   1  45
ATOM     45  CAX KR2 d          -3.963   6.229  -9.480  0.00  0.00     0.001 A 
ATOM     46  CAY KR2 d          -3.605   6.695 -10.743  0.00  0.00    -0.072 A 
ATOM     47  CBC KR2 d          -2.903   7.891 -10.872  0.00  0.00    -0.082 A 
ATOM     48  H1  KR2 d          -3.873   6.126 -11.626  0.00  0.00     0.084 H 
ATOM     49  CBB KR2 d          -2.560   8.624  -9.738  0.00  0.00    -0.083 A 
ATOM     50  H2  KR2 d          -2.623   8.251 -11.855  0.00  0.00     0.083 H 
ATOM     51  CBA KR2 d          -2.930   8.164  -8.476  0.00  0.00    -0.082 A 
ATOM     52  H3  KR2 d          -2.007   9.550  -9.837  0.00  0.00     0.083 H 
ATOM     53  CAZ KR2 d          -3.636   6.971  -8.348  0.00  0.00    -0.072 A 
ATOM     54  H4  KR2 d          -2.668   8.736  -7.593  0.00  0.00     0.083 H 
ATOM     55  H5  KR2 d          -3.930   6.619  -7.365  0.00  0.00     0.084 H 
ENDBRANCH   1  45
TORSDOF 6
ENDMDL
MODEL 4
REMARK VINA RESULT:      -6.6      1.635      3.826
REMARK  6 active torsions:
REMARK  status: ('A' for Active; 'I' for Inactive)
REMARK    1  A    between atoms: CAX_6  and  CAW_7 
REMARK       I    between atoms: CAW_7  and  NAR_9 
REMARK    2  A    between atoms: CAO_16  and  CAN_18 
REMARK    3  A    between atoms: CAN_18  and  CAL_19 
REMARK    4  A    between atoms: CAL_19  and  NAM_20 
REMARK    5  A    between atoms: CAL_19  and  CAK_21 
REMARK    6  A    between atoms: CAK_21  and  CAG_22 
ROOT
ATOM      1  CAW KR2 d          -3.203   4.276  -9.237  0.00  0.00     0.250 C 
ATOM      2  OAA KR2 d          -1.801   4.148  -8.971  0.00  0.00    -0.199 OA
ATOM      3  NAR KR2 d          -3.999   4.216  -7.999  0.00  0.00    -0.181 NA
ATOM      4  CAV KR2 d          -4.586   5.539  -7.733  0.00  0.00     0.001 C 
ATOM      5  CDD KR2 d          -4.454   6.017  -6.285  0.00  0.00    -0.052 C 
ATOM      6  CNN KR2 d          -3.028   6.430  -5.914  0.00  0.00    -0.062 C 
ATOM      7  CAT KR2 d          -2.155   5.251  -5.471  0.00  0.00    -0.049 C 
ATOM      8  CAS KR2 d          -1.933   4.212  -6.576  0.00  0.00     0.013 C 
ATOM      9  NAQ KR2 d          -3.226   3.668  -7.023  0.00  0.00    -0.288 N 
ATOM     10  CAO KR2 d          -3.854   2.747  -6.299  0.00  0.00     0.170 C 
ATOM     11  OAP KR2 d          -5.192   2.529  -6.363  0.00  0.00    -0.176 OA
ATOM     12  H6  KR2 d          -5.656   5.497  -7.983  0.00  0.00     0.058 H 
ATOM     13  H7  KR2 d          -4.087   6.273  -8.382  0.00  0.00     0.058 H 
ATOM     14  H8  KR2 d          -4.766   5.199  -5.618  0.00  0.00     0.034 H 
ATOM     15  H9  KR2 d          -5.118   6.881  -6.140  0.00  0.00     0.034 H 
ATOM     16  H10 KR2 d          -3.078   7.158  -5.090  0.00  0.00     0.033 H 
ATOM     17  H11 KR2 d          -2.561   6.901  -6.792  0.00  0.00     0.033 H 
ATOM     18  H12 KR2 d          -2.644   4.756  -4.619  0.00  0.00     0.035 H 
ATOM     19  H13 KR2 d          -1.176   5.641  -5.157  0.00  0.00     0.035 H 
ATOM     20  H14 KR2 d          -1.308   3.395  -6.187  0.00  0.00     0.066 H 
ATOM     21  H15 KR2 d          -1.424   4.689  -7.427  0.00  0.00     0.066 H 
ENDROOT
BRANCH  10  22
ATOM     22  CAN KR2 d          -3.062   1.941  -5.273  0.00  0.00     0.025 C 
ATOM     23  H16 KR2 d          -2.028   2.314  -5.239  0.00  0.00     0.048 H 
ATOM     24  H17 KR2 d          -3.060   0.881  -5.568  0.00  0.00     0.048 H 
BRANCH  22  25
ATOM     25  CAL KR2 d          -3.694   2.079  -3.888  0.00  0.00     0.111 C 
ATOM     26  H18 KR2 d          -2.930   1.884  -3.121  0.00  0.00     0.085 H 
BRANCH  25  27
ATOM     27  NAM KR2 d          -4.793   1.106  -3.841  0.00  0.00    -0.074 N 
ATOM     28  H19 KR2 d          -5.204   1.018  -4.757  0.00  0.00     0.274 HD
ATOM     29  H20 KR2 d          -5.493   1.421  -3.187  0.00  0.00     0.274 HD
ATOM     30  H21 KR2 d          -4.437   0.210  -3.545  0.00  0.00     0.274 HD
ENDBRANCH  25  27
BRANCH  25  31
ATOM     31  CAK KR2 d          -4.419   3.389  -3.585  0.00  0.00    -0.011 C 
ATOM     32  H22 KR2 d          -5.492   3.149  -3.541  0.00  0.00     0.043 H 
ATOM     33  H23 KR2 d          -4.227   4.057  -4.437  0.00  0.00     0.043 H 
BRANCH  31  34
ATOM     34  CAG KR2 d          -4.132   4.120  -2.436  0.00  0.00    -0.015 A 
ATOM     35  CAH KR2 d          -3.216   3.644  -1.511  0.00  0.00    -0.034 A 
ATOM     36  CAC KR2 d          -3.072   4.225  -0.253  0.00  0.00     0.155 A 
ATOM     37  H24 KR2 d          -2.595   2.795  -1.773  0.00  0.00     0.089 H 
ATOM     38  FAB KR2 d          -2.057   3.820   0.531  0.00  0.00    -0.203 F 
ATOM     39  CAD KR2 d          -3.889   5.297   0.091  0.00  0.00     0.157 A 
ATOM     40  FAI KR2 d          -4.066   5.666   1.375  0.00  0.00    -0.203 F 
ATOM     41  CAE KR2 d          -4.744   5.830  -0.864  0.00  0.00    -0.005 A 
ATOM     42  CAF KR2 d          -4.863   5.264  -2.129  0.00  0.00     0.125 A 
ATOM     43  H25 KR2 d          -5.332   6.708  -0.619  0.00  0.00     0.093 H 
ATOM     44  FAJ KR2 d          -5.761   5.795  -2.975  0.00  0.00    -0.205 F 
ENDBRANCH  31  34
ENDBRANCH  25  31
ENDBRANCH  22  25
ENDBRANCH  10  22
BRANCH   1  45
ATOM     45  CAX KR2 d          -3.666   3.040 -10.015  0.00  0.00     0.001 A 
ATOM     46  CAY KR2 d          -4.992   2.939 -10.431  0.00  0.00    -0.072 A 
ATOM     47  CBC KR2 d          -5.485   1.726 -10.905  0.00  0.00    -0.082 A 
ATOM     48  H1  KR2 d          -5.640   3.806 -10.386  0.00  0.00     0.084 H 
ATOM     49  CBB KR2 d          -4.651   0.611 -10.966  0.00  0.00    -0.083 A 
ATOM     50  H2  KR2 d          -6.516   1.649 -11.227  0.00  0.00     0.083 H 
ATOM     51  CBA KR2 d          -3.322   0.715 -10.561  0.00  0.00    -0.082 A 
ATOM     52  H3  KR2 d          -5.036  -0.336 -11.326  0.00  0.00     0.083 H 
ATOM     53  CAZ KR2 d          -2.829   1.930 -10.091  0.00  0.00    -0.072 A 
ATOM     54  H4  KR2 d          -2.671  -0.150 -10.612  0.00  0.00     0.083 H 
ATOM     55  H5  KR2 d          -1.792   2.011  -9.785  0.00  0.00     0.084 H 
ENDBRANCH   1  45
TORSDOF 6
ENDMDL
MODEL 5
REMARK VINA RESULT:      -6.6      1.861      2.112
REMARK  6 active torsions:
REMARK  status: ('A' for Active; 'I' for Inactive)
REMARK    1  A    between atoms: CAX_6  and  CAW_7 
REMARK       I    between atoms: CAW_7  and  NAR_9 
REMARK    2  A    between atoms: CAO_16  and  CAN_18 
REMARK    3  A    between atoms: CAN_18  and  CAL_19 
REMARK    4  A    between atoms: CAL_19  and  NAM_20 
REMARK    5  A    between atoms: CAL_19  and  CAK_21 
REMARK    6  A    between atoms: CAK_21  and  CAG_22 
ROOT
ATOM      1  CAW KR2 d          -4.284   4.931  -9.704  0.00  0.00     0.250 C 
ATOM      2  OAA KR2 d          -5.553   4.348  -9.385  0.00  0.00    -0.199 OA
ATOM      3  NAR KR2 d          -3.174   4.006  -9.421  0.00  0.00    -0.181 NA
ATOM      4  CAV KR2 d          -2.566   3.572 -10.690  0.00  0.00     0.001 C 
ATOM      5  CDD KR2 d          -2.301   2.069 -10.790  0.00  0.00    -0.052 C 
ATOM      6  CNN KR2 d          -3.577   1.242 -10.968  0.00  0.00    -0.062 C 
ATOM      7  CAT KR2 d          -4.265   0.903  -9.641  0.00  0.00    -0.049 C 
ATOM      8  CAS KR2 d          -4.762   2.139  -8.883  0.00  0.00     0.013 C 
ATOM      9  NAQ KR2 d          -3.632   3.035  -8.584  0.00  0.00    -0.288 N 
ATOM     10  CAO KR2 d          -2.807   2.764  -7.578  0.00  0.00     0.170 C 
ATOM     11  OAP KR2 d          -1.535   3.232  -7.508  0.00  0.00    -0.176 OA
ATOM     12  H6  KR2 d          -1.607   4.098 -10.808  0.00  0.00     0.058 H 
ATOM     13  H7  KR2 d          -3.243   3.856 -11.509  0.00  0.00     0.058 H 
ATOM     14  H8  KR2 d          -1.798   1.740  -9.868  0.00  0.00     0.034 H 
ATOM     15  H9  KR2 d          -1.644   1.886 -11.652  0.00  0.00     0.034 H 
ATOM     16  H10 KR2 d          -3.317   0.302 -11.477  0.00  0.00     0.033 H 
ATOM     17  H11 KR2 d          -4.281   1.814 -11.591  0.00  0.00     0.033 H 
ATOM     18  H12 KR2 d          -3.548   0.367  -9.003  0.00  0.00     0.035 H 
ATOM     19  H13 KR2 d          -5.127   0.253  -9.851  0.00  0.00     0.035 H 
ATOM     20  H14 KR2 d          -5.236   1.823  -7.941  0.00  0.00     0.066 H 
ATOM     21  H15 KR2 d          -5.498   2.674  -9.501  0.00  0.00     0.066 H 
ENDROOT
BRANCH  10  22
ATOM     22  CAN KR2 d          -3.264   1.809  -6.479  0.00  0.00     0.025 C 
ATOM     23  H16 KR2 d          -2.432   1.140  -6.212  0.00  0.00     0.048 H 
ATOM     24  H17 KR2 d          -4.112   1.211  -6.847  0.00  0.00     0.048 H 
BRANCH  22  25
ATOM     25  CAL KR2 d          -3.698   2.592  -5.241  0.00  0.00     0.111 C 
ATOM     26  H18 KR2 d          -3.681   1.926  -4.366  0.00  0.00     0.085 H 
BRANCH  25  27
ATOM     27  NAM KR2 d          -5.047   3.099  -5.529  0.00  0.00    -0.074 N 
ATOM     28  H19 KR2 d          -5.732   2.440  -5.196  0.00  0.00     0.274 HD
ATOM     29  H20 KR2 d          -5.155   3.222  -6.524  0.00  0.00     0.274 HD
ATOM     30  H21 KR2 d          -5.179   3.985  -5.066  0.00  0.00     0.274 HD
ENDBRANCH  25  27
BRANCH  25  31
ATOM     31  CAK KR2 d          -2.937   3.881  -4.934  0.00  0.00    -0.011 C 
ATOM     32  H22 KR2 d          -3.248   4.616  -5.691  0.00  0.00     0.043 H 
ATOM     33  H23 KR2 d          -1.869   3.651  -5.063  0.00  0.00     0.043 H 
BRANCH  31  34
ATOM     34  CAG KR2 d          -3.060   4.511  -3.699  0.00  0.00    -0.015 A 
ATOM     35  CAH KR2 d          -3.846   3.955  -2.702  0.00  0.00    -0.034 A 
ATOM     36  CAC KR2 d          -4.175   4.660  -1.547  0.00  0.00     0.155 A 
ATOM     37  H24 KR2 d          -4.215   2.943  -2.824  0.00  0.00     0.089 H 
ATOM     38  FAB KR2 d          -4.801   4.008  -0.550  0.00  0.00    -0.203 F 
ATOM     39  CAD KR2 d          -3.723   5.968  -1.404  0.00  0.00     0.157 A 
ATOM     40  FAI KR2 d          -4.286   6.817  -0.521  0.00  0.00    -0.203 F 
ATOM     41  CAE KR2 d          -2.865   6.495  -2.359  0.00  0.00    -0.005 A 
ATOM     42  CAF KR2 d          -2.515   5.776  -3.497  0.00  0.00     0.125 A 
ATOM     43  H25 KR2 d          -2.458   7.490  -2.216  0.00  0.00     0.093 H 
ATOM     44  FAJ KR2 d          -1.734   6.379  -4.409  0.00  0.00    -0.205 F 
ENDBRANCH  31  34
ENDBRANCH  25  31
ENDBRANCH  22  25
ENDBRANCH  10  22
BRANCH   1  45
ATOM     45  CAX KR2 d          -4.027   6.094  -8.739  0.00  0.00     0.001 A 
ATOM     46  CAY KR2 d          -3.136   7.105  -9.093  0.00  0.00    -0.072 A 
ATOM     47  CBC KR2 d          -2.701   8.019  -8.137  0.00  0.00    -0.082 A 
ATOM     48  H1  KR2 d          -2.781   7.179 -10.114  0.00  0.00     0.084 H 
ATOM     49  CBB KR2 d          -3.160   7.925  -6.824  0.00  0.00    -0.083 A 
ATOM     50  H2  KR2 d          -2.006   8.803  -8.413  0.00  0.00     0.083 H 
ATOM     51  CBA KR2 d          -4.061   6.923  -6.473  0.00  0.00    -0.082 A 
ATOM     52  H3  KR2 d          -2.815   8.631  -6.078  0.00  0.00     0.083 H 
ATOM     53  CAZ KR2 d          -4.499   6.012  -7.431  0.00  0.00    -0.072 A 
ATOM     54  H4  KR2 d          -4.422   6.852  -5.454  0.00  0.00     0.083 H 
ATOM     55  H5  KR2 d          -5.207   5.237  -7.158  0.00  0.00     0.084 H 
ENDBRANCH   1  45
TORSDOF 6
ENDMDL
MODEL 6
REMARK VINA RESULT:      -6.3      3.338      7.131
REMARK  6 active torsions:
REMARK  status: ('A' for Active; 'I' for Inactive)
REMARK    1  A    between atoms: CAX_6  and  CAW_7 
REMARK       I    between atoms: CAW_7  and  NAR_9 
REMARK    2  A    between atoms: CAO_16  and  CAN_18 
REMARK    3  A    between atoms: CAN_18  and  CAL_19 
REMARK    4  A    between atoms: CAL_19  and  NAM_20 
REMARK    5  A    between atoms: CAL_19  and  CAK_21 
REMARK    6  A    between atoms: CAK_21  and  CAG_22 
ROOT
ATOM      1  CAW KR2 d          -3.703   3.288  -1.534  0.00  0.00     0.250 C 
ATOM      2  OAA KR2 d          -2.420   3.618  -2.080  0.00  0.00    -0.199 OA
ATOM      3  NAR KR2 d          -4.744   3.250  -2.575  0.00  0.00    -0.181 NA
ATOM      4  CAV KR2 d          -5.187   1.859  -2.770  0.00  0.00     0.001 C 
ATOM      5  CDD KR2 d          -5.300   1.424  -4.232  0.00  0.00    -0.052 C 
ATOM      6  CNN KR2 d          -3.942   1.223  -4.908  0.00  0.00    -0.062 C 
ATOM      7  CAT KR2 d          -3.352   2.519  -5.473  0.00  0.00    -0.049 C 
ATOM      8  CAS KR2 d          -3.045   3.566  -4.395  0.00  0.00     0.013 C 
ATOM      9  NAQ KR2 d          -4.277   3.915  -3.668  0.00  0.00    -0.288 N 
ATOM     10  CAO KR2 d          -5.163   4.746  -4.205  0.00  0.00     0.170 C 
ATOM     11  OAP KR2 d          -6.475   4.769  -3.856  0.00  0.00    -0.176 OA
ATOM     12  H6  KR2 d          -6.176   1.746  -2.301  0.00  0.00     0.058 H 
ATOM     13  H7  KR2 d          -4.466   1.197  -2.270  0.00  0.00     0.058 H 
ATOM     14  H8  KR2 d          -5.855   2.197  -4.785  0.00  0.00     0.034 H 
ATOM     15  H9  KR2 d          -5.854   0.475  -4.272  0.00  0.00     0.034 H 
ATOM     16  H10 KR2 d          -4.065   0.506  -5.734  0.00  0.00     0.033 H 
ATOM     17  H11 KR2 d          -3.239   0.812  -4.167  0.00  0.00     0.033 H 
ATOM     18  H12 KR2 d          -4.073   2.951  -6.183  0.00  0.00     0.035 H 
ATOM     19  H13 KR2 d          -2.417   2.277  -6.000  0.00  0.00     0.035 H 
ATOM     20  H14 KR2 d          -2.634   4.469  -4.871  0.00  0.00     0.066 H 
ATOM     21  H15 KR2 d          -2.308   3.156  -3.689  0.00  0.00     0.066 H 
ENDROOT
BRANCH  10  22
ATOM     22  CAN KR2 d          -4.724   5.669  -5.339  0.00  0.00     0.025 C 
ATOM     23  H16 KR2 d          -5.372   6.557  -5.354  0.00  0.00     0.048 H 
ATOM     24  H17 KR2 d          -4.812   5.134  -6.297  0.00  0.00     0.048 H 
BRANCH  22  25
ATOM     25  CAL KR2 d          -3.274   6.105  -5.136  0.00  0.00     0.111 C 
ATOM     26  H18 KR2 d          -2.683   5.247  -4.783  0.00  0.00     0.085 H 
BRANCH  25  27
ATOM     27  NAM KR2 d          -3.307   7.200  -4.157  0.00  0.00    -0.074 N 
ATOM     28  H19 KR2 d          -2.612   7.889  -4.399  0.00  0.00     0.274 HD
ATOM     29  H20 KR2 d          -3.113   6.835  -3.238  0.00  0.00     0.274 HD
ATOM     30  H21 KR2 d          -4.221   7.627  -4.163  0.00  0.00     0.274 HD
ENDBRANCH  25  27
BRANCH  25  31
ATOM     31  CAK KR2 d          -2.577   6.767  -6.324  0.00  0.00    -0.011 C 
ATOM     32  H22 KR2 d          -1.501   6.770  -6.094  0.00  0.00     0.043 H 
ATOM     33  H23 KR2 d          -2.946   7.803  -6.365  0.00  0.00     0.043 H 
BRANCH  31  34
ATOM     34  CAG KR2 d          -2.704   6.251  -7.610  0.00  0.00    -0.015 A 
ATOM     35  CAH KR2 d          -3.526   6.871  -8.538  0.00  0.00    -0.034 A 
ATOM     36  CAC KR2 d          -3.856   6.266  -9.748  0.00  0.00     0.155 A 
ATOM     37  H24 KR2 d          -3.924   7.855  -8.316  0.00  0.00     0.089 H 
ATOM     38  FAB KR2 d          -4.522   6.986 -10.669  0.00  0.00    -0.203 F 
ATOM     39  CAD KR2 d          -3.366   4.992 -10.020  0.00  0.00     0.157 A 
ATOM     40  FAI KR2 d          -3.920   4.211 -10.969  0.00  0.00    -0.203 F 
ATOM     41  CAE KR2 d          -2.474   4.407  -9.133  0.00  0.00    -0.005 A 
ATOM     42  CAF KR2 d          -2.124   5.028  -7.938  0.00  0.00     0.125 A 
ATOM     43  H25 KR2 d          -2.039   3.444  -9.375  0.00  0.00     0.093 H 
ATOM     44  FAJ KR2 d          -1.307   4.370  -7.100  0.00  0.00    -0.205 F 
ENDBRANCH  31  34
ENDBRANCH  25  31
ENDBRANCH  22  25
ENDBRANCH  10  22
BRANCH   1  45
ATOM     45  CAX KR2 d          -4.156   4.437  -0.625  0.00  0.00     0.001 A 
ATOM     46  CAY KR2 d          -3.476   4.690   0.563  0.00  0.00    -0.072 A 
ATOM     47  CBC KR2 d          -4.024   5.550   1.512  0.00  0.00    -0.082 A 
ATOM     48  H1  KR2 d          -2.519   4.217   0.750  0.00  0.00     0.084 H 
ATOM     49  CBB KR2 d          -5.254   6.160   1.271  0.00  0.00    -0.083 A 
ATOM     50  H2  KR2 d          -3.495   5.745   2.437  0.00  0.00     0.083 H 
ATOM     51  CBA KR2 d          -5.928   5.916   0.077  0.00  0.00    -0.082 A 
ATOM     52  H3  KR2 d          -5.685   6.822   2.012  0.00  0.00     0.083 H 
ATOM     53  CAZ KR2 d          -5.377   5.060  -0.873  0.00  0.00    -0.072 A 
ATOM     54  H4  KR2 d          -6.882   6.394  -0.114  0.00  0.00     0.083 H 
ATOM     55  H5  KR2 d          -5.899   4.878  -1.806  0.00  0.00     0.084 H 
ENDBRANCH   1  45
TORSDOF 6
ENDMDL
MODEL 7
REMARK VINA RESULT:      -6.0      1.683      3.869
REMARK  6 active torsions:
REMARK  status: ('A' for Active; 'I' for Inactive)
REMARK    1  A    between atoms: CAX_6  and  CAW_7 
REMARK       I    between atoms: CAW_7  and  NAR_9 
REMARK    2  A    between atoms: CAO_16  and  CAN_18 
REMARK    3  A    between atoms: CAN_18  and  CAL_19 
REMARK    4  A    between atoms: CAL_19  and  NAM_20 
REMARK    5  A    between atoms: CAL_19  and  CAK_21 
REMARK    6  A    between atoms: CAK_21  and  CAG_22 
ROOT
ATOM      1  CAW KR2 d          -5.001   1.827  -8.479  0.00  0.00     0.250 C 
ATOM      2  OAA KR2 d          -6.004   2.801  -8.793  0.00  0.00    -0.199 OA
ATOM      3  NAR KR2 d          -4.410   2.065  -7.151  0.00  0.00    -0.181 NA
ATOM      4  CAV KR2 d          -4.822   0.989  -6.235  0.00  0.00     0.001 C 
ATOM      5  CDD KR2 d          -5.296   1.467  -4.861  0.00  0.00    -0.052 C 
ATOM      6  CNN KR2 d          -6.671   2.140  -4.898  0.00  0.00    -0.062 C 
ATOM      7  CAT KR2 d          -6.603   3.629  -5.252  0.00  0.00    -0.049 C 
ATOM      8  CAS KR2 d          -6.056   3.895  -6.659  0.00  0.00     0.013 C 
ATOM      9  NAQ KR2 d          -4.695   3.344  -6.781  0.00  0.00    -0.288 N 
ATOM     10  CAO KR2 d          -3.657   3.995  -6.268  0.00  0.00     0.170 C 
ATOM     11  OAP KR2 d          -2.490   3.391  -5.926  0.00  0.00    -0.176 OA
ATOM     12  H6  KR2 d          -3.964   0.317  -6.086  0.00  0.00     0.058 H 
ATOM     13  H7  KR2 d          -5.645   0.433  -6.707  0.00  0.00     0.058 H 
ATOM     14  H8  KR2 d          -4.564   2.190  -4.470  0.00  0.00     0.034 H 
ATOM     15  H9  KR2 d          -5.350   0.599  -4.188  0.00  0.00     0.034 H 
ATOM     16  H10 KR2 d          -7.138   2.036  -3.907  0.00  0.00     0.033 H 
ATOM     17  H11 KR2 d          -7.290   1.629  -5.651  0.00  0.00     0.033 H 
ATOM     18  H12 KR2 d          -5.951   4.132  -4.523  0.00  0.00     0.035 H 
ATOM     19  H13 KR2 d          -7.617   4.050  -5.187  0.00  0.00     0.035 H 
ATOM     20  H14 KR2 d          -6.028   4.979  -6.841  0.00  0.00     0.066 H 
ATOM     21  H15 KR2 d          -6.711   3.415  -7.401  0.00  0.00     0.066 H 
ENDROOT
BRANCH  10  22
ATOM     22  CAN KR2 d          -3.794   5.482  -5.955  0.00  0.00     0.025 C 
ATOM     23  H16 KR2 d          -4.850   5.776  -6.045  0.00  0.00     0.048 H 
ATOM     24  H17 KR2 d          -3.190   6.060  -6.670  0.00  0.00     0.048 H 
BRANCH  22  25
ATOM     25  CAL KR2 d          -3.310   5.773  -4.535  0.00  0.00     0.111 C 
ATOM     26  H18 KR2 d          -3.778   6.701  -4.175  0.00  0.00     0.085 H 
BRANCH  25  27
ATOM     27  NAM KR2 d          -1.847   5.881  -4.615  0.00  0.00    -0.074 N 
ATOM     28  H19 KR2 d          -1.445   5.679  -3.713  0.00  0.00     0.274 HD
ATOM     29  H20 KR2 d          -1.593   6.815  -4.894  0.00  0.00     0.274 HD
ATOM     30  H21 KR2 d          -1.498   5.222  -5.293  0.00  0.00     0.274 HD
ENDBRANCH  25  27
BRANCH  25  31
ATOM     31  CAK KR2 d          -3.487   4.661  -3.501  0.00  0.00    -0.011 C 
ATOM     32  H22 KR2 d          -2.557   4.074  -3.511  0.00  0.00     0.043 H 
ATOM     33  H23 KR2 d          -4.320   4.036  -3.855  0.00  0.00     0.043 H 
BRANCH  31  34
ATOM     34  CAG KR2 d          -3.752   4.957  -2.168  0.00  0.00    -0.015 A 
ATOM     35  CAH KR2 d          -2.876   4.556  -1.171  0.00  0.00    -0.034 A 
ATOM     36  CAC KR2 d          -3.214   4.629   0.178  0.00  0.00     0.155 A 
ATOM     37  H24 KR2 d          -1.900   4.175  -1.449  0.00  0.00     0.089 H 
ATOM     38  FAB KR2 d          -2.263   4.379   1.096  0.00  0.00    -0.203 F 
ATOM     39  CAD KR2 d          -4.478   5.092   0.532  0.00  0.00     0.157 A 
ATOM     40  FAI KR2 d          -5.002   4.853   1.750  0.00  0.00    -0.203 F 
ATOM     41  CAE KR2 d          -5.323   5.575  -0.458  0.00  0.00    -0.005 A 
ATOM     42  CAF KR2 d          -4.969   5.527  -1.802  0.00  0.00     0.125 A 
ATOM     43  H25 KR2 d          -6.280   5.999  -0.177  0.00  0.00     0.093 H 
ATOM     44  FAJ KR2 d          -5.867   5.952  -2.706  0.00  0.00    -0.205 F 
ENDBRANCH  31  34
ENDBRANCH  25  31
ENDBRANCH  22  25
ENDBRANCH  10  22
BRANCH   1  45
ATOM     45  CAX KR2 d          -3.817   2.023  -9.432  0.00  0.00     0.001 A 
ATOM     46  CAY KR2 d          -2.787   1.085  -9.460  0.00  0.00    -0.072 A 
ATOM     47  CBC KR2 d          -1.596   1.375 -10.122  0.00  0.00    -0.082 A 
ATOM     48  H1  KR2 d          -2.913   0.129  -8.966  0.00  0.00     0.084 H 
ATOM     49  CBB KR2 d          -1.435   2.604 -10.759  0.00  0.00    -0.083 A 
ATOM     50  H2  KR2 d          -0.796   0.645 -10.141  0.00  0.00     0.083 H 
ATOM     51  CBA KR2 d          -2.469   3.536 -10.742  0.00  0.00    -0.082 A 
ATOM     52  H3  KR2 d          -0.506   2.833 -11.267  0.00  0.00     0.083 H 
ATOM     53  CAZ KR2 d          -3.661   3.244 -10.084  0.00  0.00    -0.072 A 
ATOM     54  H4  KR2 d          -2.347   4.491 -11.241  0.00  0.00     0.083 H 
ATOM     55  H5  KR2 d          -4.469   3.968 -10.079  0.00  0.00     0.084 H 
ENDBRANCH   1  45
TORSDOF 6
ENDMDL
MODEL 8
REMARK VINA RESULT:      -5.4      2.256      4.564
REMARK  6 active torsions:
REMARK  status: ('A' for Active; 'I' for Inactive)
REMARK    1  A    between atoms: CAX_6  and  CAW_7 
REMARK       I    between atoms: CAW_7  and  NAR_9 
REMARK    2  A    between atoms: CAO_16  and  CAN_18 
REMARK    3  A    between atoms: CAN_18  and  CAL_19 
REMARK    4  A    between atoms: CAL_19  and  NAM_20 
REMARK    5  A    between atoms: CAL_19  and  CAK_21 
REMARK    6  A    between atoms: CAK_21  and  CAG_22 
ROOT
ATOM      1  CAW KR2 d          -3.239   4.058 -10.281  0.00  0.00     0.250 C 
ATOM      2  OAA KR2 d          -1.872   3.780  -9.954  0.00  0.00    -0.199 OA
ATOM      3  NAR KR2 d          -3.853   4.979  -9.310  0.00  0.00    -0.181 NA
ATOM      4  CAV KR2 d          -4.109   6.274  -9.962  0.00  0.00     0.001 C 
ATOM      5  CDD KR2 d          -3.683   7.496  -9.144  0.00  0.00    -0.052 C 
ATOM      6  CNN KR2 d          -2.165   7.679  -9.080  0.00  0.00    -0.062 C 
ATOM      7  CAT KR2 d          -1.506   6.862  -7.965  0.00  0.00    -0.049 C 
ATOM      8  CAS KR2 d          -1.659   5.348  -8.151  0.00  0.00     0.013 C 
ATOM      9  NAQ KR2 d          -3.086   4.987  -8.186  0.00  0.00    -0.288 N 
ATOM     10  CAO KR2 d          -3.788   4.907  -7.061  0.00  0.00     0.170 C 
ATOM     11  OAP KR2 d          -5.138   5.038  -7.010  0.00  0.00    -0.176 OA
ATOM     12  H6  KR2 d          -5.188   6.353 -10.159  0.00  0.00     0.058 H 
ATOM     13  H7  KR2 d          -3.560   6.292 -10.915  0.00  0.00     0.058 H 
ATOM     14  H8  KR2 d          -4.065   7.380  -8.119  0.00  0.00     0.034 H 
ATOM     15  H9  KR2 d          -4.125   8.393  -9.601  0.00  0.00     0.034 H 
ATOM     16  H10 KR2 d          -1.948   8.745  -8.908  0.00  0.00     0.033 H 
ATOM     17  H11 KR2 d          -1.734   7.368 -10.044  0.00  0.00     0.033 H 
ATOM     18  H12 KR2 d          -1.966   7.144  -7.006  0.00  0.00     0.035 H 
ATOM     19  H13 KR2 d          -0.433   7.103  -7.941  0.00  0.00     0.035 H 
ATOM     20  H14 KR2 d          -1.171   4.827  -7.313  0.00  0.00     0.066 H 
ATOM     21  H15 KR2 d          -1.183   5.047  -9.096  0.00  0.00     0.066 H 
ENDROOT
BRANCH  10  22
ATOM     22  CAN KR2 d          -3.049   4.749  -5.734  0.00  0.00     0.025 C 
ATOM     23  H16 KR2 d          -1.982   4.571  -5.932  0.00  0.00     0.048 H 
ATOM     24  H17 KR2 d          -3.469   3.892  -5.185  0.00  0.00     0.048 H 
BRANCH  22  25
ATOM     25  CAL KR2 d          -3.201   6.013  -4.889  0.00  0.00     0.111 C 
ATOM     26  H18 KR2 d          -3.555   6.836  -5.528  0.00  0.00     0.085 H 
BRANCH  25  27
ATOM     27  NAM KR2 d          -1.876   6.284  -4.315  0.00  0.00    -0.074 N 
ATOM     28  H19 KR2 d          -1.497   7.123  -4.725  0.00  0.00     0.274 HD
ATOM     29  H20 KR2 d          -1.261   5.509  -4.507  0.00  0.00     0.274 HD
ATOM     30  H21 KR2 d          -1.960   6.405  -3.317  0.00  0.00     0.274 HD
ENDBRANCH  25  27
BRANCH  25  31
ATOM     31  CAK KR2 d          -4.071   5.910  -3.637  0.00  0.00    -0.011 C 
ATOM     32  H22 KR2 d          -5.115   5.977  -3.975  0.00  0.00     0.043 H 
ATOM     33  H23 KR2 d          -3.829   6.785  -3.016  0.00  0.00     0.043 H 
BRANCH  31  34
ATOM     34  CAG KR2 d          -3.997   4.800  -2.801  0.00  0.00    -0.015 A 
ATOM     35  CAH KR2 d          -3.196   4.823  -1.670  0.00  0.00    -0.034 A 
ATOM     36  CAC KR2 d          -2.918   3.669  -0.941  0.00  0.00     0.155 A 
ATOM     37  H24 KR2 d          -2.773   5.766  -1.343  0.00  0.00     0.089 H 
ATOM     38  FAB KR2 d          -2.272   3.788   0.232  0.00  0.00    -0.203 F 
ATOM     39  CAD KR2 d          -3.440   2.455  -1.378  0.00  0.00     0.157 A 
ATOM     40  FAI KR2 d          -2.934   1.278  -0.959  0.00  0.00    -0.203 F 
ATOM     41  CAE KR2 d          -4.313   2.443  -2.457  0.00  0.00    -0.005 A 
ATOM     42  CAF KR2 d          -4.609   3.603  -3.165  0.00  0.00     0.125 A 
ATOM     43  H25 KR2 d          -4.773   1.508  -2.757  0.00  0.00     0.093 H 
ATOM     44  FAJ KR2 d          -5.410   3.500  -4.239  0.00  0.00    -0.205 F 
ENDBRANCH  31  34
ENDBRANCH  25  31
ENDBRANCH  22  25
ENDBRANCH  10  22
BRANCH   1  45
ATOM     45  CAX KR2 d          -4.053   2.771 -10.109  0.00  0.00     0.001 A 
ATOM     46  CAY KR2 d          -3.397   1.552  -9.953  0.00  0.00    -0.072 A 
ATOM     47  CBC KR2 d          -4.108   0.358 -10.054  0.00  0.00    -0.082 A 
ATOM     48  H1  KR2 d          -2.332   1.532  -9.753  0.00  0.00     0.084 H 
ATOM     49  CBB KR2 d          -5.478   0.383 -10.308  0.00  0.00    -0.083 A 
ATOM     50  H2  KR2 d          -3.596  -0.589  -9.934  0.00  0.00     0.083 H 
ATOM     51  CBA KR2 d          -6.136   1.603 -10.451  0.00  0.00    -0.082 A 
ATOM     52  H3  KR2 d          -6.031  -0.545 -10.394  0.00  0.00     0.083 H 
ATOM     53  CAZ KR2 d          -5.425   2.796 -10.346  0.00  0.00    -0.072 A 
ATOM     54  H4  KR2 d          -7.203   1.624 -10.643  0.00  0.00     0.083 H 
ATOM     55  H5  KR2 d          -5.940   3.744 -10.448  0.00  0.00     0.084 H 
ENDBRANCH   1  45
TORSDOF 6
ENDMDL
MODEL 9
REMARK VINA RESULT:      -4.8      2.116      2.949
REMARK  6 active torsions:
REMARK  status: ('A' for Active; 'I' for Inactive)
REMARK    1  A    between atoms: CAX_6  and  CAW_7 
REMARK       I    between atoms: CAW_7  and  NAR_9 
REMARK    2  A    between atoms: CAO_16  and  CAN_18 
REMARK    3  A    between atoms: CAN_18  and  CAL_19 
REMARK    4  A    between atoms: CAL_19  and  NAM_20 
REMARK    5  A    between atoms: CAL_19  and  CAK_21 
REMARK    6  A    between atoms: CAK_21  and  CAG_22 
ROOT
ATOM      1  CAW KR2 d          -2.652   4.146  -9.251  0.00  0.00     0.250 C 
ATOM      2  OAA KR2 d          -3.885   3.961  -9.956  0.00  0.00    -0.199 OA
ATOM      3  NAR KR2 d          -2.254   2.931  -8.521  0.00  0.00    -0.181 NA
ATOM      4  CAV KR2 d          -1.058   2.352  -9.154  0.00  0.00     0.001 C 
ATOM      5  CDD KR2 d          -1.119   0.838  -9.371  0.00  0.00    -0.052 C 
ATOM      6  CNN KR2 d          -2.072   0.429 -10.496  0.00  0.00    -0.062 C 
ATOM      7  CAT KR2 d          -3.527   0.293 -10.034  0.00  0.00    -0.049 C 
ATOM      8  CAS KR2 d          -4.131   1.612  -9.538  0.00  0.00     0.013 C 
ATOM      9  NAQ KR2 d          -3.348   2.129  -8.403  0.00  0.00    -0.288 N 
ATOM     10  CAO KR2 d          -3.504   1.615  -7.189  0.00  0.00     0.170 C 
ATOM     11  OAP KR2 d          -2.556   1.684  -6.219  0.00  0.00    -0.176 OA
ATOM     12  H6  KR2 d          -0.191   2.571  -8.514  0.00  0.00     0.058 H 
ATOM     13  H7  KR2 d          -0.921   2.833 -10.133  0.00  0.00     0.058 H 
ATOM     14  H8  KR2 d          -1.457   0.365  -8.437  0.00  0.00     0.034 H 
ATOM     15  H9  KR2 d          -0.110   0.480  -9.620  0.00  0.00     0.034 H 
ATOM     16  H10 KR2 d          -1.741  -0.540 -10.899  0.00  0.00     0.033 H 
ATOM     17  H11 KR2 d          -2.026   1.191 -11.289  0.00  0.00     0.033 H 
ATOM     18  H12 KR2 d          -3.566  -0.439  -9.214  0.00  0.00     0.035 H 
ATOM     19  H13 KR2 d          -4.129  -0.071 -10.879  0.00  0.00     0.035 H 
ATOM     20  H14 KR2 d          -5.169   1.439  -9.216  0.00  0.00     0.066 H 
ATOM     21  H15 KR2 d          -4.119   2.348 -10.355  0.00  0.00     0.066 H 
ENDROOT
BRANCH  10  22
ATOM     22  CAN KR2 d          -4.771   0.824  -6.873  0.00  0.00     0.025 C 
ATOM     23  H16 KR2 d          -4.507  -0.060  -6.274  0.00  0.00     0.048 H 
ATOM     24  H17 KR2 d          -5.241   0.502  -7.815  0.00  0.00     0.048 H 
BRANCH  22  25
ATOM     25  CAL KR2 d          -5.755   1.690  -6.088  0.00  0.00     0.111 C 
ATOM     26  H18 KR2 d          -6.778   1.327  -6.266  0.00  0.00     0.085 H 
BRANCH  25  27
ATOM     27  NAM KR2 d          -5.561   3.066  -6.563  0.00  0.00    -0.074 N 
ATOM     28  H19 KR2 d          -4.722   3.447  -6.154  0.00  0.00     0.274 HD
ATOM     29  H20 KR2 d          -6.351   3.630  -6.294  0.00  0.00     0.274 HD
ATOM     30  H21 KR2 d          -5.475   3.066  -7.568  0.00  0.00     0.274 HD
ENDBRANCH  25  27
BRANCH  25  31
ATOM     31  CAK KR2 d          -5.505   1.836  -4.588  0.00  0.00    -0.011 C 
ATOM     32  H22 KR2 d          -4.704   1.128  -4.333  0.00  0.00     0.043 H 
ATOM     33  H23 KR2 d          -6.436   1.534  -4.085  0.00  0.00     0.043 H 
BRANCH  31  34
ATOM     34  CAG KR2 d          -5.139   3.061  -4.037  0.00  0.00    -0.015 A 
ATOM     35  CAH KR2 d          -5.630   4.244  -4.566  0.00  0.00    -0.034 A 
ATOM     36  CAC KR2 d          -5.114   5.484  -4.196  0.00  0.00     0.155 A 
ATOM     37  H24 KR2 d          -6.437   4.204  -5.288  0.00  0.00     0.089 H 
ATOM     38  FAB KR2 d          -5.742   6.596  -4.620  0.00  0.00    -0.203 F 
ATOM     39  CAD KR2 d          -4.060   5.532  -3.289  0.00  0.00     0.157 A 
ATOM     40  FAI KR2 d          -3.285   6.628  -3.166  0.00  0.00    -0.203 F 
ATOM     41  CAE KR2 d          -3.626   4.356  -2.694  0.00  0.00    -0.005 A 
ATOM     42  CAF KR2 d          -4.163   3.123  -3.045  0.00  0.00     0.125 A 
ATOM     43  H25 KR2 d          -2.850   4.399  -1.937  0.00  0.00     0.093 H 
ATOM     44  FAJ KR2 d          -3.645   2.023  -2.474  0.00  0.00    -0.205 F 
ENDBRANCH  31  34
ENDBRANCH  25  31
ENDBRANCH  22  25
ENDBRANCH  10  22
BRANCH   1  45
ATOM     45  CAX KR2 d          -2.879   5.170  -8.133  0.00  0.00     0.001 A 
ATOM     46  CAY KR2 d          -3.859   6.149  -8.278  0.00  0.00    -0.072 A 
ATOM     47  CBC KR2 d          -3.903   7.228  -7.399  0.00  0.00    -0.082 A 
ATOM     48  H1  KR2 d          -4.588   6.070  -9.076  0.00  0.00     0.084 H 
ATOM     49  CBB KR2 d          -2.968   7.329  -6.371  0.00  0.00    -0.083 A 
ATOM     50  H2  KR2 d          -4.665   7.990  -7.514  0.00  0.00     0.083 H 
ATOM     51  CBA KR2 d          -1.995   6.343  -6.219  0.00  0.00    -0.082 A 
ATOM     52  H3  KR2 d          -2.996   8.173  -5.692  0.00  0.00     0.083 H 
ATOM     53  CAZ KR2 d          -1.955   5.262  -7.095  0.00  0.00    -0.072 A 
ATOM     54  H4  KR2 d          -1.270   6.417  -5.416  0.00  0.00     0.083 H 
ATOM     55  H5  KR2 d          -1.203   4.491  -6.970  0.00  0.00     0.084 H 
ENDBRANCH   1  45
TORSDOF 6
ENDMDL
