MODEL 1
REMARK VINA RESULT:      -8.6      0.000      0.000
REMARK  9 active torsions:
REMARK  status: ('A' for Active; 'I' for Inactive)
REMARK    1  A    between atoms: CAH_1  and  CAG_2 
REMARK       I    between atoms: CAG_2  and  NAI_4 
REMARK    2  A    between atoms: NAI_4  and  CAB_5 
REMARK    3  A    between atoms: CAC_6  and  OAJ_7 
REMARK    4  A    between atoms: CAD_8  and  OAK_9 
REMARK    5  A    between atoms: CAE_10  and  CAF_11 
REMARK    6  A    between atoms: CAF_11  and  OAM_12 
REMARK    7  A    between atoms: NAY_15  and  OAQ_16 
REMARK    8  A    between atoms: OAQ_16  and  CAP_17 
REMARK       I    between atoms: CAP_17  and  NAO_19 
REMARK    9  A    between atoms: NAO_19  and  CAS_20 
ROOT
ATOM      1  CAB OAN d          33.041  42.347  21.411  0.00  0.00     0.105 C 
ATOM      2  CAC OAN d          32.466  42.665  22.826  0.00  0.00     0.089 C 
ATOM      3  CAD OAN d          31.020  42.222  22.954  0.00  0.00     0.090 C 
ATOM      4  CAE OAN d          30.963  40.694  22.774  0.00  0.00     0.094 C 
ATOM      5  OAL OAN d          31.417  40.382  21.431  0.00  0.00    -0.324 OA
ATOM      6  CAA OAN d          32.267  41.206  20.737  0.00  0.00     0.194 C 
ATOM      7  NAY OAN d          32.388  41.023  19.413  0.00  0.00    -0.100 NA
ATOM      8  H5  OAN d          32.926  43.242  20.782  0.00  0.00     0.090 H 
ATOM      9  H6  OAN d          33.061  42.112  23.567  0.00  0.00     0.090 H 
ATOM     10  H8  OAN d          30.421  42.705  22.168  0.00  0.00     0.091 H 
ATOM     11  H10 OAN d          31.680  40.271  23.492  0.00  0.00     0.091 H 
ENDROOT
BRANCH   1  12
ATOM     12  NAI OAN d          34.485  42.060  21.539  0.00  0.00    -0.347 N 
ATOM     13  CAG OAN d          35.007  41.137  22.361  0.00  0.00     0.214 C 
ATOM     14  OAN OAN d          34.344  40.377  23.078  0.00  0.00    -0.274 OA
ATOM     15  H4  OAN d          35.117  42.590  20.973  0.00  0.00     0.163 HD
BRANCH  13  16
ATOM     16  CAH OAN d          36.546  41.080  22.367  0.00  0.00    -0.003 C 
ATOM     17  H1  OAN d          36.927  41.560  23.281  0.00  0.00     0.040 H 
ATOM     18  H2  OAN d          36.936  41.609  21.485  0.00  0.00     0.040 H 
ATOM     19  H3  OAN d          36.874  40.030  22.340  0.00  0.00     0.040 H 
ENDBRANCH  13  16
ENDBRANCH   1  12
BRANCH   7  20
ATOM     20  OAQ OAN d          31.714  40.038  18.706  0.00  0.00    -0.153 OA
BRANCH  20  21
ATOM     21  CAP OAN d          30.489  40.435  18.258  0.00  0.00     0.389 C 
ATOM     22  OAR OAN d          30.011  39.901  17.248  0.00  0.00    -0.236 OA
ATOM     23  NAO OAN d          29.855  41.405  18.975  0.00  0.00    -0.301 N 
ATOM     24  H14 OAN d          30.315  41.752  19.792  0.00  0.00     0.171 HD
BRANCH  23  25
ATOM     25  CAS OAN d          28.629  41.942  18.658  0.00  0.00     0.036 A 
ATOM     26  CAT OAN d          27.424  41.537  19.285  0.00  0.00    -0.057 A 
ATOM     27  CAU OAN d          26.180  42.094  18.929  0.00  0.00    -0.081 A 
ATOM     28  H15 OAN d          27.461  40.780  20.059  0.00  0.00     0.086 H 
ATOM     29  CAV OAN d          26.123  43.069  17.933  0.00  0.00    -0.083 A 
ATOM     30  H16 OAN d          25.273  41.767  19.425  0.00  0.00     0.083 H 
ATOM     31  CAW OAN d          27.302  43.497  17.302  0.00  0.00    -0.081 A 
ATOM     32  H17 OAN d          25.168  43.496  17.646  0.00  0.00     0.083 H 
ATOM     33  CAX OAN d          28.536  42.940  17.669  0.00  0.00    -0.057 A 
ATOM     34  H18 OAN d          27.259  44.258  16.531  0.00  0.00     0.083 H 
ATOM     35  H19 OAN d          29.440  43.286  17.180  0.00  0.00     0.086 H 
ENDBRANCH  23  25
ENDBRANCH  20  21
ENDBRANCH   7  20
BRANCH   2  36
ATOM     36  OAJ OAN d          32.572  44.054  23.115  0.00  0.00    -0.390 OA
ATOM     37  H7  OAN d          31.728  44.382  23.405  0.00  0.00     0.210 HD
ENDBRANCH   2  36
BRANCH   4  38
ATOM     38  CAF OAN d          29.615  39.950  23.013  0.00  0.00     0.044 C 
ATOM     39  H11 OAN d          29.168  40.304  23.953  0.00  0.00     0.078 H 
ATOM     40  H12 OAN d          29.806  38.869  23.083  0.00  0.00     0.078 H 
BRANCH  38  41
ATOM     41  OAM OAN d          28.708  40.197  21.939  0.00  0.00    -0.398 OA
ATOM     42  H13 OAN d          29.169  40.120  21.112  0.00  0.00     0.209 HD
ENDBRANCH  38  41
ENDBRANCH   4  38
BRANCH   3  43
ATOM     43  OAK OAN d          30.494  42.586  24.225  0.00  0.00    -0.390 OA
ATOM     44  H9  OAN d          30.583  41.855  24.824  0.00  0.00     0.210 HD
ENDBRANCH   3  43
TORSDOF 9
ENDMDL
MODEL 2
REMARK VINA RESULT:      -5.9      2.680      4.098
REMARK  9 active torsions:
REMARK  status: ('A' for Active; 'I' for Inactive)
REMARK    1  A    between atoms: CAH_1  and  CAG_2 
REMARK       I    between atoms: CAG_2  and  NAI_4 
REMARK    2  A    between atoms: NAI_4  and  CAB_5 
REMARK    3  A    between atoms: CAC_6  and  OAJ_7 
REMARK    4  A    between atoms: CAD_8  and  OAK_9 
REMARK    5  A    between atoms: CAE_10  and  CAF_11 
REMARK    6  A    between atoms: CAF_11  and  OAM_12 
REMARK    7  A    between atoms: NAY_15  and  OAQ_16 
REMARK    8  A    between atoms: OAQ_16  and  CAP_17 
REMARK       I    between atoms: CAP_17  and  NAO_19 
REMARK    9  A    between atoms: NAO_19  and  CAS_20 
ROOT
ATOM      1  CAB OAN d          32.081  42.502  21.670  0.00  0.00     0.105 C 
ATOM      2  CAC OAN d          31.685  42.136  23.134  0.00  0.00     0.089 C 
ATOM      3  CAD OAN d          30.304  41.510  23.200  0.00  0.00     0.090 C 
ATOM      4  CAE OAN d          30.327  40.198  22.394  0.00  0.00     0.094 C 
ATOM      5  OAL OAN d          30.614  40.525  21.010  0.00  0.00    -0.324 OA
ATOM      6  CAA OAN d          31.301  41.657  20.654  0.00  0.00     0.194 C 
ATOM      7  NAY OAN d          31.252  42.053  19.372  0.00  0.00    -0.100 NA
ATOM      8  H5  OAN d          31.819  43.556  21.495  0.00  0.00     0.090 H 
ATOM      9  H6  OAN d          32.412  41.402  23.510  0.00  0.00     0.090 H 
ATOM     10  H8  OAN d          29.571  42.199  22.754  0.00  0.00     0.091 H 
ATOM     11  H10 OAN d          31.164  39.605  22.794  0.00  0.00     0.091 H 
ENDROOT
BRANCH   1  12
ATOM     12  NAI OAN d          33.545  42.364  21.525  0.00  0.00    -0.347 N 
ATOM     13  CAG OAN d          34.272  41.375  22.068  0.00  0.00     0.214 C 
ATOM     14  OAN OAN d          33.804  40.429  22.714  0.00  0.00    -0.274 OA
ATOM     15  H4  OAN d          34.026  43.054  20.987  0.00  0.00     0.163 HD
BRANCH  13  16
ATOM     16  CAH OAN d          35.790  41.494  21.836  0.00  0.00    -0.003 C 
ATOM     17  H1  OAN d          36.014  41.308  20.775  0.00  0.00     0.040 H 
ATOM     18  H2  OAN d          36.315  40.753  22.457  0.00  0.00     0.040 H 
ATOM     19  H3  OAN d          36.125  42.505  22.109  0.00  0.00     0.040 H 
ENDBRANCH  13  16
ENDBRANCH   1  12
BRANCH   7  20
ATOM     20  OAQ OAN d          30.557  41.374  18.381  0.00  0.00    -0.153 OA
BRANCH  20  21
ATOM     21  CAP OAN d          31.348  40.560  17.626  0.00  0.00     0.389 C 
ATOM     22  OAR OAN d          31.366  39.344  17.862  0.00  0.00    -0.236 OA
ATOM     23  NAO OAN d          32.072  41.150  16.634  0.00  0.00    -0.301 N 
ATOM     24  H14 OAN d          31.967  42.137  16.509  0.00  0.00     0.171 HD
BRANCH  23  25
ATOM     25  CAS OAN d          32.938  40.490  15.794  0.00  0.00     0.036 A 
ATOM     26  CAT OAN d          33.057  39.078  15.763  0.00  0.00    -0.057 A 
ATOM     27  CAU OAN d          33.964  38.430  14.902  0.00  0.00    -0.081 A 
ATOM     28  H15 OAN d          32.434  38.482  16.420  0.00  0.00     0.086 H 
ATOM     29  CAV OAN d          34.771  39.189  14.055  0.00  0.00    -0.083 A 
ATOM     30  H16 OAN d          34.035  37.348  14.898  0.00  0.00     0.083 H 
ATOM     31  CAW OAN d          34.666  40.589  14.055  0.00  0.00    -0.081 A 
ATOM     32  H17 OAN d          35.478  38.698  13.396  0.00  0.00     0.083 H 
ATOM     33  CAX OAN d          33.754  41.224  14.913  0.00  0.00    -0.057 A 
ATOM     34  H18 OAN d          35.289  41.180  13.394  0.00  0.00     0.083 H 
ATOM     35  H19 OAN d          33.677  42.306  14.897  0.00  0.00     0.086 H 
ENDBRANCH  23  25
ENDBRANCH  20  21
ENDBRANCH   7  20
BRANCH   2  36
ATOM     36  OAJ OAN d          31.733  43.284  23.974  0.00  0.00    -0.390 OA
ATOM     37  H7  OAN d          31.105  43.186  24.681  0.00  0.00     0.210 HD
ENDBRANCH   2  36
BRANCH   4  38
ATOM     38  CAF OAN d          29.079  39.265  22.423  0.00  0.00     0.044 C 
ATOM     39  H11 OAN d          28.859  38.988  23.464  0.00  0.00     0.078 H 
ATOM     40  H12 OAN d          29.293  38.358  21.839  0.00  0.00     0.078 H 
BRANCH  38  41
ATOM     41  OAM OAN d          27.945  39.928  21.863  0.00  0.00    -0.398 OA
ATOM     42  H13 OAN d          28.077  40.868  21.904  0.00  0.00     0.209 HD
ENDBRANCH  38  41
ENDBRANCH   4  38
BRANCH   3  43
ATOM     43  OAK OAN d          29.933  41.251  24.549  0.00  0.00    -0.390 OA
ATOM     44  H9  OAN d          29.046  41.557  24.697  0.00  0.00     0.210 HD
ENDBRANCH   3  43
TORSDOF 9
ENDMDL
MODEL 3
REMARK VINA RESULT:      -5.8      2.986      7.226
REMARK  9 active torsions:
REMARK  status: ('A' for Active; 'I' for Inactive)
REMARK    1  A    between atoms: CAH_1  and  CAG_2 
REMARK       I    between atoms: CAG_2  and  NAI_4 
REMARK    2  A    between atoms: NAI_4  and  CAB_5 
REMARK    3  A    between atoms: CAC_6  and  OAJ_7 
REMARK    4  A    between atoms: CAD_8  and  OAK_9 
REMARK    5  A    between atoms: CAE_10  and  CAF_11 
REMARK    6  A    between atoms: CAF_11  and  OAM_12 
REMARK    7  A    between atoms: NAY_15  and  OAQ_16 
REMARK    8  A    between atoms: OAQ_16  and  CAP_17 
REMARK       I    between atoms: CAP_17  and  NAO_19 
REMARK    9  A    between atoms: NAO_19  and  CAS_20 
ROOT
ATOM      1  CAB OAN d          27.529  43.387  16.868  0.00  0.00     0.105 C 
ATOM      2  CAC OAN d          26.348  42.932  15.956  0.00  0.00     0.089 C 
ATOM      3  CAD OAN d          26.770  41.826  15.006  0.00  0.00     0.090 C 
ATOM      4  CAE OAN d          27.196  40.604  15.841  0.00  0.00     0.094 C 
ATOM      5  OAL OAN d          28.348  40.984  16.639  0.00  0.00    -0.324 OA
ATOM      6  CAA OAN d          28.588  42.285  17.002  0.00  0.00     0.194 C 
ATOM      7  NAY OAN d          29.812  42.602  17.454  0.00  0.00    -0.100 NA
ATOM      8  H5  OAN d          28.013  44.256  16.399  0.00  0.00     0.090 H 
ATOM      9  H6  OAN d          25.549  42.541  16.604  0.00  0.00     0.090 H 
ATOM     10  H8  OAN d          27.623  42.171  14.403  0.00  0.00     0.091 H 
ATOM     11  H10 OAN d          26.358  40.387  16.520  0.00  0.00     0.091 H 
ENDROOT
BRANCH   1  12
ATOM     12  NAI OAN d          26.984  43.817  18.173  0.00  0.00    -0.347 N 
ATOM     13  CAG OAN d          26.384  43.000  19.052  0.00  0.00     0.214 C 
ATOM     14  OAN OAN d          26.255  41.778  18.904  0.00  0.00    -0.274 OA
ATOM     15  H4  OAN d          27.068  44.783  18.417  0.00  0.00     0.163 HD
BRANCH  13  16
ATOM     16  CAH OAN d          25.833  43.702  20.307  0.00  0.00    -0.003 C 
ATOM     17  H1  OAN d          25.606  42.951  21.078  0.00  0.00     0.040 H 
ATOM     18  H2  OAN d          24.915  44.250  20.048  0.00  0.00     0.040 H 
ATOM     19  H3  OAN d          26.584  44.407  20.693  0.00  0.00     0.040 H 
ENDBRANCH  13  16
ENDBRANCH   1  12
BRANCH   7  20
ATOM     20  OAQ OAN d          30.845  41.686  17.590  0.00  0.00    -0.153 OA
BRANCH  20  21
ATOM     21  CAP OAN d          31.029  41.264  18.873  0.00  0.00     0.389 C 
ATOM     22  OAR OAN d          32.082  40.684  19.175  0.00  0.00    -0.236 OA
ATOM     23  NAO OAN d          30.027  41.524  19.758  0.00  0.00    -0.301 N 
ATOM     24  H14 OAN d          29.228  42.021  19.419  0.00  0.00     0.171 HD
BRANCH  23  25
ATOM     25  CAS OAN d          30.031  41.152  21.082  0.00  0.00     0.036 A 
ATOM     26  CAT OAN d          30.604  41.947  22.105  0.00  0.00    -0.057 A 
ATOM     27  CAU OAN d          30.608  41.534  23.451  0.00  0.00    -0.081 A 
ATOM     28  H15 OAN d          31.051  42.900  21.845  0.00  0.00     0.086 H 
ATOM     29  CAV OAN d          30.035  40.309  23.796  0.00  0.00    -0.083 A 
ATOM     30  H16 OAN d          31.052  42.162  24.215  0.00  0.00     0.083 H 
ATOM     31  CAW OAN d          29.450  39.505  22.805  0.00  0.00    -0.081 A 
ATOM     32  H17 OAN d          30.042  39.979  24.829  0.00  0.00     0.083 H 
ATOM     33  CAX OAN d          29.447  39.930  21.468  0.00  0.00    -0.057 A 
ATOM     34  H18 OAN d          29.000  38.556  23.073  0.00  0.00     0.083 H 
ATOM     35  H19 OAN d          28.983  39.304  20.714  0.00  0.00     0.086 H 
ENDBRANCH  23  25
ENDBRANCH  20  21
ENDBRANCH   7  20
BRANCH   2  36
ATOM     36  OAJ OAN d          25.827  44.030  15.216  0.00  0.00    -0.390 OA
ATOM     37  H7  OAN d          25.070  43.744  14.717  0.00  0.00     0.210 HD
ENDBRANCH   2  36
BRANCH   4  38
ATOM     38  CAF OAN d          27.529  39.266  15.117  0.00  0.00     0.044 C 
ATOM     39  H11 OAN d          27.816  38.512  15.864  0.00  0.00     0.078 H 
ATOM     40  H12 OAN d          28.364  39.430  14.421  0.00  0.00     0.078 H 
BRANCH  38  41
ATOM     41  OAM OAN d          26.395  38.796  14.387  0.00  0.00    -0.398 OA
ATOM     42  H13 OAN d          26.153  37.933  14.703  0.00  0.00     0.209 HD
ENDBRANCH  38  41
ENDBRANCH   4  38
BRANCH   3  43
ATOM     43  OAK OAN d          25.701  41.476  14.136  0.00  0.00    -0.390 OA
ATOM     44  H9  OAN d          25.476  40.562  14.264  0.00  0.00     0.210 HD
ENDBRANCH   3  43
TORSDOF 9
ENDMDL
MODEL 4
REMARK VINA RESULT:      -5.7      2.623      7.064
REMARK  9 active torsions:
REMARK  status: ('A' for Active; 'I' for Inactive)
REMARK    1  A    between atoms: CAH_1  and  CAG_2 
REMARK       I    between atoms: CAG_2  and  NAI_4 
REMARK    2  A    between atoms: NAI_4  and  CAB_5 
REMARK    3  A    between atoms: CAC_6  and  OAJ_7 
REMARK    4  A    between atoms: CAD_8  and  OAK_9 
REMARK    5  A    between atoms: CAE_10  and  CAF_11 
REMARK    6  A    between atoms: CAF_11  and  OAM_12 
REMARK    7  A    between atoms: NAY_15  and  OAQ_16 
REMARK    8  A    between atoms: OAQ_16  and  CAP_17 
REMARK       I    between atoms: CAP_17  and  NAO_19 
REMARK    9  A    between atoms: NAO_19  and  CAS_20 
ROOT
ATOM      1  CAB OAN d          28.724  43.200  16.971  0.00  0.00     0.105 C 
ATOM      2  CAC OAN d          29.848  42.806  15.962  0.00  0.00     0.089 C 
ATOM      3  CAD OAN d          30.814  41.803  16.565  0.00  0.00     0.090 C 
ATOM      4  CAE OAN d          30.033  40.518  16.899  0.00  0.00     0.094 C 
ATOM      5  OAL OAN d          29.035  40.846  17.899  0.00  0.00    -0.324 OA
ATOM      6  CAA OAN d          28.524  42.112  18.035  0.00  0.00     0.194 C 
ATOM      7  NAY OAN d          27.859  42.412  19.161  0.00  0.00    -0.100 NA
ATOM      8  H5  OAN d          29.033  44.119  17.490  0.00  0.00     0.090 H 
ATOM      9  H6  OAN d          29.371  42.341  15.087  0.00  0.00     0.090 H 
ATOM     10  H8  OAN d          31.243  42.220  17.487  0.00  0.00     0.091 H 
ATOM     11  H10 OAN d          29.517  40.221  15.974  0.00  0.00     0.091 H 
ENDROOT
BRANCH   1  12
ATOM     12  NAI OAN d          27.489  43.495  16.215  0.00  0.00    -0.347 N 
ATOM     13  CAG OAN d          26.949  42.681  15.294  0.00  0.00     0.214 C 
ATOM     14  OAN OAN d          27.389  41.563  14.997  0.00  0.00    -0.274 OA
ATOM     15  H4  OAN d          27.024  44.359  16.403  0.00  0.00     0.163 HD
BRANCH  13  16
ATOM     16  CAH OAN d          25.701  43.248  14.592  0.00  0.00    -0.003 C 
ATOM     17  H1  OAN d          25.482  42.649  13.695  0.00  0.00     0.040 H 
ATOM     18  H2  OAN d          25.887  44.292  14.299  0.00  0.00     0.040 H 
ATOM     19  H3  OAN d          24.843  43.207  15.279  0.00  0.00     0.040 H 
ENDBRANCH  13  16
ENDBRANCH   1  12
BRANCH   7  20
ATOM     20  OAQ OAN d          27.644  41.509  20.193  0.00  0.00    -0.153 OA
BRANCH  20  21
ATOM     21  CAP OAN d          28.784  41.169  20.860  0.00  0.00     0.389 C 
ATOM     22  OAR OAN d          28.815  40.112  21.505  0.00  0.00    -0.236 OA
ATOM     23  NAO OAN d          29.837  42.027  20.759  0.00  0.00    -0.301 N 
ATOM     24  H14 OAN d          29.718  42.841  20.192  0.00  0.00     0.171 HD
BRANCH  23  25
ATOM     25  CAS OAN d          31.052  41.857  21.382  0.00  0.00     0.036 A 
ATOM     26  CAT OAN d          31.308  42.293  22.706  0.00  0.00    -0.057 A 
ATOM     27  CAU OAN d          32.567  42.119  23.312  0.00  0.00    -0.081 A 
ATOM     28  H15 OAN d          30.514  42.772  23.266  0.00  0.00     0.086 H 
ATOM     29  CAV OAN d          33.596  41.503  22.598  0.00  0.00    -0.083 A 
ATOM     30  H16 OAN d          32.737  42.461  24.327  0.00  0.00     0.083 H 
ATOM     31  CAW OAN d          33.368  41.052  21.289  0.00  0.00    -0.081 A 
ATOM     32  H17 OAN d          34.571  41.375  23.055  0.00  0.00     0.083 H 
ATOM     33  CAX OAN d          32.107  41.224  20.697  0.00  0.00    -0.057 A 
ATOM     34  H18 OAN d          34.165  40.569  20.735  0.00  0.00     0.083 H 
ATOM     35  H19 OAN d          31.942  40.862  19.688  0.00  0.00     0.086 H 
ENDBRANCH  23  25
ENDBRANCH  20  21
ENDBRANCH   7  20
BRANCH   2  36
ATOM     36  OAJ OAN d          30.560  43.957  15.522  0.00  0.00    -0.390 OA
ATOM     37  H7  OAN d          31.288  44.122  16.111  0.00  0.00     0.210 HD
ENDBRANCH   2  36
BRANCH   4  38
ATOM     38  CAF OAN d          30.812  39.260  17.387  0.00  0.00     0.044 C 
ATOM     39  H11 OAN d          30.820  38.506  16.587  0.00  0.00     0.078 H 
ATOM     40  H12 OAN d          30.312  38.847  18.275  0.00  0.00     0.078 H 
BRANCH  38  41
ATOM     41  OAM OAN d          32.157  39.603  17.723  0.00  0.00    -0.398 OA
ATOM     42  H13 OAN d          32.409  40.389  17.253  0.00  0.00     0.209 HD
ENDBRANCH  38  41
ENDBRANCH   4  38
BRANCH   3  43
ATOM     43  OAK OAN d          31.869  41.513  15.655  0.00  0.00    -0.390 OA
ATOM     44  H9  OAN d          31.665  40.717  15.178  0.00  0.00     0.210 HD
ENDBRANCH   3  43
TORSDOF 9
ENDMDL
