MODEL 1
REMARK VINA RESULT:      -7.1      0.000      0.000
REMARK  10 active torsions:
REMARK  status: ('A' for Active; 'I' for Inactive)
REMARK    1  A    between atoms: C3_3  and  C10_10 
REMARK    2  A    between atoms: C6_6  and  N7_7 
REMARK    3  A    between atoms: C10_10  and  N11_11 
REMARK    4  A    between atoms: N11_11  and  C17_17 
REMARK    5  A    between atoms: N11_11  and  C12_12 
REMARK    6  A    between atoms: C12_12  and  P13_13 
REMARK    7  A    between atoms: C17_17  and  C18_18 
REMARK    8  A    between atoms: C18_18  and  C19_19 
REMARK    9  A    between atoms: C19_19  and  C20_20 
REMARK   10  A    between atoms: C20_20  and  C21_21 
ROOT
ATOM      1  N11 AAH d         -24.128  41.451  16.892  0.00  0.00    -0.055 N 
ATOM      2  H7  AAH d         -23.670  42.346  16.820  0.00  0.00     0.281 HD
ENDROOT
BRANCH   1   3
ATOM      3  C10 AAH d         -23.588  40.706  15.732  0.00  0.00     0.108 C 
ATOM      4  H5  AAH d         -24.369  40.667  14.958  0.00  0.00     0.083 H 
ATOM      5  H6  AAH d         -22.718  41.258  15.348  0.00  0.00     0.083 H 
BRANCH   3   6
ATOM      6  C3  AAH d         -23.146  39.275  16.032  0.00  0.00    -0.032 C 
ATOM      7  C2  AAH d         -24.083  38.366  16.593  0.00  0.00    -0.073 C 
ATOM      8  C1  AAH d         -23.735  37.016  16.719  0.00  0.00    -0.050 C 
ATOM      9  H2  AAH d         -25.057  38.714  16.919  0.00  0.00     0.084 H 
ATOM     10  C6  AAH d         -22.410  36.611  16.509  0.00  0.00     0.102 C 
ATOM     11  H1  AAH d         -24.491  36.284  16.979  0.00  0.00     0.087 H 
ATOM     12  C5  AAH d         -21.475  37.513  16.019  0.00  0.00    -0.050 C 
ATOM     13  C4  AAH d         -21.863  38.842  15.758  0.00  0.00    -0.073 C 
ATOM     14  H4  AAH d         -20.454  37.197  15.839  0.00  0.00     0.087 H 
ATOM     15  H3  AAH d         -21.144  39.535  15.336  0.00  0.00     0.084 H 
BRANCH  10  16
ATOM     16  N7  AAH d         -22.016  35.196  16.804  0.00  0.00    -0.116 N 
ATOM     17  O9  AAH d         -22.693  34.510  17.500  0.00  0.00    -0.532 OA
ATOM     18  O8  AAH d         -20.931  34.819  16.544  0.00  0.00    -0.532 OA
ENDBRANCH  10  16
ENDBRANCH   3   6
ENDBRANCH   1   3
BRANCH   1  19
ATOM     19  C17 AAH d         -25.629  41.820  16.846  0.00  0.00     0.085 C 
ATOM     20  H10 AAH d         -25.825  42.595  17.602  0.00  0.00     0.076 H 
ATOM     21  H11 AAH d         -26.221  40.921  17.080  0.00  0.00     0.076 H 
BRANCH  19  22
ATOM     22  C18 AAH d         -26.064  42.352  15.470  0.00  0.00    -0.042 C 
ATOM     23  H12 AAH d         -25.230  42.244  14.761  0.00  0.00     0.035 H 
ATOM     24  H13 AAH d         -26.331  43.414  15.562  0.00  0.00     0.035 H 
BRANCH  22  25
ATOM     25  C19 AAH d         -27.278  41.568  14.944  0.00  0.00    -0.055 C 
ATOM     26  H14 AAH d         -28.004  42.267  14.503  0.00  0.00     0.033 H 
ATOM     27  H15 AAH d         -27.752  41.024  15.775  0.00  0.00     0.033 H 
BRANCH  25  28
ATOM     28  C20 AAH d         -26.818  40.567  13.875  0.00  0.00     0.016 C 
ATOM     29  H16 AAH d         -25.804  40.830  13.541  0.00  0.00     0.049 H 
ATOM     30  H17 AAH d         -27.507  40.604  13.019  0.00  0.00     0.049 H 
BRANCH  28  31
ATOM     31  C21 AAH d         -26.810  39.164  14.456  0.00  0.00     0.172 C 
ATOM     32  O23 AAH d         -27.307  38.975  15.560  0.00  0.00    -0.648 OA
ATOM     33  O22 AAH d         -26.248  38.112  13.759  0.00  0.00    -0.648 OA
ENDBRANCH  28  31
ENDBRANCH  25  28
ENDBRANCH  22  25
ENDBRANCH  19  22
ENDBRANCH   1  19
BRANCH   1  34
ATOM     34  C12 AAH d         -23.675  40.924  18.236  0.00  0.00     0.185 C 
ATOM     35  H8  AAH d         -22.582  40.815  18.184  0.00  0.00     0.098 H 
ATOM     36  H9  AAH d         -24.137  39.934  18.365  0.00  0.00     0.098 H 
BRANCH  34  37
ATOM     37  P13 AAH d         -24.047  41.895  19.769  0.00  0.00     0.286 P 
ATOM     38  O16 AAH d         -24.254  43.255  19.316  0.00  0.00    -0.638 OA
ATOM     39  O15 AAH d         -22.851  41.876  20.855  0.00  0.00    -0.638 OA
ATOM     40  O14 AAH d         -25.327  41.376  20.503  0.00  0.00    -0.638 OA
ENDBRANCH  34  37
ENDBRANCH   1  34
TORSDOF 10
ENDMDL
MODEL 2
REMARK VINA RESULT:      -7.0      1.989      4.320
REMARK  10 active torsions:
REMARK  status: ('A' for Active; 'I' for Inactive)
REMARK    1  A    between atoms: C3_3  and  C10_10 
REMARK    2  A    between atoms: C6_6  and  N7_7 
REMARK    3  A    between atoms: C10_10  and  N11_11 
REMARK    4  A    between atoms: N11_11  and  C17_17 
REMARK    5  A    between atoms: N11_11  and  C12_12 
REMARK    6  A    between atoms: C12_12  and  P13_13 
REMARK    7  A    between atoms: C17_17  and  C18_18 
REMARK    8  A    between atoms: C18_18  and  C19_19 
REMARK    9  A    between atoms: C19_19  and  C20_20 
REMARK   10  A    between atoms: C20_20  and  C21_21 
ROOT
ATOM      1  N11 AAH d         -24.915  40.945  16.878  0.00  0.00    -0.055 N 
ATOM      2  H7  AAH d         -24.789  40.664  17.838  0.00  0.00     0.281 HD
ENDROOT
BRANCH   1   3
ATOM      3  C10 AAH d         -23.601  40.644  16.267  0.00  0.00     0.108 C 
ATOM      4  H5  AAH d         -23.658  40.889  15.196  0.00  0.00     0.083 H 
ATOM      5  H6  AAH d         -22.846  41.282  16.750  0.00  0.00     0.083 H 
BRANCH   3   6
ATOM      6  C3  AAH d         -23.145  39.191  16.397  0.00  0.00    -0.032 C 
ATOM      7  C2  AAH d         -23.981  38.263  17.073  0.00  0.00    -0.073 C 
ATOM      8  C1  AAH d         -23.648  36.904  17.055  0.00  0.00    -0.050 C 
ATOM      9  H2  AAH d         -24.867  38.603  17.597  0.00  0.00     0.084 H 
ATOM     10  C6  AAH d         -22.396  36.495  16.577  0.00  0.00     0.102 C 
ATOM     11  H1  AAH d         -24.359  36.168  17.412  0.00  0.00     0.087 H 
ATOM     12  C5  AAH d         -21.549  37.412  15.970  0.00  0.00    -0.050 C 
ATOM     13  C4  AAH d         -21.947  38.760  15.861  0.00  0.00    -0.073 C 
ATOM     14  H4  AAH d         -20.587  37.094  15.583  0.00  0.00     0.087 H 
ATOM     15  H3  AAH d         -21.304  39.467  15.351  0.00  0.00     0.084 H 
BRANCH  10  16
ATOM     16  N7  AAH d         -21.988  35.060  16.712  0.00  0.00    -0.116 N 
ATOM     17  O9  AAH d         -21.324  34.536  15.874  0.00  0.00    -0.532 OA
ATOM     18  O8  AAH d         -22.500  34.374  17.519  0.00  0.00    -0.532 OA
ENDBRANCH  10  16
ENDBRANCH   3   6
ENDBRANCH   1   3
BRANCH   1  19
ATOM     19  C17 AAH d         -25.303  42.437  16.997  0.00  0.00     0.085 C 
ATOM     20  H10 AAH d         -26.332  42.505  17.381  0.00  0.00     0.076 H 
ATOM     21  H11 AAH d         -25.253  42.895  15.998  0.00  0.00     0.076 H 
BRANCH  19  22
ATOM     22  C18 AAH d         -24.372  43.214  17.943  0.00  0.00    -0.042 C 
ATOM     23  H12 AAH d         -23.929  44.061  17.399  0.00  0.00     0.035 H 
ATOM     24  H13 AAH d         -23.573  42.545  18.294  0.00  0.00     0.035 H 
BRANCH  22  25
ATOM     25  C19 AAH d         -25.155  43.747  19.156  0.00  0.00    -0.055 C 
ATOM     26  H14 AAH d         -26.234  43.641  18.972  0.00  0.00     0.033 H 
ATOM     27  H15 AAH d         -24.912  44.809  19.312  0.00  0.00     0.033 H 
BRANCH  25  28
ATOM     28  C20 AAH d         -24.768  42.946  20.407  0.00  0.00     0.016 C 
ATOM     29  H16 AAH d         -25.053  43.511  21.306  0.00  0.00     0.049 H 
ATOM     30  H17 AAH d         -23.682  42.775  20.410  0.00  0.00     0.049 H 
BRANCH  28  31
ATOM     31  C21 AAH d         -25.489  41.609  20.402  0.00  0.00     0.172 C 
ATOM     32  O23 AAH d         -26.650  41.559  20.793  0.00  0.00    -0.648 OA
ATOM     33  O22 AAH d         -24.852  40.462  19.972  0.00  0.00    -0.648 OA
ENDBRANCH  28  31
ENDBRANCH  25  28
ENDBRANCH  22  25
ENDBRANCH  19  22
ENDBRANCH   1  19
BRANCH   1  34
ATOM     34  C12 AAH d         -26.044  40.063  16.392  0.00  0.00     0.185 C 
ATOM     35  H8  AAH d         -26.957  40.402  16.903  0.00  0.00     0.098 H 
ATOM     36  H9  AAH d         -25.808  39.036  16.708  0.00  0.00     0.098 H 
BRANCH  34  37
ATOM     37  P13 AAH d         -26.434  39.992  14.583  0.00  0.00     0.286 P 
ATOM     38  O16 AAH d         -27.787  39.481  14.505  0.00  0.00    -0.638 OA
ATOM     39  O15 AAH d         -25.453  39.017  13.746  0.00  0.00    -0.638 OA
ATOM     40  O14 AAH d         -26.354  41.399  13.904  0.00  0.00    -0.638 OA
ENDBRANCH  34  37
ENDBRANCH   1  34
TORSDOF 10
ENDMDL
MODEL 3
REMARK VINA RESULT:      -6.2      2.350      6.435
REMARK  10 active torsions:
REMARK  status: ('A' for Active; 'I' for Inactive)
REMARK    1  A    between atoms: C3_3  and  C10_10 
REMARK    2  A    between atoms: C6_6  and  N7_7 
REMARK    3  A    between atoms: C10_10  and  N11_11 
REMARK    4  A    between atoms: N11_11  and  C17_17 
REMARK    5  A    between atoms: N11_11  and  C12_12 
REMARK    6  A    between atoms: C12_12  and  P13_13 
REMARK    7  A    between atoms: C17_17  and  C18_18 
REMARK    8  A    between atoms: C18_18  and  C19_19 
REMARK    9  A    between atoms: C19_19  and  C20_20 
REMARK   10  A    between atoms: C20_20  and  C21_21 
ROOT
ATOM      1  N11 AAH d         -23.920  39.291  15.077  0.00  0.00    -0.055 N 
ATOM      2  H7  AAH d         -23.406  39.103  14.231  0.00  0.00     0.281 HD
ENDROOT
BRANCH   1   3
ATOM      3  C10 AAH d         -22.988  40.140  15.852  0.00  0.00     0.108 C 
ATOM      4  H5  AAH d         -22.230  39.487  16.309  0.00  0.00     0.083 H 
ATOM      5  H6  AAH d         -22.499  40.835  15.153  0.00  0.00     0.083 H 
BRANCH   3   6
ATOM      6  C3  AAH d         -23.635  40.965  16.963  0.00  0.00    -0.032 C 
ATOM      7  C2  AAH d         -23.953  42.327  16.716  0.00  0.00    -0.073 C 
ATOM      8  C1  AAH d         -24.690  43.041  17.669  0.00  0.00    -0.050 C 
ATOM      9  H2  AAH d         -23.629  42.809  15.801  0.00  0.00     0.084 H 
ATOM     10  C6  AAH d         -24.913  42.492  18.939  0.00  0.00     0.102 C 
ATOM     11  H1  AAH d         -25.088  44.018  17.424  0.00  0.00     0.087 H 
ATOM     12  C5  AAH d         -24.548  41.179  19.204  0.00  0.00    -0.050 C 
ATOM     13  C4  AAH d         -23.930  40.412  18.195  0.00  0.00    -0.073 C 
ATOM     14  H4  AAH d         -24.736  40.746  20.180  0.00  0.00     0.087 H 
ATOM     15  H3  AAH d         -23.683  39.374  18.388  0.00  0.00     0.084 H 
BRANCH  10  16
ATOM     16  N7  AAH d         -25.560  43.327  20.000  0.00  0.00    -0.116 N 
ATOM     17  O9  AAH d         -24.997  44.269  20.459  0.00  0.00    -0.532 OA
ATOM     18  O8  AAH d         -26.524  42.936  20.552  0.00  0.00    -0.532 OA
ENDBRANCH  10  16
ENDBRANCH   3   6
ENDBRANCH   1   3
BRANCH   1  19
ATOM     19  C17 AAH d         -24.204  37.877  15.637  0.00  0.00     0.085 C 
ATOM     20  H10 AAH d         -24.574  37.241  14.818  0.00  0.00     0.076 H 
ATOM     21  H11 AAH d         -24.975  37.956  16.418  0.00  0.00     0.076 H 
BRANCH  19  22
ATOM     22  C18 AAH d         -22.952  37.221  16.244  0.00  0.00    -0.042 C 
ATOM     23  H12 AAH d         -22.280  38.006  16.620  0.00  0.00     0.035 H 
ATOM     24  H13 AAH d         -22.437  36.638  15.467  0.00  0.00     0.035 H 
BRANCH  22  25
ATOM     25  C19 AAH d         -23.338  36.288  17.405  0.00  0.00    -0.055 C 
ATOM     26  H14 AAH d         -24.424  36.113  17.389  0.00  0.00     0.033 H 
ATOM     27  H15 AAH d         -23.056  36.754  18.361  0.00  0.00     0.033 H 
BRANCH  25  28
ATOM     28  C20 AAH d         -22.603  34.950  17.252  0.00  0.00     0.016 C 
ATOM     29  H16 AAH d         -23.310  34.180  16.910  0.00  0.00     0.049 H 
ATOM     30  H17 AAH d         -22.179  34.653  18.222  0.00  0.00     0.049 H 
BRANCH  28  31
ATOM     31  C21 AAH d         -21.483  35.093  16.236  0.00  0.00     0.172 C 
ATOM     32  O23 AAH d         -21.549  34.461  15.187  0.00  0.00    -0.648 OA
ATOM     33  O22 AAH d         -20.403  35.915  16.484  0.00  0.00    -0.648 OA
ENDBRANCH  28  31
ENDBRANCH  25  28
ENDBRANCH  22  25
ENDBRANCH  19  22
ENDBRANCH   1  19
BRANCH   1  34
ATOM     34  C12 AAH d         -25.160  40.010  14.591  0.00  0.00     0.185 C 
ATOM     35  H8  AAH d         -25.262  39.780  13.520  0.00  0.00     0.098 H 
ATOM     36  H9  AAH d         -24.977  41.086  14.719  0.00  0.00     0.098 H 
BRANCH  34  37
ATOM     37  P13 AAH d         -26.796  39.644  15.379  0.00  0.00     0.286 P 
ATOM     38  O16 AAH d         -27.786  40.019  14.391  0.00  0.00    -0.638 OA
ATOM     39  O15 AAH d         -27.062  40.478  16.737  0.00  0.00    -0.638 OA
ATOM     40  O14 AAH d         -26.952  38.131  15.744  0.00  0.00    -0.638 OA
ENDBRANCH  34  37
ENDBRANCH   1  34
TORSDOF 10
ENDMDL
MODEL 4
REMARK VINA RESULT:      -4.3      2.428      4.426
REMARK  10 active torsions:
REMARK  status: ('A' for Active; 'I' for Inactive)
REMARK    1  A    between atoms: C3_3  and  C10_10 
REMARK    2  A    between atoms: C6_6  and  N7_7 
REMARK    3  A    between atoms: C10_10  and  N11_11 
REMARK    4  A    between atoms: N11_11  and  C17_17 
REMARK    5  A    between atoms: N11_11  and  C12_12 
REMARK    6  A    between atoms: C12_12  and  P13_13 
REMARK    7  A    between atoms: C17_17  and  C18_18 
REMARK    8  A    between atoms: C18_18  and  C19_19 
REMARK    9  A    between atoms: C19_19  and  C20_20 
REMARK   10  A    between atoms: C20_20  and  C21_21 
ROOT
ATOM      1  N11 AAH d         -26.385  40.796  17.527  0.00  0.00    -0.055 N 
ATOM      2  H7  AAH d         -26.928  40.284  18.204  0.00  0.00     0.281 HD
ENDROOT
BRANCH   1   3
ATOM      3  C10 AAH d         -25.026  40.785  18.114  0.00  0.00     0.108 C 
ATOM      4  H5  AAH d         -24.588  41.785  17.977  0.00  0.00     0.083 H 
ATOM      5  H6  AAH d         -25.121  40.569  19.188  0.00  0.00     0.083 H 
BRANCH   3   6
ATOM      6  C3  AAH d         -24.068  39.761  17.508  0.00  0.00    -0.032 C 
ATOM      7  C2  AAH d         -24.360  38.377  17.644  0.00  0.00    -0.073 C 
ATOM      8  C1  AAH d         -23.578  37.442  16.957  0.00  0.00    -0.050 C 
ATOM      9  H2  AAH d         -25.180  38.049  18.273  0.00  0.00     0.084 H 
ATOM     10  C6  AAH d         -22.391  37.846  16.330  0.00  0.00     0.102 C 
ATOM     11  H1  AAH d         -23.890  36.406  16.909  0.00  0.00     0.087 H 
ATOM     12  C5  AAH d         -22.070  39.194  16.249  0.00  0.00    -0.050 C 
ATOM     13  C4  AAH d         -22.934  40.150  16.821  0.00  0.00    -0.073 C 
ATOM     14  H4  AAH d         -21.162  39.510  15.749  0.00  0.00     0.087 H 
ATOM     15  H3  AAH d         -22.706  41.205  16.721  0.00  0.00     0.084 H 
BRANCH  10  16
ATOM     16  N7  AAH d         -21.481  36.814  15.738  0.00  0.00    -0.116 N 
ATOM     17  O9  AAH d         -21.615  35.662  16.004  0.00  0.00    -0.532 OA
ATOM     18  O8  AAH d         -20.492  37.143  15.191  0.00  0.00    -0.532 OA
ENDBRANCH  10  16
ENDBRANCH   3   6
ENDBRANCH   1   3
BRANCH   1  19
ATOM     19  C17 AAH d         -27.105  42.163  17.459  0.00  0.00     0.085 C 
ATOM     20  H10 AAH d         -27.900  42.106  16.701  0.00  0.00     0.076 H 
ATOM     21  H11 AAH d         -26.374  42.932  17.168  0.00  0.00     0.076 H 
BRANCH  19  22
ATOM     22  C18 AAH d         -27.734  42.565  18.804  0.00  0.00    -0.042 C 
ATOM     23  H12 AAH d         -27.599  41.745  19.525  0.00  0.00     0.035 H 
ATOM     24  H13 AAH d         -28.807  42.752  18.659  0.00  0.00     0.035 H 
BRANCH  22  25
ATOM     25  C19 AAH d         -27.068  43.837  19.355  0.00  0.00    -0.055 C 
ATOM     26  H14 AAH d         -26.470  43.583  20.243  0.00  0.00     0.033 H 
ATOM     27  H15 AAH d         -27.843  44.568  19.631  0.00  0.00     0.033 H 
BRANCH  25  28
ATOM     28  C20 AAH d         -26.154  44.443  18.281  0.00  0.00     0.016 C 
ATOM     29  H16 AAH d         -26.200  45.541  18.338  0.00  0.00     0.049 H 
ATOM     30  H17 AAH d         -26.491  44.114  17.287  0.00  0.00     0.049 H 
BRANCH  28  31
ATOM     31  C21 AAH d         -24.724  43.986  18.506  0.00  0.00     0.172 C 
ATOM     32  O23 AAH d         -24.300  43.906  19.653  0.00  0.00    -0.648 OA
ATOM     33  O22 AAH d         -23.906  43.669  17.440  0.00  0.00    -0.648 OA
ENDBRANCH  28  31
ENDBRANCH  25  28
ENDBRANCH  22  25
ENDBRANCH  19  22
ENDBRANCH   1  19
BRANCH   1  34
ATOM     34  C12 AAH d         -26.524  39.975  16.263  0.00  0.00     0.185 C 
ATOM     35  H8  AAH d         -27.498  39.468  16.317  0.00  0.00     0.098 H 
ATOM     36  H9  AAH d         -25.719  39.226  16.277  0.00  0.00     0.098 H 
BRANCH  34  37
ATOM     37  P13 AAH d         -26.445  40.817  14.615  0.00  0.00     0.286 P 
ATOM     38  O16 AAH d         -25.250  40.299  13.980  0.00  0.00    -0.638 OA
ATOM     39  O15 AAH d         -26.334  42.427  14.714  0.00  0.00    -0.638 OA
ATOM     40  O14 AAH d         -27.697  40.507  13.731  0.00  0.00    -0.638 OA
ENDBRANCH  34  37
ENDBRANCH   1  34
TORSDOF 10
ENDMDL
MODEL 5
REMARK VINA RESULT:      -4.2      2.530      6.725
REMARK  10 active torsions:
REMARK  status: ('A' for Active; 'I' for Inactive)
REMARK    1  A    between atoms: C3_3  and  C10_10 
REMARK    2  A    between atoms: C6_6  and  N7_7 
REMARK    3  A    between atoms: C10_10  and  N11_11 
REMARK    4  A    between atoms: N11_11  and  C17_17 
REMARK    5  A    between atoms: N11_11  and  C12_12 
REMARK    6  A    between atoms: C12_12  and  P13_13 
REMARK    7  A    between atoms: C17_17  and  C18_18 
REMARK    8  A    between atoms: C18_18  and  C19_19 
REMARK    9  A    between atoms: C19_19  and  C20_20 
REMARK   10  A    between atoms: C20_20  and  C21_21 
ROOT
ATOM      1  N11 AAH d         -24.449  40.863  14.728  0.00  0.00    -0.055 N 
ATOM      2  H7  AAH d         -23.770  41.285  14.113  0.00  0.00     0.281 HD
ENDROOT
BRANCH   1   3
ATOM      3  C10 AAH d         -25.465  41.928  14.881  0.00  0.00     0.108 C 
ATOM      4  H5  AAH d         -25.183  42.766  14.227  0.00  0.00     0.083 H 
ATOM      5  H6  AAH d         -26.435  41.522  14.560  0.00  0.00     0.083 H 
BRANCH   3   6
ATOM      6  C3  AAH d         -25.626  42.469  16.301  0.00  0.00    -0.032 C 
ATOM      7  C2  AAH d         -26.933  42.626  16.836  0.00  0.00    -0.073 C 
ATOM      8  C1  AAH d         -27.083  42.966  18.185  0.00  0.00    -0.050 C 
ATOM      9  H2  AAH d         -27.804  42.484  16.206  0.00  0.00     0.084 H 
ATOM     10  C6  AAH d         -25.969  43.367  18.936  0.00  0.00     0.102 C 
ATOM     11  H1  AAH d         -28.061  42.919  18.649  0.00  0.00     0.087 H 
ATOM     12  C5  AAH d         -24.695  43.273  18.394  0.00  0.00    -0.050 C 
ATOM     13  C4  AAH d         -24.532  42.795  17.078  0.00  0.00    -0.073 C 
ATOM     14  H4  AAH d         -23.830  43.565  18.980  0.00  0.00     0.087 H 
ATOM     15  H3  AAH d         -23.534  42.682  16.671  0.00  0.00     0.084 H 
BRANCH  10  16
ATOM     16  N7  AAH d         -26.165  43.882  20.329  0.00  0.00    -0.116 N 
ATOM     17  O9  AAH d         -27.244  43.881  20.830  0.00  0.00    -0.532 OA
ATOM     18  O8  AAH d         -25.312  44.499  20.855  0.00  0.00    -0.532 OA
ENDBRANCH  10  16
ENDBRANCH   3   6
ENDBRANCH   1   3
BRANCH   1  19
ATOM     19  C17 AAH d         -23.615  40.508  15.982  0.00  0.00     0.085 C 
ATOM     20  H10 AAH d         -24.292  40.118  16.756  0.00  0.00     0.076 H 
ATOM     21  H11 AAH d         -23.125  41.422  16.349  0.00  0.00     0.076 H 
BRANCH  19  22
ATOM     22  C18 AAH d         -22.536  39.452  15.692  0.00  0.00    -0.042 C 
ATOM     23  H12 AAH d         -21.577  39.790  16.113  0.00  0.00     0.035 H 
ATOM     24  H13 AAH d         -22.435  39.328  14.604  0.00  0.00     0.035 H 
BRANCH  22  25
ATOM     25  C19 AAH d         -22.916  38.101  16.322  0.00  0.00    -0.055 C 
ATOM     26  H14 AAH d         -23.848  37.733  15.866  0.00  0.00     0.033 H 
ATOM     27  H15 AAH d         -23.063  38.229  17.405  0.00  0.00     0.033 H 
BRANCH  25  28
ATOM     28  C20 AAH d         -21.791  37.086  16.075  0.00  0.00     0.016 C 
ATOM     29  H16 AAH d         -20.869  37.437  16.561  0.00  0.00     0.049 H 
ATOM     30  H17 AAH d         -21.621  36.986  14.993  0.00  0.00     0.049 H 
BRANCH  28  31
ATOM     31  C21 AAH d         -22.182  35.736  16.651  0.00  0.00     0.172 C 
ATOM     32  O23 AAH d         -23.151  35.669  17.400  0.00  0.00    -0.648 OA
ATOM     33  O22 AAH d         -21.461  34.600  16.345  0.00  0.00    -0.648 OA
ENDBRANCH  28  31
ENDBRANCH  25  28
ENDBRANCH  22  25
ENDBRANCH  19  22
ENDBRANCH   1  19
BRANCH   1  34
ATOM     34  C12 AAH d         -24.927  39.652  13.956  0.00  0.00     0.185 C 
ATOM     35  H8  AAH d         -24.145  38.884  14.050  0.00  0.00     0.098 H 
ATOM     36  H9  AAH d         -25.015  39.958  12.903  0.00  0.00     0.098 H 
BRANCH  34  37
ATOM     37  P13 AAH d         -26.530  38.849  14.420  0.00  0.00     0.286 P 
ATOM     38  O16 AAH d         -27.550  39.612  13.731  0.00  0.00    -0.638 OA
ATOM     39  O15 AAH d         -26.833  38.875  16.007  0.00  0.00    -0.638 OA
ATOM     40  O14 AAH d         -26.592  37.351  13.975  0.00  0.00    -0.638 OA
ENDBRANCH  34  37
ENDBRANCH   1  34
TORSDOF 10
ENDMDL
