MODEL 1
REMARK VINA RESULT:      -9.3      0.000      0.000
REMARK  7 active torsions:
REMARK  status: ('A' for Active; 'I' for Inactive)
REMARK    1  A    between atoms: O2_1  and  C2_2 
REMARK    2  A    between atoms: C3_3  and  O3_4 
REMARK    3  A    between atoms: C4_5  and  O4_6 
REMARK    4  A    between atoms: C5_7  and  C6_8 
REMARK    5  A    between atoms: C6_8  and  O6_9 
REMARK    6  A    between atoms: N1_12  and  C9_14 
REMARK    7  A    between atoms: C9_14  and  C10_15 
ROOT
ATOM      1  C2  VBZ d          27.663  45.808  -0.772  0.00  0.00     0.090 C 
ATOM      2  C3  VBZ d          28.027  46.914   0.190  0.00  0.00     0.094 C 
ATOM      3  C4  VBZ d          28.090  48.193  -0.653  0.00  0.00     0.116 C 
ATOM      4  C5  VBZ d          26.780  48.260  -1.470  0.00  0.00     0.002 C 
ATOM      5  C7  VBZ d          26.831  47.222  -2.596  0.00  0.00    -0.028 C 
ATOM      6  C8  VBZ d          29.345  48.141  -1.540  0.00  0.00     0.115 C 
ATOM      7  N1  VBZ d          29.269  46.954  -2.425  0.00  0.00    -0.058 N 
ATOM      8  C1  VBZ d          27.953  46.275  -2.223  0.00  0.00     0.132 C 
ATOM      9  H2  VBZ d          26.579  45.637  -0.693  0.00  0.00     0.090 H 
ATOM     10  H3  VBZ d          27.273  47.018   0.984  0.00  0.00     0.091 H 
ATOM     11  H6  VBZ d          25.989  47.929  -0.782  0.00  0.00     0.048 H 
ATOM     12  H10 VBZ d          27.043  47.709  -3.559  0.00  0.00     0.036 H 
ATOM     13  H11 VBZ d          25.876  46.679  -2.661  0.00  0.00     0.036 H 
ATOM     14  H12 VBZ d          30.241  48.071  -0.906  0.00  0.00     0.081 H 
ATOM     15  H13 VBZ d          29.399  49.053  -2.153  0.00  0.00     0.081 H 
ATOM     16  H14 VBZ d          30.008  46.323  -2.159  0.00  0.00     0.281 HD
ATOM     17  H15 VBZ d          27.925  45.395  -2.883  0.00  0.00     0.088 H 
ENDROOT
BRANCH   7  18
ATOM     18  C9  VBZ d          29.425  47.261  -3.894  0.00  0.00     0.108 C 
ATOM     19  H16 VBZ d          28.558  47.861  -4.205  0.00  0.00     0.083 H 
ATOM     20  H17 VBZ d          29.423  46.305  -4.440  0.00  0.00     0.083 H 
BRANCH  18  21
ATOM     21  C10 VBZ d          30.682  48.020  -4.291  0.00  0.00    -0.033 A 
ATOM     22  C11 VBZ d          31.957  47.517  -4.021  0.00  0.00    -0.075 A 
ATOM     23  C12 VBZ d          33.113  48.234  -4.401  0.00  0.00    -0.082 A 
ATOM     24  H18 VBZ d          32.061  46.565  -3.512  0.00  0.00     0.084 H 
ATOM     25  C13 VBZ d          32.997  49.480  -5.036  0.00  0.00    -0.083 A 
ATOM     26  H19 VBZ d          34.094  47.820  -4.202  0.00  0.00     0.083 H 
ATOM     27  C14 VBZ d          31.725  50.004  -5.287  0.00  0.00    -0.082 A 
ATOM     28  H22 VBZ d          33.883  50.031  -5.330  0.00  0.00     0.083 H 
ATOM     29  C15 VBZ d          30.582  49.271  -4.918  0.00  0.00    -0.075 A 
ATOM     30  H21 VBZ d          31.619  50.972  -5.764  0.00  0.00     0.083 H 
ATOM     31  H20 VBZ d          29.601  49.683  -5.123  0.00  0.00     0.084 H 
ENDBRANCH  18  21
ENDBRANCH   7  18
BRANCH   3  32
ATOM     32  O4  VBZ d          28.138  49.326   0.252  0.00  0.00    -0.385 OA
ATOM     33  H5  VBZ d          28.178  50.131  -0.251  0.00  0.00     0.210 HD
ENDBRANCH   3  32
BRANCH   1  34
ATOM     34  O2  VBZ d          28.301  44.586  -0.428  0.00  0.00    -0.391 OA
ATOM     35  H1  VBZ d          29.243  44.705  -0.448  0.00  0.00     0.210 HD
ENDBRANCH   1  34
BRANCH   2  36
ATOM     36  O3  VBZ d          29.270  46.582   0.749  0.00  0.00    -0.390 OA
ATOM     37  H4  VBZ d          29.199  45.752   1.205  0.00  0.00     0.210 HD
ENDBRANCH   2  36
BRANCH   4  38
ATOM     38  C6  VBZ d          26.324  49.641  -1.950  0.00  0.00     0.023 C 
ATOM     39  H7  VBZ d          26.408  50.366  -1.127  0.00  0.00     0.074 H 
ATOM     40  H8  VBZ d          25.278  49.589  -2.287  0.00  0.00     0.074 H 
BRANCH  38  41
ATOM     41  O6  VBZ d          27.154  50.041  -3.028  0.00  0.00    -0.400 OA
ATOM     42  H9  VBZ d          26.882  50.897  -3.336  0.00  0.00     0.209 HD
ENDBRANCH  38  41
ENDBRANCH   4  38
TORSDOF 7
ENDMDL
