MODEL 1
REMARK VINA RESULT:      -9.2      0.000      0.000
REMARK  7 active torsions:
REMARK  status: ('A' for Active; 'I' for Inactive)
REMARK    1  A    between atoms: O2_1  and  C2_2 
REMARK    2  A    between atoms: C3_3  and  O3_4 
REMARK    3  A    between atoms: C4_5  and  O4_6 
REMARK    4  A    between atoms: C5_7  and  C6_8 
REMARK    5  A    between atoms: C6_8  and  O6_9 
REMARK    6  A    between atoms: N1_12  and  C9_14 
REMARK    7  A    between atoms: C9_14  and  C10_15 
ROOT
ATOM      1  C2  VBZ d          27.636  45.843  -0.743  0.00  0.00     0.090 C 
ATOM      2  C3  VBZ d          27.986  46.995   0.170  0.00  0.00     0.094 C 
ATOM      3  C4  VBZ d          28.017  48.239  -0.725  0.00  0.00     0.116 C 
ATOM      4  C5  VBZ d          26.700  48.247  -1.534  0.00  0.00     0.002 C 
ATOM      5  C7  VBZ d          26.763  47.164  -2.616  0.00  0.00    -0.028 C 
ATOM      6  C8  VBZ d          29.266  48.174  -1.620  0.00  0.00     0.115 C 
ATOM      7  N1  VBZ d          29.207  46.950  -2.455  0.00  0.00    -0.058 N 
ATOM      8  C1  VBZ d          27.906  46.255  -2.214  0.00  0.00     0.132 C 
ATOM      9  H2  VBZ d          26.556  45.654  -0.648  0.00  0.00     0.090 H 
ATOM     10  H3  VBZ d          27.236  47.117   0.965  0.00  0.00     0.091 H 
ATOM     11  H6  VBZ d          25.921  47.929  -0.826  0.00  0.00     0.048 H 
ATOM     12  H10 VBZ d          26.958  47.615  -3.600  0.00  0.00     0.036 H 
ATOM     13  H11 VBZ d          25.818  46.601  -2.651  0.00  0.00     0.036 H 
ATOM     14  H12 VBZ d          30.169  48.147  -0.991  0.00  0.00     0.081 H 
ATOM     15  H13 VBZ d          29.299  49.061  -2.270  0.00  0.00     0.081 H 
ATOM     16  H14 VBZ d          29.960  46.344  -2.169  0.00  0.00     0.281 HD
ATOM     17  H15 VBZ d          27.890  45.348  -2.837  0.00  0.00     0.088 H 
ENDROOT
BRANCH   7  18
ATOM     18  C9  VBZ d          29.346  47.199  -3.937  0.00  0.00     0.108 C 
ATOM     19  H16 VBZ d          28.482  47.798  -4.259  0.00  0.00     0.083 H 
ATOM     20  H17 VBZ d          29.325  46.223  -4.445  0.00  0.00     0.083 H 
BRANCH  18  21
ATOM     21  C10 VBZ d          30.607  47.926  -4.380  0.00  0.00    -0.033 A 
ATOM     22  C11 VBZ d          31.880  47.446  -4.059  0.00  0.00    -0.075 A 
ATOM     23  C12 VBZ d          33.039  48.132  -4.483  0.00  0.00    -0.082 A 
ATOM     24  H18 VBZ d          31.978  46.536  -3.478  0.00  0.00     0.084 H 
ATOM     25  C13 VBZ d          32.928  49.325  -5.214  0.00  0.00    -0.083 A 
ATOM     26  H19 VBZ d          34.018  47.736  -4.243  0.00  0.00     0.083 H 
ATOM     27  C14 VBZ d          31.659  49.827  -5.516  0.00  0.00    -0.082 A 
ATOM     28  H22 VBZ d          33.818  49.852  -5.541  0.00  0.00     0.083 H 
ATOM     29  C15 VBZ d          30.512  49.124  -5.102  0.00  0.00    -0.075 A 
ATOM     30  H21 VBZ d          31.558  50.755  -6.067  0.00  0.00     0.083 H 
ATOM     31  H20 VBZ d          29.533  49.518  -5.348  0.00  0.00     0.084 H 
ENDBRANCH  18  21
ENDBRANCH   7  18
BRANCH   3  32
ATOM     32  O4  VBZ d          28.051  49.409   0.132  0.00  0.00    -0.385 OA
ATOM     33  H5  VBZ d          27.194  49.819   0.141  0.00  0.00     0.210 HD
ENDBRANCH   3  32
BRANCH   1  34
ATOM     34  O2  VBZ d          28.300  44.648  -0.353  0.00  0.00    -0.391 OA
ATOM     35  H1  VBZ d          29.011  44.471  -0.959  0.00  0.00     0.210 HD
ENDBRANCH   1  34
BRANCH   2  36
ATOM     36  O3  VBZ d          29.239  46.710   0.732  0.00  0.00    -0.390 OA
ATOM     37  H4  VBZ d          29.150  46.003   1.360  0.00  0.00     0.210 HD
ENDBRANCH   2  36
BRANCH   4  38
ATOM     38  C6  VBZ d          26.214  49.598  -2.067  0.00  0.00     0.023 C 
ATOM     39  H7  VBZ d          26.003  50.274  -1.225  0.00  0.00     0.074 H 
ATOM     40  H8  VBZ d          25.299  49.454  -2.660  0.00  0.00     0.074 H 
BRANCH  38  41
ATOM     41  O6  VBZ d          27.232  50.153  -2.883  0.00  0.00    -0.400 OA
ATOM     42  H9  VBZ d          27.360  49.602  -3.646  0.00  0.00     0.209 HD
ENDBRANCH  38  41
ENDBRANCH   4  38
TORSDOF 7
ENDMDL
MODEL 2
REMARK VINA RESULT:      -6.8      1.463      3.458
REMARK  7 active torsions:
REMARK  status: ('A' for Active; 'I' for Inactive)
REMARK    1  A    between atoms: O2_1  and  C2_2 
REMARK    2  A    between atoms: C3_3  and  O3_4 
REMARK    3  A    between atoms: C4_5  and  O4_6 
REMARK    4  A    between atoms: C5_7  and  C6_8 
REMARK    5  A    between atoms: C6_8  and  O6_9 
REMARK    6  A    between atoms: N1_12  and  C9_14 
REMARK    7  A    between atoms: C9_14  and  C10_15 
ROOT
ATOM      1  C2  VBZ d          27.316  49.295  -1.999  0.00  0.00     0.090 C 
ATOM      2  C3  VBZ d          26.234  48.263  -2.218  0.00  0.00     0.094 C 
ATOM      3  C4  VBZ d          26.877  46.911  -1.888  0.00  0.00     0.116 C 
ATOM      4  C5  VBZ d          27.556  47.059  -0.507  0.00  0.00     0.002 C 
ATOM      5  C7  VBZ d          28.825  47.905  -0.654  0.00  0.00    -0.028 C 
ATOM      6  C8  VBZ d          27.869  46.548  -3.005  0.00  0.00     0.115 C 
ATOM      7  N1  VBZ d          28.913  47.598  -3.092  0.00  0.00    -0.058 N 
ATOM      8  C1  VBZ d          28.700  48.593  -1.998  0.00  0.00     0.132 C 
ATOM      9  H2  VBZ d          27.168  49.730  -0.999  0.00  0.00     0.090 H 
ATOM     10  H3  VBZ d          25.370  48.445  -1.562  0.00  0.00     0.091 H 
ATOM     11  H6  VBZ d          26.858  47.655   0.099  0.00  0.00     0.048 H 
ATOM     12  H10 VBZ d          29.718  47.264  -0.633  0.00  0.00     0.036 H 
ATOM     13  H11 VBZ d          28.887  48.649   0.154  0.00  0.00     0.036 H 
ATOM     14  H12 VBZ d          27.335  46.480  -3.964  0.00  0.00     0.081 H 
ATOM     15  H13 VBZ d          28.340  45.580  -2.778  0.00  0.00     0.081 H 
ATOM     16  H14 VBZ d          28.811  48.061  -3.981  0.00  0.00     0.281 HD
ATOM     17  H15 VBZ d          29.479  49.364  -2.089  0.00  0.00     0.088 H 
ENDROOT
BRANCH   7  18
ATOM     18  C9  VBZ d          30.327  47.080  -2.995  0.00  0.00     0.108 C 
ATOM     19  H16 VBZ d          30.278  46.026  -2.687  0.00  0.00     0.083 H 
ATOM     20  H17 VBZ d          30.847  47.665  -2.221  0.00  0.00     0.083 H 
BRANCH  18  21
ATOM     21  C10 VBZ d          31.157  47.154  -4.269  0.00  0.00    -0.033 A 
ATOM     22  C11 VBZ d          30.774  46.482  -5.432  0.00  0.00    -0.075 A 
ATOM     23  C12 VBZ d          31.555  46.567  -6.606  0.00  0.00    -0.082 A 
ATOM     24  H18 VBZ d          29.867  45.888  -5.434  0.00  0.00     0.084 H 
ATOM     25  C13 VBZ d          32.745  47.309  -6.613  0.00  0.00    -0.083 A 
ATOM     26  H19 VBZ d          31.233  46.055  -7.506  0.00  0.00     0.083 H 
ATOM     27  C14 VBZ d          33.150  47.962  -5.445  0.00  0.00    -0.082 A 
ATOM     28  H22 VBZ d          33.345  47.375  -7.514  0.00  0.00     0.083 H 
ATOM     29  C15 VBZ d          32.354  47.884  -4.288  0.00  0.00    -0.075 A 
ATOM     30  H21 VBZ d          34.075  48.528  -5.432  0.00  0.00     0.083 H 
ATOM     31  H20 VBZ d          32.674  48.400  -3.390  0.00  0.00     0.084 H 
ENDBRANCH  18  21
ENDBRANCH   7  18
BRANCH   3  32
ATOM     32  O4  VBZ d          25.819  45.923  -1.789  0.00  0.00    -0.385 OA
ATOM     33  H5  VBZ d          25.787  45.413  -2.591  0.00  0.00     0.210 HD
ENDBRANCH   3  32
BRANCH   1  34
ATOM     34  O2  VBZ d          27.217  50.361  -2.933  0.00  0.00    -0.391 OA
ATOM     35  H1  VBZ d          27.679  50.126  -3.730  0.00  0.00     0.210 HD
ENDBRANCH   1  34
BRANCH   2  36
ATOM     36  O3  VBZ d          25.843  48.354  -3.562  0.00  0.00    -0.390 OA
ATOM     37  H4  VBZ d          26.329  49.052  -3.986  0.00  0.00     0.210 HD
ENDBRANCH   2  36
BRANCH   4  38
ATOM     38  C6  VBZ d          27.780  45.780   0.303  0.00  0.00     0.023 C 
ATOM     39  H7  VBZ d          26.837  45.472   0.780  0.00  0.00     0.074 H 
ATOM     40  H8  VBZ d          28.540  45.960   1.078  0.00  0.00     0.074 H 
BRANCH  38  41
ATOM     41  O6  VBZ d          28.226  44.761  -0.577  0.00  0.00    -0.400 OA
ATOM     42  H9  VBZ d          29.053  45.020  -0.966  0.00  0.00     0.209 HD
ENDBRANCH  38  41
ENDBRANCH   4  38
TORSDOF 7
ENDMDL
