REMARK  15 active torsions:
REMARK  status: ('A' for Active; 'I' for Inactive)
REMARK    1  A    between atoms: C27_27  and  C15_15 
REMARK    2  A    between atoms: C16_16  and  C28_28 
REMARK    3  A    between atoms: C35_35  and  C17_17 
REMARK    4  A    between atoms: C35_35  and  C18_18 
REMARK    5  A    between atoms: C19_19  and  C32_32 
REMARK    6  A    between atoms: C33_33  and  C20_20 
REMARK    7  A    between atoms: C23_23  and  O43_43 
REMARK    8  A    between atoms: C24_24  and  O44_44 
REMARK    9  A    between atoms: C34_34  and  C26_26 
REMARK       I    between atoms: N36_36  and  C27_27 
REMARK   10  A    between atoms: O43_43  and  C30_30 
REMARK   11  A    between atoms: O44_44  and  C31_31 
REMARK   12  A    between atoms: C32_32  and  N37_37 
REMARK   13  A    between atoms: N37_37  and  C33_33 
REMARK   14  A    between atoms: N37_37  and  C34_34 
REMARK   15  A    between atoms: C35_35  and  N36_36 
ROOT
ATOM      1  C1  O2N d         -11.198  48.636   5.765  0.00  0.00    -0.082 A 
ATOM      2  C2  O2N d         -12.167  49.352   5.098  0.00  0.00    -0.082 A 
ATOM      3  C3  O2N d         -10.134  48.143   5.020  0.00  0.00    -0.067 A 
ATOM      4  C4  O2N d         -12.097  49.593   3.735  0.00  0.00    -0.074 A 
ATOM      5  C15 O2N d         -10.047  48.370   3.658  0.00  0.00     0.040 A 
ATOM      6  C19 O2N d         -11.035  49.102   3.001  0.00  0.00    -0.017 A 
ATOM      7  H1  O2N d         -11.263  48.463   6.833  0.00  0.00     0.083 H 
ATOM      8  H2  O2N d         -13.011  49.739   5.657  0.00  0.00     0.083 H 
ATOM      9  H3  O2N d          -9.358  47.570   5.515  0.00  0.00     0.085 H 
ATOM     10  H4  O2N d         -12.876  50.167   3.245  0.00  0.00     0.084 H 
ENDROOT
BRANCH   5  11
ATOM     11  C27 O2N d          -8.876  47.847   2.921  0.00  0.00     0.253 C 
ATOM     12  N36 O2N d          -8.554  46.498   3.073  0.00  0.00    -0.344 N 
ATOM     13  H33 O2N d          -9.098  45.939   3.699  0.00  0.00     0.163 HD
ATOM     14  O39 O2N d          -8.234  48.643   2.230  0.00  0.00    -0.268 OA
BRANCH  12  15
ATOM     15  C35 O2N d          -7.456  45.879   2.354  0.00  0.00     0.063 C 
ATOM     16  H32 O2N d          -6.874  46.672   1.861  0.00  0.00     0.088 H 
BRANCH  15  17
ATOM     17  C17 O2N d          -8.028  44.989   1.236  0.00  0.00    -0.031 A 
ATOM     18  C6  O2N d          -7.511  45.057  -0.052  0.00  0.00    -0.072 A 
ATOM     19  C11 O2N d          -8.019  44.279  -1.100  0.00  0.00    -0.050 A 
ATOM     20  H6  O2N d          -6.688  45.734  -0.252  0.00  0.00     0.084 H 
ATOM     21  C23 O2N d          -9.062  43.371  -0.784  0.00  0.00     0.068 A 
ATOM     22  H11 O2N d          -7.632  44.367  -2.109  0.00  0.00     0.087 H 
ATOM     23  C12 O2N d          -9.630  43.303   0.478  0.00  0.00    -0.050 A 
ATOM     24  C7  O2N d          -9.086  44.128   1.474  0.00  0.00    -0.072 A 
ATOM     25  H12 O2N d         -10.461  42.639   0.687  0.00  0.00     0.087 H 
ATOM     26  H7  O2N d          -9.511  44.090   2.470  0.00  0.00     0.084 H 
BRANCH  21  27
ATOM     27  O43 O2N d          -9.561  42.589  -1.839  0.00  0.00    -0.356 OA
BRANCH  27  28
ATOM     28  C30 O2N d         -10.094  41.273  -1.577  0.00  0.00     0.010 C 
ATOM     29  H20 O2N d         -10.433  40.820  -2.520  0.00  0.00     0.066 H 
ATOM     30  H21 O2N d         -10.943  41.353  -0.883  0.00  0.00     0.066 H 
ATOM     31  H22 O2N d          -9.312  40.643  -1.128  0.00  0.00     0.066 H 
ENDBRANCH  27  28
ENDBRANCH  21  27
ENDBRANCH  15  17
BRANCH  15  32
ATOM     32  C18 O2N d          -6.524  45.211   3.362  0.00  0.00    -0.031 A 
ATOM     33  C8  O2N d          -5.245  45.740   3.485  0.00  0.00    -0.072 A 
ATOM     34  C13 O2N d          -4.369  45.191   4.419  0.00  0.00    -0.050 A 
ATOM     35  H8  O2N d          -4.933  46.570   2.862  0.00  0.00     0.084 H 
ATOM     36  C24 O2N d          -4.734  44.116   5.222  0.00  0.00     0.068 A 
ATOM     37  H13 O2N d          -3.376  45.613   4.522  0.00  0.00     0.087 H 
ATOM     38  C14 O2N d          -5.990  43.546   5.138  0.00  0.00    -0.050 A 
ATOM     39  C9  O2N d          -6.862  44.158   4.205  0.00  0.00    -0.072 A 
ATOM     40  H14 O2N d          -6.285  42.695   5.741  0.00  0.00     0.087 H 
ATOM     41  H9  O2N d          -7.874  43.775   4.143  0.00  0.00     0.084 H 
BRANCH  36  42
ATOM     42  O44 O2N d          -3.748  43.655   6.094  0.00  0.00    -0.356 OA
BRANCH  42  43
ATOM     43  C31 O2N d          -4.295  42.945   7.205  0.00  0.00     0.010 C 
ATOM     44  H23 O2N d          -3.479  42.604   7.860  0.00  0.00     0.066 H 
ATOM     45  H24 O2N d          -4.861  42.075   6.841  0.00  0.00     0.066 H 
ATOM     46  H25 O2N d          -4.966  43.609   7.770  0.00  0.00     0.066 H 
ENDBRANCH  42  43
ENDBRANCH  36  42
ENDBRANCH  15  32
ENDBRANCH  12  15
ENDBRANCH   5  11
BRANCH   6  47
ATOM     47  C32 O2N d         -10.989  49.402   1.539  0.00  0.00     0.109 C 
ATOM     48  H26 O2N d          -9.936  49.382   1.221  0.00  0.00     0.083 H 
ATOM     49  H27 O2N d         -11.399  50.411   1.386  0.00  0.00     0.083 H 
BRANCH  47  50
ATOM     50  N37 O2N d         -11.766  48.441   0.652  0.00  0.00    -0.060 N 
ATOM     51  H34 O2N d         -12.697  48.385   1.035  0.00  0.00     0.281 HD
BRANCH  50  52
ATOM     52  C33 O2N d         -11.237  46.969   0.581  0.00  0.00     0.109 C 
ATOM     53  H28 O2N d         -10.166  46.973   0.328  0.00  0.00     0.083 H 
ATOM     54  H29 O2N d         -11.382  46.477   1.554  0.00  0.00     0.083 H 
BRANCH  52  55
ATOM     55  C20 O2N d         -12.013  46.219  -0.492  0.00  0.00    -0.013 A 
ATOM     56  C5  O2N d         -11.433  45.761  -1.708  0.00  0.00    -0.071 A 
ATOM     57  C10 O2N d         -12.182  45.044  -2.695  0.00  0.00    -0.047 A 
ATOM     58  H5  O2N d         -10.384  45.963  -1.894  0.00  0.00     0.084 H 
ATOM     59  C21 O2N d         -13.513  44.860  -2.408  0.00  0.00     0.106 A 
ATOM     60  H10 O2N d         -11.730  44.672  -3.607  0.00  0.00     0.087 H 
ATOM     61  C22 O2N d         -14.081  45.291  -1.222  0.00  0.00     0.122 A 
ATOM     62  O41 O2N d         -14.435  44.230  -3.187  0.00  0.00    -0.323 OA
ATOM     63  C16 O2N d         -13.377  45.981  -0.234  0.00  0.00     0.085 A 
ATOM     64  O42 O2N d         -15.447  44.991  -1.143  0.00  0.00    -0.322 OA
ATOM     65  C29 O2N d         -15.626  44.265  -2.377  0.00  0.00     0.115 A 
ATOM     66  H18 O2N d         -15.917  43.232  -2.137  0.00  0.00     0.118 H 
ATOM     67  H19 O2N d         -16.429  44.747  -2.954  0.00  0.00     0.118 H 
BRANCH  63  68
ATOM     68  C28 O2N d         -14.103  46.347   1.041  0.00  0.00     0.212 C 
ATOM     69  O38 O2N d         -14.921  45.465   1.458  0.00  0.00    -0.644 OA
ATOM     70  O40 O2N d         -13.856  47.366   1.763  0.00  0.00    -0.644 OA
ENDBRANCH  63  68
ENDBRANCH  52  55
ENDBRANCH  50  52
BRANCH  50  71
ATOM     71  C34 O2N d         -11.872  49.040  -0.717  0.00  0.00     0.099 C 
ATOM     72  H30 O2N d         -12.520  48.383  -1.315  0.00  0.00     0.082 H 
ATOM     73  H31 O2N d         -12.348  50.026  -0.610  0.00  0.00     0.082 H 
BRANCH  71  74
ATOM     74  C26 O2N d         -10.595  49.237  -1.487  0.00  0.00    -0.087 C 
ATOM     75  C25 O2N d         -10.188  50.469  -1.841  0.00  0.00    -0.123 C 
ATOM     76  H15 O2N d          -9.261  50.597  -2.398  0.00  0.00     0.066 H 
ATOM     77  H16 O2N d         -10.785  51.339  -1.570  0.00  0.00     0.066 H 
ATOM     78  H17 O2N d          -9.993  48.372  -1.761  0.00  0.00     0.078 H 
ENDBRANCH  71  74
ENDBRANCH  50  71
ENDBRANCH  47  50
ENDBRANCH   6  47
TORSDOF 15
