MODEL 1
REMARK VINA RESULT:      -7.7      0.000      0.000
REMARK  15 active torsions:
REMARK  status: ('A' for Active; 'I' for Inactive)
REMARK    1  A    between atoms: C27_27  and  C15_15 
REMARK    2  A    between atoms: C16_16  and  C28_28 
REMARK    3  A    between atoms: C35_35  and  C17_17 
REMARK    4  A    between atoms: C35_35  and  C18_18 
REMARK    5  A    between atoms: C19_19  and  C32_32 
REMARK    6  A    between atoms: C33_33  and  C20_20 
REMARK    7  A    between atoms: C23_23  and  O43_43 
REMARK    8  A    between atoms: C24_24  and  O44_44 
REMARK    9  A    between atoms: C34_34  and  C26_26 
REMARK       I    between atoms: N36_36  and  C27_27 
REMARK   10  A    between atoms: O43_43  and  C30_30 
REMARK   11  A    between atoms: O44_44  and  C31_31 
REMARK   12  A    between atoms: C32_32  and  N37_37 
REMARK   13  A    between atoms: N37_37  and  C33_33 
REMARK   14  A    between atoms: N37_37  and  C34_34 
REMARK   15  A    between atoms: C35_35  and  N36_36 
ROOT
ATOM      1  C1  O2N d          -8.796  40.577   0.295  0.00  0.00    -0.082 A 
ATOM      2  C2  O2N d          -9.579  40.760  -0.822  0.00  0.00    -0.082 A 
ATOM      3  C3  O2N d          -8.126  41.684   0.802  0.00  0.00    -0.067 A 
ATOM      4  C4  O2N d          -9.717  41.998  -1.429  0.00  0.00    -0.074 A 
ATOM      5  C15 O2N d          -8.248  42.928   0.209  0.00  0.00     0.040 A 
ATOM      6  C19 O2N d          -9.050  43.095  -0.919  0.00  0.00    -0.017 A 
ATOM      7  H1  O2N d          -8.704  39.603   0.763  0.00  0.00     0.083 H 
ATOM      8  H2  O2N d         -10.104  39.909  -1.240  0.00  0.00     0.083 H 
ATOM      9  H3  O2N d          -7.497  41.570   1.677  0.00  0.00     0.085 H 
ATOM     10  H4  O2N d         -10.348  42.106  -2.305  0.00  0.00     0.084 H 
ENDROOT
BRANCH   5  11
ATOM     11  C27 O2N d          -7.536  44.077   0.809  0.00  0.00     0.253 C 
ATOM     12  N36 O2N d          -8.287  45.194   1.177  0.00  0.00    -0.344 N 
ATOM     13  H33 O2N d          -9.269  45.199   0.991  0.00  0.00     0.163 HD
ATOM     14  O39 O2N d          -6.311  43.990   0.929  0.00  0.00    -0.268 OA
BRANCH  12  15
ATOM     15  C35 O2N d          -7.689  46.350   1.819  0.00  0.00     0.063 C 
ATOM     16  H32 O2N d          -6.932  45.996   2.535  0.00  0.00     0.088 H 
BRANCH  15  17
ATOM     17  C17 O2N d          -8.767  47.081   2.639  0.00  0.00    -0.031 A 
ATOM     18  C6  O2N d          -8.413  47.850   3.741  0.00  0.00    -0.072 A 
ATOM     19  C11 O2N d          -9.367  48.512   4.524  0.00  0.00    -0.050 A 
ATOM     20  H6  O2N d          -7.365  47.941   4.002  0.00  0.00     0.084 H 
ATOM     21  C23 O2N d         -10.722  48.407   4.118  0.00  0.00     0.068 A 
ATOM     22  H11 O2N d          -9.082  49.079   5.403  0.00  0.00     0.087 H 
ATOM     23  C12 O2N d         -11.118  47.618   3.050  0.00  0.00    -0.050 A 
ATOM     24  C7  O2N d         -10.111  46.965   2.324  0.00  0.00    -0.072 A 
ATOM     25  H12 O2N d         -12.164  47.509   2.787  0.00  0.00     0.087 H 
ATOM     26  H7  O2N d         -10.395  46.345   1.482  0.00  0.00     0.084 H 
BRANCH  21  27
ATOM     27  O43 O2N d         -11.672  49.079   4.905  0.00  0.00    -0.356 OA
BRANCH  27  28
ATOM     28  C30 O2N d         -11.710  48.871   6.333  0.00  0.00     0.010 C 
ATOM     29  H20 O2N d         -12.432  49.565   6.786  0.00  0.00     0.066 H 
ATOM     30  H21 O2N d         -10.711  49.052   6.756  0.00  0.00     0.066 H 
ATOM     31  H22 O2N d         -12.015  47.835   6.544  0.00  0.00     0.066 H 
ENDBRANCH  27  28
ENDBRANCH  21  27
ENDBRANCH  15  17
BRANCH  15  32
ATOM     32  C18 O2N d          -6.949  47.169   0.764  0.00  0.00    -0.031 A 
ATOM     33  C8  O2N d          -7.698  47.646  -0.304  0.00  0.00    -0.072 A 
ATOM     34  C13 O2N d          -7.077  48.432  -1.273  0.00  0.00    -0.050 A 
ATOM     35  H8  O2N d          -8.753  47.410  -0.383  0.00  0.00     0.084 H 
ATOM     36  C24 O2N d          -5.722  48.739  -1.209  0.00  0.00     0.068 A 
ATOM     37  H13 O2N d          -7.666  48.813  -2.099  0.00  0.00     0.087 H 
ATOM     38  C14 O2N d          -4.928  48.287  -0.173  0.00  0.00    -0.050 A 
ATOM     39  C9  O2N d          -5.605  47.525   0.810  0.00  0.00    -0.072 A 
ATOM     40  H14 O2N d          -3.866  48.499  -0.118  0.00  0.00     0.087 H 
ATOM     41  H9  O2N d          -5.030  47.193   1.667  0.00  0.00     0.084 H 
BRANCH  36  42
ATOM     42  O44 O2N d          -5.231  49.514  -2.260  0.00  0.00    -0.356 OA
BRANCH  42  43
ATOM     43  C31 O2N d          -5.617  50.884  -2.150  0.00  0.00     0.010 C 
ATOM     44  H23 O2N d          -5.448  51.391  -3.112  0.00  0.00     0.066 H 
ATOM     45  H24 O2N d          -5.017  51.372  -1.368  0.00  0.00     0.066 H 
ATOM     46  H25 O2N d          -6.683  50.944  -1.886  0.00  0.00     0.066 H 
ENDBRANCH  42  43
ENDBRANCH  36  42
ENDBRANCH  15  32
ENDBRANCH  12  15
ENDBRANCH   5  11
BRANCH   6  47
ATOM     47  C32 O2N d          -9.243  44.414  -1.592  0.00  0.00     0.109 C 
ATOM     48  H26 O2N d          -8.749  44.370  -2.574  0.00  0.00     0.083 H 
ATOM     49  H27 O2N d          -8.761  45.185  -0.973  0.00  0.00     0.083 H 
BRANCH  47  50
ATOM     50  N37 O2N d         -10.690  44.828  -1.813  0.00  0.00    -0.060 N 
ATOM     51  H34 O2N d         -10.668  45.668  -2.369  0.00  0.00     0.281 HD
BRANCH  50  52
ATOM     52  C33 O2N d         -11.522  45.178  -0.533  0.00  0.00     0.109 C 
ATOM     53  H28 O2N d         -12.462  44.605  -0.535  0.00  0.00     0.083 H 
ATOM     54  H29 O2N d         -10.941  44.925   0.366  0.00  0.00     0.083 H 
BRANCH  52  55
ATOM     55  C20 O2N d         -11.831  46.668  -0.540  0.00  0.00    -0.013 A 
ATOM     56  C5  O2N d         -10.931  47.656  -1.027  0.00  0.00    -0.071 A 
ATOM     57  C10 O2N d         -11.252  49.051  -1.036  0.00  0.00    -0.047 A 
ATOM     58  H5  O2N d          -9.965  47.341  -1.404  0.00  0.00     0.084 H 
ATOM     59  C21 O2N d         -12.477  49.379  -0.506  0.00  0.00     0.106 A 
ATOM     60  H10 O2N d         -10.575  49.798  -1.433  0.00  0.00     0.087 H 
ATOM     61  C22 O2N d         -13.363  48.422  -0.043  0.00  0.00     0.122 A 
ATOM     62  O41 O2N d         -13.005  50.628  -0.385  0.00  0.00    -0.323 OA
ATOM     63  C16 O2N d         -13.087  47.054  -0.032  0.00  0.00     0.085 A 
ATOM     64  O42 O2N d         -14.550  48.984   0.446  0.00  0.00    -0.322 OA
ATOM     65  C29 O2N d         -14.315  50.378   0.159  0.00  0.00     0.115 A 
ATOM     66  H18 O2N d         -15.067  50.717  -0.569  0.00  0.00     0.118 H 
ATOM     67  H19 O2N d         -14.424  50.951   1.092  0.00  0.00     0.118 H 
BRANCH  63  68
ATOM     68  C28 O2N d         -14.164  46.109   0.450  0.00  0.00     0.212 C 
ATOM     69  O38 O2N d         -14.903  45.633  -0.472  0.00  0.00    -0.644 OA
ATOM     70  O40 O2N d         -14.283  45.670   1.639  0.00  0.00    -0.644 OA
ENDBRANCH  63  68
ENDBRANCH  52  55
ENDBRANCH  50  52
BRANCH  50  71
ATOM     71  C34 O2N d         -11.369  43.764  -2.620  0.00  0.00     0.099 C 
ATOM     72  H30 O2N d         -11.164  43.974  -3.680  0.00  0.00     0.082 H 
ATOM     73  H31 O2N d         -10.918  42.800  -2.343  0.00  0.00     0.082 H 
BRANCH  71  74
ATOM     74  C26 O2N d         -12.859  43.625  -2.468  0.00  0.00    -0.087 C 
ATOM     75  C25 O2N d         -13.699  44.345  -3.232  0.00  0.00    -0.123 C 
ATOM     76  H15 O2N d         -14.776  44.234  -3.112  0.00  0.00     0.066 H 
ATOM     77  H16 O2N d         -13.303  45.039  -3.973  0.00  0.00     0.066 H 
ATOM     78  H17 O2N d         -13.262  42.933  -1.730  0.00  0.00     0.078 H 
ENDBRANCH  71  74
ENDBRANCH  50  71
ENDBRANCH  47  50
ENDBRANCH   6  47
TORSDOF 15
ENDMDL
MODEL 2
REMARK VINA RESULT:      -7.1      1.927      2.981
REMARK  15 active torsions:
REMARK  status: ('A' for Active; 'I' for Inactive)
REMARK    1  A    between atoms: C27_27  and  C15_15 
REMARK    2  A    between atoms: C16_16  and  C28_28 
REMARK    3  A    between atoms: C35_35  and  C17_17 
REMARK    4  A    between atoms: C35_35  and  C18_18 
REMARK    5  A    between atoms: C19_19  and  C32_32 
REMARK    6  A    between atoms: C33_33  and  C20_20 
REMARK    7  A    between atoms: C23_23  and  O43_43 
REMARK    8  A    between atoms: C24_24  and  O44_44 
REMARK    9  A    between atoms: C34_34  and  C26_26 
REMARK       I    between atoms: N36_36  and  C27_27 
REMARK   10  A    between atoms: O43_43  and  C30_30 
REMARK   11  A    between atoms: O44_44  and  C31_31 
REMARK   12  A    between atoms: C32_32  and  N37_37 
REMARK   13  A    between atoms: N37_37  and  C33_33 
REMARK   14  A    between atoms: N37_37  and  C34_34 
REMARK   15  A    between atoms: C35_35  and  N36_36 
ROOT
ATOM      1  C1  O2N d          -5.861  43.068   2.557  0.00  0.00    -0.082 A 
ATOM      2  C2  O2N d          -6.554  42.428   1.554  0.00  0.00    -0.082 A 
ATOM      3  C3  O2N d          -5.856  44.458   2.551  0.00  0.00    -0.067 A 
ATOM      4  C4  O2N d          -7.238  43.126   0.570  0.00  0.00    -0.074 A 
ATOM      5  C15 O2N d          -6.529  45.173   1.576  0.00  0.00     0.040 A 
ATOM      6  C19 O2N d          -7.230  44.507   0.572  0.00  0.00    -0.017 A 
ATOM      7  H1  O2N d          -5.339  42.508   3.324  0.00  0.00     0.083 H 
ATOM      8  H2  O2N d          -6.565  41.345   1.533  0.00  0.00     0.083 H 
ATOM      9  H3  O2N d          -5.314  44.991   3.324  0.00  0.00     0.085 H 
ATOM     10  H4  O2N d          -7.778  42.587  -0.201  0.00  0.00     0.084 H 
ENDROOT
BRANCH   5  11
ATOM     11  C27 O2N d          -6.514  46.650   1.637  0.00  0.00     0.253 C 
ATOM     12  N36 O2N d          -7.627  47.296   2.175  0.00  0.00    -0.344 N 
ATOM     13  H33 O2N d          -8.411  46.747   2.467  0.00  0.00     0.163 HD
ATOM     14  O39 O2N d          -5.523  47.231   1.185  0.00  0.00    -0.268 OA
BRANCH  12  15
ATOM     15  C35 O2N d          -7.688  48.739   2.325  0.00  0.00     0.063 C 
ATOM     16  H32 O2N d          -6.702  49.093   2.661  0.00  0.00     0.088 H 
BRANCH  15  17
ATOM     17  C17 O2N d          -8.688  49.085   3.442  0.00  0.00    -0.031 A 
ATOM     18  C6  O2N d          -9.350  50.306   3.441  0.00  0.00    -0.072 A 
ATOM     19  C11 O2N d         -10.251  50.666   4.452  0.00  0.00    -0.050 A 
ATOM     20  H6  O2N d          -9.163  51.004   2.632  0.00  0.00     0.084 H 
ATOM     21  C23 O2N d         -10.504  49.705   5.464  0.00  0.00     0.068 A 
ATOM     22  H11 O2N d         -10.734  51.636   4.460  0.00  0.00     0.087 H 
ATOM     23  C12 O2N d          -9.834  48.493   5.521  0.00  0.00    -0.050 A 
ATOM     24  C7  O2N d          -8.929  48.209   4.488  0.00  0.00    -0.072 A 
ATOM     25  H12 O2N d         -10.004  47.793   6.331  0.00  0.00     0.087 H 
ATOM     26  H7  O2N d          -8.396  47.266   4.508  0.00  0.00     0.084 H 
BRANCH  21  27
ATOM     27  O43 O2N d         -11.414  50.070   6.469  0.00  0.00    -0.356 OA
BRANCH  27  28
ATOM     28  C30 O2N d         -12.789  49.636   6.395  0.00  0.00     0.010 C 
ATOM     29  H20 O2N d         -12.840  48.548   6.546  0.00  0.00     0.066 H 
ATOM     30  H21 O2N d         -13.200  49.888   5.407  0.00  0.00     0.066 H 
ATOM     31  H22 O2N d         -13.377  50.142   7.175  0.00  0.00     0.066 H 
ENDBRANCH  27  28
ENDBRANCH  21  27
ENDBRANCH  15  17
BRANCH  15  32
ATOM     32  C18 O2N d          -7.936  49.364   0.955  0.00  0.00    -0.031 A 
ATOM     33  C8  O2N d          -7.070  50.375   0.556  0.00  0.00    -0.072 A 
ATOM     34  C13 O2N d          -7.230  50.951  -0.702  0.00  0.00    -0.050 A 
ATOM     35  H8  O2N d          -6.278  50.710   1.216  0.00  0.00     0.084 H 
ATOM     36  C24 O2N d          -8.246  50.554  -1.565  0.00  0.00     0.068 A 
ATOM     37  H13 O2N d          -6.546  51.731  -1.016  0.00  0.00     0.087 H 
ATOM     38  C14 O2N d          -9.140  49.559  -1.219  0.00  0.00    -0.050 A 
ATOM     39  C9  O2N d          -8.918  48.973   0.051  0.00  0.00    -0.072 A 
ATOM     40  H14 O2N d          -9.949  49.251  -1.871  0.00  0.00     0.087 H 
ATOM     41  H9  O2N d          -9.565  48.153   0.341  0.00  0.00     0.084 H 
BRANCH  36  42
ATOM     42  O44 O2N d          -8.301  51.235  -2.781  0.00  0.00    -0.356 OA
BRANCH  42  43
ATOM     43  C31 O2N d          -9.602  51.194  -3.367  0.00  0.00     0.010 C 
ATOM     44  H23 O2N d          -9.550  51.565  -4.402  0.00  0.00     0.066 H 
ATOM     45  H24 O2N d         -10.286  51.828  -2.785  0.00  0.00     0.066 H 
ATOM     46  H25 O2N d          -9.972  50.158  -3.367  0.00  0.00     0.066 H 
ENDBRANCH  42  43
ENDBRANCH  36  42
ENDBRANCH  15  32
ENDBRANCH  12  15
ENDBRANCH   5  11
BRANCH   6  47
ATOM     47  C32 O2N d          -7.995  45.218  -0.495  0.00  0.00     0.109 C 
ATOM     48  H26 O2N d          -7.383  45.221  -1.409  0.00  0.00     0.083 H 
ATOM     49  H27 O2N d          -8.161  46.253  -0.162  0.00  0.00     0.083 H 
BRANCH  47  50
ATOM     50  N37 O2N d          -9.349  44.615  -0.838  0.00  0.00    -0.060 N 
ATOM     51  H34 O2N d          -9.841  45.304  -1.386  0.00  0.00     0.281 HD
BRANCH  50  52
ATOM     52  C33 O2N d         -10.287  44.267   0.366  0.00  0.00     0.109 C 
ATOM     53  H28 O2N d         -10.960  43.443   0.085  0.00  0.00     0.083 H 
ATOM     54  H29 O2N d          -9.680  43.966   1.233  0.00  0.00     0.083 H 
BRANCH  52  55
ATOM     55  C20 O2N d         -11.108  45.499   0.721  0.00  0.00    -0.013 A 
ATOM     56  C5  O2N d         -10.845  46.322   1.852  0.00  0.00    -0.071 A 
ATOM     57  C10 O2N d         -11.624  47.484   2.155  0.00  0.00    -0.047 A 
ATOM     58  H5  O2N d         -10.024  46.058   2.509  0.00  0.00     0.084 H 
ATOM     59  C21 O2N d         -12.670  47.733   1.300  0.00  0.00     0.106 A 
ATOM     60  H10 O2N d         -11.403  48.124   3.001  0.00  0.00     0.087 H 
ATOM     61  C22 O2N d         -12.924  46.945   0.191  0.00  0.00     0.122 A 
ATOM     62  O41 O2N d         -13.563  48.758   1.382  0.00  0.00    -0.323 OA
ATOM     63  C16 O2N d         -12.178  45.814  -0.140  0.00  0.00     0.085 A 
ATOM     64  O42 O2N d         -14.035  47.389  -0.537  0.00  0.00    -0.322 OA
ATOM     65  C29 O2N d         -14.379  48.575   0.209  0.00  0.00     0.115 A 
ATOM     66  H18 O2N d         -14.254  49.450  -0.445  0.00  0.00     0.118 H 
ATOM     67  H19 O2N d         -15.431  48.499   0.522  0.00  0.00     0.118 H 
BRANCH  63  68
ATOM     68  C28 O2N d         -12.525  45.072  -1.411  0.00  0.00     0.212 C 
ATOM     69  O38 O2N d         -13.470  44.227  -1.291  0.00  0.00    -0.644 OA
ATOM     70  O40 O2N d         -12.053  45.327  -2.565  0.00  0.00    -0.644 OA
ENDBRANCH  63  68
ENDBRANCH  52  55
ENDBRANCH  50  52
BRANCH  50  71
ATOM     71  C34 O2N d          -9.126  43.416  -1.708  0.00  0.00     0.099 C 
ATOM     72  H30 O2N d          -9.064  43.769  -2.747  0.00  0.00     0.082 H 
ATOM     73  H31 O2N d          -8.165  42.969  -1.415  0.00  0.00     0.082 H 
BRANCH  71  74
ATOM     74  C26 O2N d         -10.162  42.326  -1.663  0.00  0.00    -0.087 C 
ATOM     75  C25 O2N d          -9.834  41.079  -1.280  0.00  0.00    -0.123 C 
ATOM     76  H15 O2N d         -10.594  40.300  -1.252  0.00  0.00     0.066 H 
ATOM     77  H16 O2N d          -8.807  40.849  -0.997  0.00  0.00     0.066 H 
ATOM     78  H17 O2N d         -11.190  42.549  -1.944  0.00  0.00     0.078 H 
ENDBRANCH  71  74
ENDBRANCH  50  71
ENDBRANCH  47  50
ENDBRANCH   6  47
TORSDOF 15
ENDMDL
MODEL 3
REMARK VINA RESULT:      -6.5      2.470      4.889
REMARK  15 active torsions:
REMARK  status: ('A' for Active; 'I' for Inactive)
REMARK    1  A    between atoms: C27_27  and  C15_15 
REMARK    2  A    between atoms: C16_16  and  C28_28 
REMARK    3  A    between atoms: C35_35  and  C17_17 
REMARK    4  A    between atoms: C35_35  and  C18_18 
REMARK    5  A    between atoms: C19_19  and  C32_32 
REMARK    6  A    between atoms: C33_33  and  C20_20 
REMARK    7  A    between atoms: C23_23  and  O43_43 
REMARK    8  A    between atoms: C24_24  and  O44_44 
REMARK    9  A    between atoms: C34_34  and  C26_26 
REMARK       I    between atoms: N36_36  and  C27_27 
REMARK   10  A    between atoms: O43_43  and  C30_30 
REMARK   11  A    between atoms: O44_44  and  C31_31 
REMARK   12  A    between atoms: C32_32  and  N37_37 
REMARK   13  A    between atoms: N37_37  and  C33_33 
REMARK   14  A    between atoms: N37_37  and  C34_34 
REMARK   15  A    between atoms: C35_35  and  N36_36 
ROOT
ATOM      1  C1  O2N d          -8.532  40.687   0.250  0.00  0.00    -0.082 A 
ATOM      2  C2  O2N d          -9.295  41.052  -0.836  0.00  0.00    -0.082 A 
ATOM      3  C3  O2N d          -7.886  41.697   0.952  0.00  0.00    -0.067 A 
ATOM      4  C4  O2N d          -9.436  42.375  -1.226  0.00  0.00    -0.074 A 
ATOM      5  C15 O2N d          -8.011  43.023   0.578  0.00  0.00     0.040 A 
ATOM      6  C19 O2N d          -8.793  43.374  -0.522  0.00  0.00    -0.017 A 
ATOM      7  H1  O2N d          -8.438  39.649   0.547  0.00  0.00     0.083 H 
ATOM      8  H2  O2N d          -9.802  40.281  -1.404  0.00  0.00     0.083 H 
ATOM      9  H3  O2N d          -7.272  41.441   1.809  0.00  0.00     0.085 H 
ATOM     10  H4  O2N d         -10.051  42.625  -2.083  0.00  0.00     0.084 H 
ENDROOT
BRANCH   5  11
ATOM     11  C27 O2N d          -7.325  44.058   1.381  0.00  0.00     0.253 C 
ATOM     12  N36 O2N d          -8.111  44.971   2.084  0.00  0.00    -0.344 N 
ATOM     13  H33 O2N d          -9.106  44.920   1.996  0.00  0.00     0.163 HD
ATOM     14  O39 O2N d          -6.091  44.070   1.362  0.00  0.00    -0.268 OA
BRANCH  12  15
ATOM     15  C35 O2N d          -7.533  45.991   2.940  0.00  0.00     0.063 C 
ATOM     16  H32 O2N d          -8.320  46.366   3.611  0.00  0.00     0.088 H 
BRANCH  15  17
ATOM     17  C17 O2N d          -7.089  47.181   2.070  0.00  0.00    -0.031 A 
ATOM     18  C6  O2N d          -7.142  48.477   2.569  0.00  0.00    -0.072 A 
ATOM     19  C11 O2N d          -6.767  49.586   1.801  0.00  0.00    -0.050 A 
ATOM     20  H6  O2N d          -7.485  48.634   3.586  0.00  0.00     0.084 H 
ATOM     21  C23 O2N d          -6.277  49.332   0.494  0.00  0.00     0.068 A 
ATOM     22  H11 O2N d          -6.846  50.596   2.188  0.00  0.00     0.087 H 
ATOM     23  C12 O2N d          -6.247  48.059  -0.053  0.00  0.00    -0.050 A 
ATOM     24  C7  O2N d          -6.660  46.997   0.766  0.00  0.00    -0.072 A 
ATOM     25  H12 O2N d          -5.918  47.891  -1.072  0.00  0.00     0.087 H 
ATOM     26  H7  O2N d          -6.642  45.991   0.362  0.00  0.00     0.084 H 
BRANCH  21  27
ATOM     27  O43 O2N d          -5.896  50.449  -0.267  0.00  0.00    -0.356 OA
BRANCH  27  28
ATOM     28  C30 O2N d          -6.665  50.833  -1.427  0.00  0.00     0.010 C 
ATOM     29  H20 O2N d          -6.571  51.917  -1.587  0.00  0.00     0.066 H 
ATOM     30  H21 O2N d          -7.722  50.577  -1.267  0.00  0.00     0.066 H 
ATOM     31  H22 O2N d          -6.289  50.298  -2.311  0.00  0.00     0.066 H 
ENDBRANCH  27  28
ENDBRANCH  21  27
ENDBRANCH  15  17
BRANCH  15  32
ATOM     32  C18 O2N d          -6.470  45.346   3.825  0.00  0.00    -0.031 A 
ATOM     33  C8  O2N d          -5.201  45.910   3.799  0.00  0.00    -0.072 A 
ATOM     34  C13 O2N d          -4.205  45.382   4.618  0.00  0.00    -0.050 A 
ATOM     35  H8  O2N d          -4.988  46.751   3.149  0.00  0.00     0.084 H 
ATOM     36  C24 O2N d          -4.442  44.294   5.451  0.00  0.00     0.068 A 
ATOM     37  H13 O2N d          -3.219  45.832   4.606  0.00  0.00     0.087 H 
ATOM     38  C14 O2N d          -5.683  43.689   5.513  0.00  0.00    -0.050 A 
ATOM     39  C9  O2N d          -6.677  44.280   4.694  0.00  0.00    -0.072 A 
ATOM     40  H14 O2N d          -5.881  42.828   6.140  0.00  0.00     0.087 H 
ATOM     41  H9  O2N d          -7.678  43.869   4.750  0.00  0.00     0.084 H 
BRANCH  36  42
ATOM     42  O44 O2N d          -3.347  43.858   6.196  0.00  0.00    -0.356 OA
BRANCH  42  43
ATOM     43  C31 O2N d          -3.725  42.961   7.241  0.00  0.00     0.010 C 
ATOM     44  H23 O2N d          -3.647  41.924   6.880  0.00  0.00     0.066 H 
ATOM     45  H24 O2N d          -4.762  43.167   7.544  0.00  0.00     0.066 H 
ATOM     46  H25 O2N d          -3.056  43.100   8.103  0.00  0.00     0.066 H 
ENDBRANCH  42  43
ENDBRANCH  36  42
ENDBRANCH  15  32
ENDBRANCH  12  15
ENDBRANCH   5  11
BRANCH   6  47
ATOM     47  C32 O2N d          -8.988  44.787  -0.964  0.00  0.00     0.109 C 
ATOM     48  H26 O2N d          -9.294  44.773  -2.020  0.00  0.00     0.083 H 
ATOM     49  H27 O2N d          -8.025  45.309  -0.868  0.00  0.00     0.083 H 
BRANCH  47  50
ATOM     50  N37 O2N d         -10.028  45.575  -0.183  0.00  0.00    -0.060 N 
ATOM     51  H34 O2N d          -9.584  45.869   0.673  0.00  0.00     0.281 HD
BRANCH  50  52
ATOM     52  C33 O2N d         -11.321  44.801   0.242  0.00  0.00     0.109 C 
ATOM     53  H28 O2N d         -11.062  43.764   0.503  0.00  0.00     0.083 H 
ATOM     54  H29 O2N d         -11.777  45.295   1.113  0.00  0.00     0.083 H 
BRANCH  52  55
ATOM     55  C20 O2N d         -12.303  44.807  -0.920  0.00  0.00    -0.013 A 
ATOM     56  C5  O2N d         -12.046  44.178  -2.171  0.00  0.00    -0.071 A 
ATOM     57  C10 O2N d         -12.993  44.185  -3.244  0.00  0.00    -0.047 A 
ATOM     58  H5  O2N d         -11.096  43.675  -2.316  0.00  0.00     0.084 H 
ATOM     59  C21 O2N d         -14.156  44.874  -3.001  0.00  0.00     0.106 A 
ATOM     60  H10 O2N d         -12.805  43.680  -4.185  0.00  0.00     0.087 H 
ATOM     61  C22 O2N d         -14.419  45.477  -1.783  0.00  0.00     0.122 A 
ATOM     62  O41 O2N d         -15.198  45.043  -3.861  0.00  0.00    -0.323 OA
ATOM     63  C16 O2N d         -13.523  45.479  -0.713  0.00  0.00     0.085 A 
ATOM     64  O42 O2N d         -15.665  46.117  -1.761  0.00  0.00    -0.322 OA
ATOM     65  C29 O2N d         -16.159  45.770  -3.071  0.00  0.00     0.115 A 
ATOM     66  H18 O2N d         -17.059  45.149  -2.954  0.00  0.00     0.118 H 
ATOM     67  H19 O2N d         -16.421  46.697  -3.603  0.00  0.00     0.118 H 
BRANCH  63  68
ATOM     68  C28 O2N d         -13.956  46.126   0.583  0.00  0.00     0.212 C 
ATOM     69  O38 O2N d         -13.819  47.392   0.616  0.00  0.00    -0.644 OA
ATOM     70  O40 O2N d         -14.550  45.534   1.541  0.00  0.00    -0.644 OA
ENDBRANCH  63  68
ENDBRANCH  52  55
ENDBRANCH  50  52
BRANCH  50  71
ATOM     71  C34 O2N d         -10.373  46.807  -0.964  0.00  0.00     0.099 C 
ATOM     72  H30 O2N d          -9.542  47.001  -1.658  0.00  0.00     0.082 H 
ATOM     73  H31 O2N d         -11.286  46.590  -1.537  0.00  0.00     0.082 H 
BRANCH  71  74
ATOM     74  C26 O2N d         -10.617  48.072  -0.188  0.00  0.00    -0.087 C 
ATOM     75  C25 O2N d          -9.799  49.131  -0.324  0.00  0.00    -0.123 C 
ATOM     76  H15 O2N d          -9.988  50.041   0.244  0.00  0.00     0.066 H 
ATOM     77  H16 O2N d          -8.949  49.080  -1.002  0.00  0.00     0.066 H 
ATOM     78  H17 O2N d         -11.465  48.131   0.492  0.00  0.00     0.078 H 
ENDBRANCH  71  74
ENDBRANCH  50  71
ENDBRANCH  47  50
ENDBRANCH   6  47
TORSDOF 15
ENDMDL
MODEL 4
REMARK VINA RESULT:      -6.3      1.995      6.920
REMARK  15 active torsions:
REMARK  status: ('A' for Active; 'I' for Inactive)
REMARK    1  A    between atoms: C27_27  and  C15_15 
REMARK    2  A    between atoms: C16_16  and  C28_28 
REMARK    3  A    between atoms: C35_35  and  C17_17 
REMARK    4  A    between atoms: C35_35  and  C18_18 
REMARK    5  A    between atoms: C19_19  and  C32_32 
REMARK    6  A    between atoms: C33_33  and  C20_20 
REMARK    7  A    between atoms: C23_23  and  O43_43 
REMARK    8  A    between atoms: C24_24  and  O44_44 
REMARK    9  A    between atoms: C34_34  and  C26_26 
REMARK       I    between atoms: N36_36  and  C27_27 
REMARK   10  A    between atoms: O43_43  and  C30_30 
REMARK   11  A    between atoms: O44_44  and  C31_31 
REMARK   12  A    between atoms: C32_32  and  N37_37 
REMARK   13  A    between atoms: N37_37  and  C33_33 
REMARK   14  A    between atoms: N37_37  and  C34_34 
REMARK   15  A    between atoms: C35_35  and  N36_36 
ROOT
ATOM      1  C1  O2N d         -13.161  44.222  -2.758  0.00  0.00    -0.082 A 
ATOM      2  C2  O2N d         -12.560  43.219  -2.031  0.00  0.00    -0.082 A 
ATOM      3  C3  O2N d         -13.059  45.519  -2.272  0.00  0.00    -0.067 A 
ATOM      4  C4  O2N d         -11.865  43.474  -0.860  0.00  0.00    -0.074 A 
ATOM      5  C15 O2N d         -12.372  45.795  -1.104  0.00  0.00     0.040 A 
ATOM      6  C19 O2N d         -11.765  44.766  -0.384  0.00  0.00    -0.017 A 
ATOM      7  H1  O2N d         -13.694  44.007  -3.677  0.00  0.00     0.083 H 
ATOM      8  H2  O2N d         -12.633  42.197  -2.386  0.00  0.00     0.083 H 
ATOM      9  H3  O2N d         -13.527  46.330  -2.819  0.00  0.00     0.085 H 
ATOM     10  H4  O2N d         -11.398  42.658  -0.317  0.00  0.00     0.084 H 
ENDROOT
BRANCH   5  11
ATOM     11  C27 O2N d         -12.271  47.199  -0.650  0.00  0.00     0.253 C 
ATOM     12  N36 O2N d         -11.000  47.718  -0.402  0.00  0.00    -0.344 N 
ATOM     13  H33 O2N d         -10.205  47.119  -0.502  0.00  0.00     0.163 HD
ATOM     14  O39 O2N d         -13.322  47.826  -0.493  0.00  0.00    -0.268 OA
BRANCH  12  15
ATOM     15  C35 O2N d         -10.792  49.098  -0.002  0.00  0.00     0.063 C 
ATOM     16  H32 O2N d         -11.425  49.740  -0.633  0.00  0.00     0.088 H 
BRANCH  15  17
ATOM     17  C17 O2N d          -9.333  49.489  -0.295  0.00  0.00    -0.031 A 
ATOM     18  C6  O2N d          -8.514  48.649  -1.040  0.00  0.00    -0.072 A 
ATOM     19  C11 O2N d          -7.175  48.961  -1.310  0.00  0.00    -0.050 A 
ATOM     20  H6  O2N d          -8.925  47.723  -1.425  0.00  0.00     0.084 H 
ATOM     21  C23 O2N d          -6.693  50.206  -0.830  0.00  0.00     0.068 A 
ATOM     22  H11 O2N d          -6.536  48.281  -1.861  0.00  0.00     0.087 H 
ATOM     23  C12 O2N d          -7.466  51.051  -0.050  0.00  0.00    -0.050 A 
ATOM     24  C7  O2N d          -8.791  50.664   0.199  0.00  0.00    -0.072 A 
ATOM     25  H12 O2N d          -7.063  51.974   0.350  0.00  0.00     0.087 H 
ATOM     26  H7  O2N d          -9.417  51.311   0.803  0.00  0.00     0.084 H 
BRANCH  21  27
ATOM     27  O43 O2N d          -5.351  50.514  -1.111  0.00  0.00    -0.356 OA
BRANCH  27  28
ATOM     28  C30 O2N d          -4.399  49.457  -1.353  0.00  0.00     0.010 C 
ATOM     29  H20 O2N d          -4.784  48.514  -0.938  0.00  0.00     0.066 H 
ATOM     30  H21 O2N d          -3.443  49.706  -0.870  0.00  0.00     0.066 H 
ATOM     31  H22 O2N d          -4.244  49.344  -2.436  0.00  0.00     0.066 H 
ENDBRANCH  27  28
ENDBRANCH  21  27
ENDBRANCH  15  17
BRANCH  15  32
ATOM     32  C18 O2N d         -11.280  49.272   1.434  0.00  0.00    -0.031 A 
ATOM     33  C8  O2N d         -12.192  50.293   1.670  0.00  0.00    -0.072 A 
ATOM     34  C13 O2N d         -12.698  50.469   2.956  0.00  0.00    -0.050 A 
ATOM     35  H8  O2N d         -12.506  50.945   0.863  0.00  0.00     0.084 H 
ATOM     36  C24 O2N d         -12.304  49.659   4.015  0.00  0.00     0.068 A 
ATOM     37  H13 O2N d         -13.418  51.259   3.136  0.00  0.00     0.087 H 
ATOM     38  C14 O2N d         -11.395  48.632   3.840  0.00  0.00    -0.050 A 
ATOM     39  C9  O2N d         -10.936  48.463   2.511  0.00  0.00    -0.072 A 
ATOM     40  H14 O2N d         -11.061  48.004   4.657  0.00  0.00     0.087 H 
ATOM     41  H9  O2N d         -10.261  47.637   2.319  0.00  0.00     0.084 H 
BRANCH  36  42
ATOM     42  O44 O2N d         -12.873  49.965   5.251  0.00  0.00    -0.356 OA
BRANCH  42  43
ATOM     43  C31 O2N d         -12.874  51.368   5.515  0.00  0.00     0.010 C 
ATOM     44  H23 O2N d         -12.361  51.562   6.470  0.00  0.00     0.066 H 
ATOM     45  H24 O2N d         -13.912  51.728   5.577  0.00  0.00     0.066 H 
ATOM     46  H25 O2N d         -12.351  51.894   4.704  0.00  0.00     0.066 H 
ENDBRANCH  42  43
ENDBRANCH  36  42
ENDBRANCH  15  32
ENDBRANCH  12  15
ENDBRANCH   5  11
BRANCH   6  47
ATOM     47  C32 O2N d         -10.990  44.999   0.871  0.00  0.00     0.109 C 
ATOM     48  H26 O2N d         -11.550  44.549   1.705  0.00  0.00     0.083 H 
ATOM     49  H27 O2N d         -10.913  46.085   1.026  0.00  0.00     0.083 H 
BRANCH  47  50
ATOM     50  N37 O2N d          -9.583  44.422   0.884  0.00  0.00    -0.060 N 
ATOM     51  H34 O2N d          -9.665  43.457   0.603  0.00  0.00     0.281 HD
BRANCH  50  52
ATOM     52  C33 O2N d          -8.842  44.410   2.264  0.00  0.00     0.109 C 
ATOM     53  H28 O2N d          -9.564  44.601   3.072  0.00  0.00     0.083 H 
ATOM     54  H29 O2N d          -8.368  43.430   2.420  0.00  0.00     0.083 H 
BRANCH  52  55
ATOM     55  C20 O2N d          -7.779  45.498   2.260  0.00  0.00    -0.013 A 
ATOM     56  C5  O2N d          -8.075  46.888   2.188  0.00  0.00    -0.071 A 
ATOM     57  C10 O2N d          -7.055  47.893   2.201  0.00  0.00    -0.047 A 
ATOM     58  H5  O2N d          -9.112  47.198   2.121  0.00  0.00     0.084 H 
ATOM     59  C21 O2N d          -5.764  47.425   2.248  0.00  0.00     0.106 A 
ATOM     60  H10 O2N d          -7.286  48.952   2.175  0.00  0.00     0.087 H 
ATOM     61  C22 O2N d          -5.469  46.075   2.331  0.00  0.00     0.122 A 
ATOM     62  O41 O2N d          -4.626  48.172   2.253  0.00  0.00    -0.323 OA
ATOM     63  C16 O2N d          -6.439  45.071   2.333  0.00  0.00     0.085 A 
ATOM     64  O42 O2N d          -4.091  45.831   2.374  0.00  0.00    -0.322 OA
ATOM     65  C29 O2N d          -3.587  47.183   2.384  0.00  0.00     0.115 A 
ATOM     66  H18 O2N d          -3.059  47.353   3.333  0.00  0.00     0.118 H 
ATOM     67  H19 O2N d          -2.882  47.300   1.547  0.00  0.00     0.118 H 
BRANCH  63  68
ATOM     68  C28 O2N d          -5.985  43.637   2.485  0.00  0.00     0.212 C 
ATOM     69  O38 O2N d          -5.919  42.983   1.395  0.00  0.00    -0.644 OA
ATOM     70  O40 O2N d          -5.551  43.111   3.560  0.00  0.00    -0.644 OA
ENDBRANCH  63  68
ENDBRANCH  52  55
ENDBRANCH  50  52
BRANCH  50  71
ATOM     71  C34 O2N d          -8.770  45.131  -0.156  0.00  0.00     0.099 C 
ATOM     72  H30 O2N d          -9.402  45.923  -0.584  0.00  0.00     0.082 H 
ATOM     73  H31 O2N d          -7.907  45.585   0.353  0.00  0.00     0.082 H 
BRANCH  71  74
ATOM     74  C26 O2N d          -8.239  44.309  -1.298  0.00  0.00    -0.087 C 
ATOM     75  C25 O2N d          -8.340  42.968  -1.286  0.00  0.00    -0.123 C 
ATOM     76  H15 O2N d          -7.951  42.386  -2.121  0.00  0.00     0.066 H 
ATOM     77  H16 O2N d          -8.811  42.464  -0.443  0.00  0.00     0.066 H 
ATOM     78  H17 O2N d          -7.768  44.806  -2.145  0.00  0.00     0.078 H 
ENDBRANCH  71  74
ENDBRANCH  50  71
ENDBRANCH  47  50
ENDBRANCH   6  47
TORSDOF 15
ENDMDL
MODEL 5
REMARK VINA RESULT:      -6.3      2.411      7.146
REMARK  15 active torsions:
REMARK  status: ('A' for Active; 'I' for Inactive)
REMARK    1  A    between atoms: C27_27  and  C15_15 
REMARK    2  A    between atoms: C16_16  and  C28_28 
REMARK    3  A    between atoms: C35_35  and  C17_17 
REMARK    4  A    between atoms: C35_35  and  C18_18 
REMARK    5  A    between atoms: C19_19  and  C32_32 
REMARK    6  A    between atoms: C33_33  and  C20_20 
REMARK    7  A    between atoms: C23_23  and  O43_43 
REMARK    8  A    between atoms: C24_24  and  O44_44 
REMARK    9  A    between atoms: C34_34  and  C26_26 
REMARK       I    between atoms: N36_36  and  C27_27 
REMARK   10  A    between atoms: O43_43  and  C30_30 
REMARK   11  A    between atoms: O44_44  and  C31_31 
REMARK   12  A    between atoms: C32_32  and  N37_37 
REMARK   13  A    between atoms: N37_37  and  C33_33 
REMARK   14  A    between atoms: N37_37  and  C34_34 
REMARK   15  A    between atoms: C35_35  and  N36_36 
ROOT
ATOM      1  C1  O2N d         -12.238  43.825  -2.927  0.00  0.00    -0.082 A 
ATOM      2  C2  O2N d         -11.755  42.814  -2.125  0.00  0.00    -0.082 A 
ATOM      3  C3  O2N d         -12.206  45.119  -2.422  0.00  0.00    -0.067 A 
ATOM      4  C4  O2N d         -11.241  43.059  -0.862  0.00  0.00    -0.074 A 
ATOM      5  C15 O2N d         -11.699  45.384  -1.162  0.00  0.00     0.040 A 
ATOM      6  C19 O2N d         -11.210  44.348  -0.367  0.00  0.00    -0.017 A 
ATOM      7  H1  O2N d         -12.630  43.618  -3.916  0.00  0.00     0.083 H 
ATOM      8  H2  O2N d         -11.778  41.796  -2.494  0.00  0.00     0.083 H 
ATOM      9  H3  O2N d         -12.585  45.935  -3.027  0.00  0.00     0.085 H 
ATOM     10  H4  O2N d         -10.863  42.238  -0.262  0.00  0.00     0.084 H 
ENDROOT
BRANCH   5  11
ATOM     11  C27 O2N d         -11.662  46.785  -0.689  0.00  0.00     0.253 C 
ATOM     12  N36 O2N d         -10.419  47.342  -0.387  0.00  0.00    -0.344 N 
ATOM     13  H33 O2N d          -9.602  46.771  -0.465  0.00  0.00     0.163 HD
ATOM     14  O39 O2N d         -12.739  47.374  -0.564  0.00  0.00    -0.268 OA
BRANCH  12  15
ATOM     15  C35 O2N d         -10.273  48.723   0.035  0.00  0.00     0.063 C 
ATOM     16  H32 O2N d         -10.914  49.350  -0.602  0.00  0.00     0.088 H 
BRANCH  15  17
ATOM     17  C17 O2N d          -8.822  49.172  -0.215  0.00  0.00    -0.031 A 
ATOM     18  C6  O2N d          -8.390  50.424   0.207  0.00  0.00    -0.072 A 
ATOM     19  C11 O2N d          -7.085  50.876  -0.022  0.00  0.00    -0.050 A 
ATOM     20  H6  O2N d          -9.086  51.071   0.729  0.00  0.00     0.084 H 
ATOM     21  C23 O2N d          -6.193  49.980  -0.664  0.00  0.00     0.068 A 
ATOM     22  H11 O2N d          -6.769  51.869   0.279  0.00  0.00     0.087 H 
ATOM     23  C12 O2N d          -6.597  48.740  -1.134  0.00  0.00    -0.050 A 
ATOM     24  C7  O2N d          -7.926  48.362  -0.891  0.00  0.00    -0.072 A 
ATOM     25  H12 O2N d          -5.914  48.090  -1.669  0.00  0.00     0.087 H 
ATOM     26  H7  O2N d          -8.265  47.395  -1.245  0.00  0.00     0.084 H 
BRANCH  21  27
ATOM     27  O43 O2N d          -4.883  50.438  -0.883  0.00  0.00    -0.356 OA
BRANCH  27  28
ATOM     28  C30 O2N d          -3.894  50.332   0.163  0.00  0.00     0.010 C 
ATOM     29  H20 O2N d          -3.064  49.697  -0.180  0.00  0.00     0.066 H 
ATOM     30  H21 O2N d          -4.352  49.885   1.057  0.00  0.00     0.066 H 
ATOM     31  H22 O2N d          -3.511  51.334   0.409  0.00  0.00     0.066 H 
ENDBRANCH  27  28
ENDBRANCH  21  27
ENDBRANCH  15  17
BRANCH  15  32
ATOM     32  C18 O2N d         -10.804  48.858   1.461  0.00  0.00    -0.031 A 
ATOM     33  C8  O2N d         -11.795  49.808   1.677  0.00  0.00    -0.072 A 
ATOM     34  C13 O2N d         -12.340  49.944   2.952  0.00  0.00    -0.050 A 
ATOM     35  H8  O2N d         -12.140  50.435   0.863  0.00  0.00     0.084 H 
ATOM     36  C24 O2N d         -11.908  49.165   4.020  0.00  0.00     0.068 A 
ATOM     37  H13 O2N d         -13.122  50.676   3.115  0.00  0.00     0.087 H 
ATOM     38  C14 O2N d         -10.921  48.211   3.864  0.00  0.00    -0.050 A 
ATOM     39  C9  O2N d         -10.421  48.078   2.546  0.00  0.00    -0.072 A 
ATOM     40  H14 O2N d         -10.557  47.609   4.690  0.00  0.00     0.087 H 
ATOM     41  H9  O2N d          -9.682  47.305   2.369  0.00  0.00     0.084 H 
BRANCH  36  42
ATOM     42  O44 O2N d         -12.525  49.426   5.243  0.00  0.00    -0.356 OA
BRANCH  42  43
ATOM     43  C31 O2N d         -11.679  49.128   6.353  0.00  0.00     0.010 C 
ATOM     44  H23 O2N d         -12.291  49.013   7.260  0.00  0.00     0.066 H 
ATOM     45  H24 O2N d         -10.961  49.948   6.497  0.00  0.00     0.066 H 
ATOM     46  H25 O2N d         -11.134  48.193   6.157  0.00  0.00     0.066 H 
ENDBRANCH  42  43
ENDBRANCH  36  42
ENDBRANCH  15  32
ENDBRANCH  12  15
ENDBRANCH   5  11
BRANCH   6  47
ATOM     47  C32 O2N d         -10.629  44.570   0.990  0.00  0.00     0.109 C 
ATOM     48  H26 O2N d         -11.108  43.862   1.684  0.00  0.00     0.083 H 
ATOM     49  H27 O2N d         -10.865  45.599   1.297  0.00  0.00     0.083 H 
BRANCH  47  50
ATOM     50  N37 O2N d          -9.123  44.383   1.093  0.00  0.00    -0.060 N 
ATOM     51  H34 O2N d          -8.971  43.632   1.749  0.00  0.00     0.281 HD
BRANCH  50  52
ATOM     52  C33 O2N d          -8.300  45.601   1.631  0.00  0.00     0.109 C 
ATOM     53  H28 O2N d          -7.717  46.045   0.810  0.00  0.00     0.083 H 
ATOM     54  H29 O2N d          -8.986  46.356   2.044  0.00  0.00     0.083 H 
BRANCH  52  55
ATOM     55  C20 O2N d          -7.358  45.115   2.723  0.00  0.00    -0.013 A 
ATOM     56  C5  O2N d          -7.465  43.840   3.345  0.00  0.00    -0.071 A 
ATOM     57  C10 O2N d          -6.556  43.400   4.359  0.00  0.00    -0.047 A 
ATOM     58  H5  O2N d          -8.266  43.176   3.038  0.00  0.00     0.084 H 
ATOM     59  C21 O2N d          -5.592  44.309   4.723  0.00  0.00     0.106 A 
ATOM     60  H10 O2N d          -6.623  42.417   4.810  0.00  0.00     0.087 H 
ATOM     61  C22 O2N d          -5.474  45.546   4.114  0.00  0.00     0.122 A 
ATOM     62  O41 O2N d          -4.628  44.140   5.669  0.00  0.00    -0.323 OA
ATOM     63  C16 O2N d          -6.335  46.001   3.114  0.00  0.00     0.085 A 
ATOM     64  O42 O2N d          -4.419  46.303   4.640  0.00  0.00    -0.322 OA
ATOM     65  C29 O2N d          -3.866  45.360   5.581  0.00  0.00     0.115 A 
ATOM     66  H18 O2N d          -2.842  45.111   5.267  0.00  0.00     0.118 H 
ATOM     67  H19 O2N d          -3.840  45.830   6.575  0.00  0.00     0.118 H 
BRANCH  63  68
ATOM     68  C28 O2N d          -6.062  47.351   2.491  0.00  0.00     0.212 C 
ATOM     69  O38 O2N d          -5.140  47.354   1.613  0.00  0.00    -0.644 OA
ATOM     70  O40 O2N d          -6.756  48.402   2.677  0.00  0.00    -0.644 OA
ENDBRANCH  63  68
ENDBRANCH  52  55
ENDBRANCH  50  52
BRANCH  50  71
ATOM     71  C34 O2N d          -8.609  43.935  -0.240  0.00  0.00     0.099 C 
ATOM     72  H30 O2N d          -9.481  43.691  -0.865  0.00  0.00     0.082 H 
ATOM     73  H31 O2N d          -8.064  44.780  -0.685  0.00  0.00     0.082 H 
BRANCH  71  74
ATOM     74  C26 O2N d          -7.690  42.744  -0.264  0.00  0.00    -0.087 C 
ATOM     75  C25 O2N d          -7.982  41.636   0.441  0.00  0.00    -0.123 C 
ATOM     76  H15 O2N d          -7.308  40.781   0.415  0.00  0.00     0.066 H 
ATOM     77  H16 O2N d          -8.892  41.593   1.037  0.00  0.00     0.066 H 
ATOM     78  H17 O2N d          -6.778  42.779  -0.858  0.00  0.00     0.078 H 
ENDBRANCH  71  74
ENDBRANCH  50  71
ENDBRANCH  47  50
ENDBRANCH   6  47
TORSDOF 15
ENDMDL
MODEL 6
REMARK VINA RESULT:      -6.3      2.000      6.982
REMARK  15 active torsions:
REMARK  status: ('A' for Active; 'I' for Inactive)
REMARK    1  A    between atoms: C27_27  and  C15_15 
REMARK    2  A    between atoms: C16_16  and  C28_28 
REMARK    3  A    between atoms: C35_35  and  C17_17 
REMARK    4  A    between atoms: C35_35  and  C18_18 
REMARK    5  A    between atoms: C19_19  and  C32_32 
REMARK    6  A    between atoms: C33_33  and  C20_20 
REMARK    7  A    between atoms: C23_23  and  O43_43 
REMARK    8  A    between atoms: C24_24  and  O44_44 
REMARK    9  A    between atoms: C34_34  and  C26_26 
REMARK       I    between atoms: N36_36  and  C27_27 
REMARK   10  A    between atoms: O43_43  and  C30_30 
REMARK   11  A    between atoms: O44_44  and  C31_31 
REMARK   12  A    between atoms: C32_32  and  N37_37 
REMARK   13  A    between atoms: N37_37  and  C33_33 
REMARK   14  A    between atoms: N37_37  and  C34_34 
REMARK   15  A    between atoms: C35_35  and  N36_36 
ROOT
ATOM      1  C1  O2N d          -8.903  40.854   0.007  0.00  0.00    -0.082 A 
ATOM      2  C2  O2N d          -7.638  41.114   0.486  0.00  0.00    -0.082 A 
ATOM      3  C3  O2N d          -9.772  41.928  -0.135  0.00  0.00    -0.067 A 
ATOM      4  C4  O2N d          -7.223  42.397   0.809  0.00  0.00    -0.074 A 
ATOM      5  C15 O2N d          -9.378  43.215   0.184  0.00  0.00     0.040 A 
ATOM      6  C19 O2N d          -8.091  43.461   0.662  0.00  0.00    -0.017 A 
ATOM      7  H1  O2N d          -9.210  39.846  -0.249  0.00  0.00     0.083 H 
ATOM      8  H2  O2N d          -6.946  40.290   0.613  0.00  0.00     0.083 H 
ATOM      9  H3  O2N d         -10.777  41.755  -0.503  0.00  0.00     0.085 H 
ATOM     10  H4  O2N d          -6.216  42.564   1.176  0.00  0.00     0.084 H 
ENDROOT
BRANCH   5  11
ATOM     11  C27 O2N d         -10.335  44.325  -0.016  0.00  0.00     0.253 C 
ATOM     12  N36 O2N d         -10.008  45.315  -0.944  0.00  0.00    -0.344 N 
ATOM     13  H33 O2N d          -9.127  45.264  -1.414  0.00  0.00     0.163 HD
ATOM     14  O39 O2N d         -11.362  44.324   0.669  0.00  0.00    -0.268 OA
BRANCH  12  15
ATOM     15  C35 O2N d         -10.903  46.416  -1.248  0.00  0.00     0.063 C 
ATOM     16  H32 O2N d         -10.511  46.946  -2.129  0.00  0.00     0.088 H 
BRANCH  15  17
ATOM     17  C17 O2N d         -10.880  47.418  -0.080  0.00  0.00    -0.031 A 
ATOM     18  C6  O2N d         -10.905  48.785  -0.325  0.00  0.00    -0.072 A 
ATOM     19  C11 O2N d         -10.864  49.728   0.710  0.00  0.00    -0.050 A 
ATOM     20  H6  O2N d         -10.958  49.134  -1.351  0.00  0.00     0.084 H 
ATOM     21  C23 O2N d         -10.845  49.229   2.037  0.00  0.00     0.068 A 
ATOM     22  H11 O2N d         -10.847  50.792   0.505  0.00  0.00     0.087 H 
ATOM     23  C12 O2N d         -10.779  47.874   2.321  0.00  0.00    -0.050 A 
ATOM     24  C7  O2N d         -10.801  46.988   1.233  0.00  0.00    -0.072 A 
ATOM     25  H12 O2N d         -10.713  47.514   3.341  0.00  0.00     0.087 H 
ATOM     26  H7  O2N d         -10.754  45.923   1.430  0.00  0.00     0.084 H 
BRANCH  21  27
ATOM     27  O43 O2N d         -10.811  50.181   3.070  0.00  0.00    -0.356 OA
BRANCH  27  28
ATOM     28  C30 O2N d          -9.749  50.152   4.048  0.00  0.00     0.010 C 
ATOM     29  H20 O2N d         -10.039  50.753   4.922  0.00  0.00     0.066 H 
ATOM     30  H21 O2N d          -8.832  50.568   3.606  0.00  0.00     0.066 H 
ATOM     31  H22 O2N d          -9.567  49.114   4.361  0.00  0.00     0.066 H 
ENDBRANCH  27  28
ENDBRANCH  21  27
ENDBRANCH  15  17
BRANCH  15  32
ATOM     32  C18 O2N d         -12.263  45.847  -1.646  0.00  0.00    -0.031 A 
ATOM     33  C8  O2N d         -12.272  44.864  -2.628  0.00  0.00    -0.072 A 
ATOM     34  C13 O2N d         -13.484  44.285  -2.999  0.00  0.00    -0.050 A 
ATOM     35  H8  O2N d         -11.348  44.552  -3.100  0.00  0.00     0.084 H 
ATOM     36  C24 O2N d         -14.689  44.675  -2.424  0.00  0.00     0.068 A 
ATOM     37  H13 O2N d         -13.488  43.510  -3.757  0.00  0.00     0.087 H 
ATOM     38  C14 O2N d         -14.739  45.652  -1.447  0.00  0.00    -0.050 A 
ATOM     39  C9  O2N d         -13.483  46.186  -1.072  0.00  0.00    -0.072 A 
ATOM     40  H14 O2N d         -15.671  45.983  -1.002  0.00  0.00     0.087 H 
ATOM     41  H9  O2N d         -13.471  46.919  -0.273  0.00  0.00     0.084 H 
BRANCH  36  42
ATOM     42  O44 O2N d         -15.824  44.027  -2.909  0.00  0.00    -0.356 OA
BRANCH  42  43
ATOM     43  C31 O2N d         -16.056  44.300  -4.291  0.00  0.00     0.010 C 
ATOM     44  H23 O2N d         -16.817  43.606  -4.679  0.00  0.00     0.066 H 
ATOM     45  H24 O2N d         -15.119  44.167  -4.852  0.00  0.00     0.066 H 
ATOM     46  H25 O2N d         -16.409  45.335  -4.406  0.00  0.00     0.066 H 
ENDBRANCH  42  43
ENDBRANCH  36  42
ENDBRANCH  15  32
ENDBRANCH  12  15
ENDBRANCH   5  11
BRANCH   6  47
ATOM     47  C32 O2N d          -7.596  44.828   1.003  0.00  0.00     0.109 C 
ATOM     48  H26 O2N d          -8.178  45.555   0.417  0.00  0.00     0.083 H 
ATOM     49  H27 O2N d          -6.537  44.887   0.713  0.00  0.00     0.083 H 
BRANCH  47  50
ATOM     50  N37 O2N d          -7.704  45.212   2.471  0.00  0.00    -0.060 N 
ATOM     51  H34 O2N d          -8.676  45.123   2.721  0.00  0.00     0.281 HD
BRANCH  50  52
ATOM     52  C33 O2N d          -7.293  46.676   2.844  0.00  0.00     0.109 C 
ATOM     53  H28 O2N d          -8.182  47.240   3.163  0.00  0.00     0.083 H 
ATOM     54  H29 O2N d          -6.558  46.656   3.662  0.00  0.00     0.083 H 
BRANCH  52  55
ATOM     55  C20 O2N d          -6.679  47.341   1.621  0.00  0.00    -0.013 A 
ATOM     56  C5  O2N d          -7.445  47.940   0.582  0.00  0.00    -0.071 A 
ATOM     57  C10 O2N d          -6.841  48.573  -0.551  0.00  0.00    -0.047 A 
ATOM     58  H5  O2N d          -8.527  47.917   0.652  0.00  0.00     0.084 H 
ATOM     59  C21 O2N d          -5.469  48.530  -0.591  0.00  0.00     0.106 A 
ATOM     60  H10 O2N d          -7.428  49.054  -1.326  0.00  0.00     0.087 H 
ATOM     61  C22 O2N d          -4.717  47.960   0.421  0.00  0.00     0.122 A 
ATOM     62  O41 O2N d          -4.665  49.040  -1.565  0.00  0.00    -0.323 OA
ATOM     63  C16 O2N d          -5.272  47.347   1.545  0.00  0.00     0.085 A 
ATOM     64  O42 O2N d          -3.340  48.035   0.172  0.00  0.00    -0.322 OA
ATOM     65  C29 O2N d          -3.340  48.779  -1.064  0.00  0.00     0.115 A 
ATOM     66  H18 O2N d          -2.833  49.741  -0.895  0.00  0.00     0.118 H 
ATOM     67  H19 O2N d          -2.786  48.202  -1.820  0.00  0.00     0.118 H 
BRANCH  63  68
ATOM     68  C28 O2N d          -4.337  46.813   2.606  0.00  0.00     0.212 C 
ATOM     69  O38 O2N d          -4.158  47.592   3.597  0.00  0.00    -0.644 OA
ATOM     70  O40 O2N d          -3.855  45.635   2.638  0.00  0.00    -0.644 OA
ENDBRANCH  63  68
ENDBRANCH  52  55
ENDBRANCH  50  52
BRANCH  50  71
ATOM     71  C34 O2N d          -6.932  44.215   3.279  0.00  0.00     0.099 C 
ATOM     72  H30 O2N d          -7.425  43.240   3.159  0.00  0.00     0.082 H 
ATOM     73  H31 O2N d          -5.916  44.166   2.861  0.00  0.00     0.082 H 
BRANCH  71  74
ATOM     74  C26 O2N d          -6.800  44.474   4.755  0.00  0.00    -0.087 C 
ATOM     75  C25 O2N d          -5.597  44.436   5.356  0.00  0.00    -0.123 C 
ATOM     76  H15 O2N d          -5.516  44.626   6.425  0.00  0.00     0.066 H 
ATOM     77  H16 O2N d          -4.704  44.216   4.773  0.00  0.00     0.066 H 
ATOM     78  H17 O2N d          -7.689  44.696   5.344  0.00  0.00     0.078 H 
ENDBRANCH  71  74
ENDBRANCH  50  71
ENDBRANCH  47  50
ENDBRANCH   6  47
TORSDOF 15
ENDMDL
MODEL 7
REMARK VINA RESULT:      -6.2      2.030      6.710
REMARK  15 active torsions:
REMARK  status: ('A' for Active; 'I' for Inactive)
REMARK    1  A    between atoms: C27_27  and  C15_15 
REMARK    2  A    between atoms: C16_16  and  C28_28 
REMARK    3  A    between atoms: C35_35  and  C17_17 
REMARK    4  A    between atoms: C35_35  and  C18_18 
REMARK    5  A    between atoms: C19_19  and  C32_32 
REMARK    6  A    between atoms: C33_33  and  C20_20 
REMARK    7  A    between atoms: C23_23  and  O43_43 
REMARK    8  A    between atoms: C24_24  and  O44_44 
REMARK    9  A    between atoms: C34_34  and  C26_26 
REMARK       I    between atoms: N36_36  and  C27_27 
REMARK   10  A    between atoms: O43_43  and  C30_30 
REMARK   11  A    between atoms: O44_44  and  C31_31 
REMARK   12  A    between atoms: C32_32  and  N37_37 
REMARK   13  A    between atoms: N37_37  and  C33_33 
REMARK   14  A    between atoms: N37_37  and  C34_34 
REMARK   15  A    between atoms: C35_35  and  N36_36 
ROOT
ATOM      1  C1  O2N d         -12.666  43.204  -2.197  0.00  0.00    -0.082 A 
ATOM      2  C2  O2N d         -11.531  42.432  -2.092  0.00  0.00    -0.082 A 
ATOM      3  C3  O2N d         -12.572  44.542  -1.836  0.00  0.00    -0.067 A 
ATOM      4  C4  O2N d         -10.324  42.954  -1.654  0.00  0.00    -0.074 A 
ATOM      5  C15 O2N d         -11.378  45.082  -1.393  0.00  0.00     0.040 A 
ATOM      6  C19 O2N d         -10.237  44.286  -1.299  0.00  0.00    -0.017 A 
ATOM      7  H1  O2N d         -13.601  42.782  -2.549  0.00  0.00     0.083 H 
ATOM      8  H2  O2N d         -11.582  41.383  -2.360  0.00  0.00     0.083 H 
ATOM      9  H3  O2N d         -13.450  45.174  -1.902  0.00  0.00     0.085 H 
ATOM     10  H4  O2N d          -9.448  42.317  -1.590  0.00  0.00     0.084 H 
ENDROOT
BRANCH   5  11
ATOM     11  C27 O2N d         -11.328  46.520  -1.051  0.00  0.00     0.253 C 
ATOM     12  N36 O2N d         -10.091  47.074  -0.721  0.00  0.00    -0.344 N 
ATOM     13  H33 O2N d          -9.288  46.479  -0.689  0.00  0.00     0.163 HD
ATOM     14  O39 O2N d         -12.393  47.145  -1.055  0.00  0.00    -0.268 OA
BRANCH  12  15
ATOM     15  C35 O2N d          -9.931  48.484  -0.420  0.00  0.00     0.063 C 
ATOM     16  H32 O2N d         -10.644  49.053  -1.034  0.00  0.00     0.088 H 
BRANCH  15  17
ATOM     17  C17 O2N d          -8.522  48.931  -0.849  0.00  0.00    -0.031 A 
ATOM     18  C6  O2N d          -7.498  48.001  -0.981  0.00  0.00    -0.072 A 
ATOM     19  C11 O2N d          -6.198  48.371  -1.349  0.00  0.00    -0.050 A 
ATOM     20  H6  O2N d          -7.712  46.954  -0.793  0.00  0.00     0.084 H 
ATOM     21  C23 O2N d          -5.974  49.742  -1.634  0.00  0.00     0.068 A 
ATOM     22  H11 O2N d          -5.399  47.642  -1.413  0.00  0.00     0.087 H 
ATOM     23  C12 O2N d          -6.958  50.705  -1.476  0.00  0.00    -0.050 A 
ATOM     24  C7  O2N d          -8.231  50.264  -1.082  0.00  0.00    -0.072 A 
ATOM     25  H12 O2N d          -6.753  51.755  -1.650  0.00  0.00     0.087 H 
ATOM     26  H7  O2N d          -9.018  50.998  -0.955  0.00  0.00     0.084 H 
BRANCH  21  27
ATOM     27  O43 O2N d          -4.669  50.105  -2.010  0.00  0.00    -0.356 OA
BRANCH  27  28
ATOM     28  C30 O2N d          -3.646  50.274  -1.006  0.00  0.00     0.010 C 
ATOM     29  H20 O2N d          -3.570  51.338  -0.736  0.00  0.00     0.066 H 
ATOM     30  H21 O2N d          -2.682  49.927  -1.403  0.00  0.00     0.066 H 
ATOM     31  H22 O2N d          -3.907  49.687  -0.113  0.00  0.00     0.066 H 
ENDBRANCH  27  28
ENDBRANCH  21  27
ENDBRANCH  15  17
BRANCH  15  32
ATOM     32  C18 O2N d         -10.318  48.722   1.038  0.00  0.00    -0.031 A 
ATOM     33  C8  O2N d         -10.677  47.607   1.785  0.00  0.00    -0.072 A 
ATOM     34  C13 O2N d         -11.001  47.766   3.131  0.00  0.00    -0.050 A 
ATOM     35  H8  O2N d         -10.704  46.626   1.326  0.00  0.00     0.084 H 
ATOM     36  C24 O2N d         -10.990  49.014   3.744  0.00  0.00     0.068 A 
ATOM     37  H13 O2N d         -11.268  46.893   3.715  0.00  0.00     0.087 H 
ATOM     38  C14 O2N d         -10.648  50.157   3.049  0.00  0.00    -0.050 A 
ATOM     39  C9  O2N d         -10.288  49.947   1.695  0.00  0.00    -0.072 A 
ATOM     40  H14 O2N d         -10.654  51.141   3.505  0.00  0.00     0.087 H 
ATOM     41  H9  O2N d          -9.963  50.811   1.126  0.00  0.00     0.084 H 
BRANCH  36  42
ATOM     42  O44 O2N d         -11.360  49.025   5.089  0.00  0.00    -0.356 OA
BRANCH  42  43
ATOM     43  C31 O2N d         -12.415  49.950   5.354  0.00  0.00     0.010 C 
ATOM     44  H23 O2N d         -12.811  50.337   4.403  0.00  0.00     0.066 H 
ATOM     45  H24 O2N d         -12.028  50.784   5.957  0.00  0.00     0.066 H 
ATOM     46  H25 O2N d         -13.218  49.440   5.906  0.00  0.00     0.066 H 
ENDBRANCH  42  43
ENDBRANCH  36  42
ENDBRANCH  15  32
ENDBRANCH  12  15
ENDBRANCH   5  11
BRANCH   6  47
ATOM     47  C32 O2N d          -8.913  44.812  -0.851  0.00  0.00     0.109 C 
ATOM     48  H26 O2N d          -8.925  45.906  -0.967  0.00  0.00     0.083 H 
ATOM     49  H27 O2N d          -8.138  44.383  -1.504  0.00  0.00     0.083 H 
BRANCH  47  50
ATOM     50  N37 O2N d          -8.539  44.496   0.589  0.00  0.00    -0.060 N 
ATOM     51  H34 O2N d          -9.104  45.096   1.171  0.00  0.00     0.281 HD
BRANCH  50  52
ATOM     52  C33 O2N d          -7.054  44.765   1.004  0.00  0.00     0.109 C 
ATOM     53  H28 O2N d          -6.564  43.814   1.262  0.00  0.00     0.083 H 
ATOM     54  H29 O2N d          -6.517  45.238   0.168  0.00  0.00     0.083 H 
BRANCH  52  55
ATOM     55  C20 O2N d          -7.040  45.692   2.210  0.00  0.00    -0.013 A 
ATOM     56  C5  O2N d          -7.275  47.094   2.129  0.00  0.00    -0.071 A 
ATOM     57  C10 O2N d          -7.272  47.942   3.283  0.00  0.00    -0.047 A 
ATOM     58  H5  O2N d          -7.464  47.535   1.157  0.00  0.00     0.084 H 
ATOM     59  C21 O2N d          -6.986  47.318   4.473  0.00  0.00     0.106 A 
ATOM     60  H10 O2N d          -7.479  49.003   3.221  0.00  0.00     0.087 H 
ATOM     61  C22 O2N d          -6.769  45.954   4.562  0.00  0.00     0.122 A 
ATOM     62  O41 O2N d          -6.906  47.903   5.700  0.00  0.00    -0.323 OA
ATOM     63  C16 O2N d          -6.778  45.098   3.460  0.00  0.00     0.085 A 
ATOM     64  O42 O2N d          -6.503  45.539   5.873  0.00  0.00    -0.322 OA
ATOM     65  C29 O2N d          -6.657  46.788   6.578  0.00  0.00     0.115 A 
ATOM     66  H18 O2N d          -7.503  46.695   7.275  0.00  0.00     0.118 H 
ATOM     67  H19 O2N d          -5.735  46.986   7.145  0.00  0.00     0.118 H 
BRANCH  63  68
ATOM     68  C28 O2N d          -6.582  43.618   3.700  0.00  0.00     0.212 C 
ATOM     69  O38 O2N d          -5.387  43.208   3.542  0.00  0.00    -0.644 OA
ATOM     70  O40 O2N d          -7.462  42.824   4.166  0.00  0.00    -0.644 OA
ENDBRANCH  63  68
ENDBRANCH  52  55
ENDBRANCH  50  52
BRANCH  50  71
ATOM     71  C34 O2N d          -8.930  43.080   0.880  0.00  0.00     0.099 C 
ATOM     72  H30 O2N d          -9.266  43.039   1.927  0.00  0.00     0.082 H 
ATOM     73  H31 O2N d          -9.768  42.825   0.215  0.00  0.00     0.082 H 
BRANCH  71  74
ATOM     74  C26 O2N d          -7.876  42.021   0.703  0.00  0.00    -0.087 C 
ATOM     75  C25 O2N d          -8.214  40.762   0.371  0.00  0.00    -0.123 C 
ATOM     76  H15 O2N d          -7.441  40.006   0.246  0.00  0.00     0.066 H 
ATOM     77  H16 O2N d          -9.261  40.500   0.226  0.00  0.00     0.066 H 
ATOM     78  H17 O2N d          -6.827  42.277   0.846  0.00  0.00     0.078 H 
ENDBRANCH  71  74
ENDBRANCH  50  71
ENDBRANCH  47  50
ENDBRANCH   6  47
TORSDOF 15
ENDMDL
MODEL 8
REMARK VINA RESULT:      -6.0      2.539      6.826
REMARK  15 active torsions:
REMARK  status: ('A' for Active; 'I' for Inactive)
REMARK    1  A    between atoms: C27_27  and  C15_15 
REMARK    2  A    between atoms: C16_16  and  C28_28 
REMARK    3  A    between atoms: C35_35  and  C17_17 
REMARK    4  A    between atoms: C35_35  and  C18_18 
REMARK    5  A    between atoms: C19_19  and  C32_32 
REMARK    6  A    between atoms: C33_33  and  C20_20 
REMARK    7  A    between atoms: C23_23  and  O43_43 
REMARK    8  A    between atoms: C24_24  and  O44_44 
REMARK    9  A    between atoms: C34_34  and  C26_26 
REMARK       I    between atoms: N36_36  and  C27_27 
REMARK   10  A    between atoms: O43_43  and  C30_30 
REMARK   11  A    between atoms: O44_44  and  C31_31 
REMARK   12  A    between atoms: C32_32  and  N37_37 
REMARK   13  A    between atoms: N37_37  and  C33_33 
REMARK   14  A    between atoms: N37_37  and  C34_34 
REMARK   15  A    between atoms: C35_35  and  N36_36 
ROOT
ATOM      1  C1  O2N d          -9.234  40.718  -0.191  0.00  0.00    -0.082 A 
ATOM      2  C2  O2N d          -7.927  40.894   0.205  0.00  0.00    -0.082 A 
ATOM      3  C3  O2N d         -10.037  41.847  -0.284  0.00  0.00    -0.067 A 
ATOM      4  C4  O2N d          -7.408  42.147   0.494  0.00  0.00    -0.074 A 
ATOM      5  C15 O2N d          -9.540  43.106   0.003  0.00  0.00     0.040 A 
ATOM      6  C19 O2N d          -8.212  43.266   0.397  0.00  0.00    -0.017 A 
ATOM      7  H1  O2N d          -9.623  39.732  -0.421  0.00  0.00     0.083 H 
ATOM      8  H2  O2N d          -7.284  40.027   0.294  0.00  0.00     0.083 H 
ATOM      9  H3  O2N d         -11.073  41.740  -0.587  0.00  0.00     0.085 H 
ATOM     10  H4  O2N d          -6.372  42.248   0.797  0.00  0.00     0.084 H 
ENDROOT
BRANCH   5  11
ATOM     11  C27 O2N d         -10.432  44.276  -0.143  0.00  0.00     0.253 C 
ATOM     12  N36 O2N d         -10.125  45.218  -1.126  0.00  0.00    -0.344 N 
ATOM     13  H33 O2N d          -9.296  45.093  -1.672  0.00  0.00     0.163 HD
ATOM     14  O39 O2N d         -11.389  44.365   0.632  0.00  0.00    -0.268 OA
BRANCH  12  15
ATOM     15  C35 O2N d         -10.965  46.373  -1.381  0.00  0.00     0.063 C 
ATOM     16  H32 O2N d         -10.573  46.898  -2.264  0.00  0.00     0.088 H 
BRANCH  15  17
ATOM     17  C17 O2N d         -10.849  47.348  -0.196  0.00  0.00    -0.031 A 
ATOM     18  C6  O2N d         -11.728  47.262   0.876  0.00  0.00    -0.072 A 
ATOM     19  C11 O2N d         -11.667  48.145   1.962  0.00  0.00    -0.050 A 
ATOM     20  H6  O2N d         -12.486  46.486   0.872  0.00  0.00     0.084 H 
ATOM     21  C23 O2N d         -10.631  49.113   1.950  0.00  0.00     0.068 A 
ATOM     22  H11 O2N d         -12.382  48.091   2.775  0.00  0.00     0.087 H 
ATOM     23  C12 O2N d          -9.760  49.256   0.881  0.00  0.00    -0.050 A 
ATOM     24  C7  O2N d          -9.894  48.351  -0.183  0.00  0.00    -0.072 A 
ATOM     25  H12 O2N d          -9.007  50.035   0.868  0.00  0.00     0.087 H 
ATOM     26  H7  O2N d          -9.222  48.440  -1.029  0.00  0.00     0.084 H 
BRANCH  21  27
ATOM     27  O43 O2N d         -10.572  49.990   3.046  0.00  0.00    -0.356 OA
BRANCH  27  28
ATOM     28  C30 O2N d          -9.299  50.325   3.639  0.00  0.00     0.010 C 
ATOM     29  H20 O2N d          -8.916  49.460   4.200  0.00  0.00     0.066 H 
ATOM     30  H21 O2N d          -9.425  51.177   4.321  0.00  0.00     0.066 H 
ATOM     31  H22 O2N d          -8.584  50.593   2.847  0.00  0.00     0.066 H 
ENDBRANCH  27  28
ENDBRANCH  21  27
ENDBRANCH  15  17
BRANCH  15  32
ATOM     32  C18 O2N d         -12.367  45.888  -1.744  0.00  0.00    -0.031 A 
ATOM     33  C8  O2N d         -12.478  45.045  -2.842  0.00  0.00    -0.072 A 
ATOM     34  C13 O2N d         -13.731  44.544  -3.191  0.00  0.00    -0.050 A 
ATOM     35  H8  O2N d         -11.601  44.779  -3.420  0.00  0.00     0.084 H 
ATOM     36  C24 O2N d         -14.877  44.878  -2.479  0.00  0.00     0.068 A 
ATOM     37  H13 O2N d         -13.813  43.876  -4.041  0.00  0.00     0.087 H 
ATOM     38  C14 O2N d         -14.827  45.718  -1.383  0.00  0.00    -0.050 A 
ATOM     39  C9  O2N d         -13.531  46.173  -1.039  0.00  0.00    -0.072 A 
ATOM     40  H14 O2N d         -15.713  46.006  -0.829  0.00  0.00     0.087 H 
ATOM     41  H9  O2N d         -13.439  46.793  -0.155  0.00  0.00     0.084 H 
BRANCH  36  42
ATOM     42  O44 O2N d         -16.064  44.323  -2.956  0.00  0.00    -0.356 OA
BRANCH  42  43
ATOM     43  C31 O2N d         -16.135  44.334  -4.382  0.00  0.00     0.010 C 
ATOM     44  H23 O2N d         -15.135  44.537  -4.797  0.00  0.00     0.066 H 
ATOM     45  H24 O2N d         -16.833  45.119  -4.708  0.00  0.00     0.066 H 
ATOM     46  H25 O2N d         -16.489  43.356  -4.740  0.00  0.00     0.066 H 
ENDBRANCH  42  43
ENDBRANCH  36  42
ENDBRANCH  15  32
ENDBRANCH  12  15
ENDBRANCH   5  11
BRANCH   6  47
ATOM     47  C32 O2N d          -7.607  44.597   0.698  0.00  0.00     0.109 C 
ATOM     48  H26 O2N d          -8.228  45.369   0.219  0.00  0.00     0.083 H 
ATOM     49  H27 O2N d          -6.597  44.618   0.263  0.00  0.00     0.083 H 
BRANCH  47  50
ATOM     50  N37 O2N d          -7.488  44.940   2.175  0.00  0.00    -0.060 N 
ATOM     51  H34 O2N d          -7.913  44.179   2.682  0.00  0.00     0.281 HD
BRANCH  50  52
ATOM     52  C33 O2N d          -8.217  46.240   2.654  0.00  0.00     0.109 C 
ATOM     53  H28 O2N d          -8.947  46.556   1.894  0.00  0.00     0.083 H 
ATOM     54  H29 O2N d          -8.738  46.044   3.603  0.00  0.00     0.083 H 
BRANCH  52  55
ATOM     55  C20 O2N d          -7.182  47.338   2.856  0.00  0.00    -0.013 A 
ATOM     56  C5  O2N d          -6.559  48.040   1.787  0.00  0.00    -0.071 A 
ATOM     57  C10 O2N d          -5.599  49.079   2.005  0.00  0.00    -0.047 A 
ATOM     58  H5  O2N d          -6.822  47.777   0.768  0.00  0.00     0.084 H 
ATOM     59  C21 O2N d          -5.287  49.329   3.319  0.00  0.00     0.106 A 
ATOM     60  H10 O2N d          -5.148  49.631   1.188  0.00  0.00     0.087 H 
ATOM     61  C22 O2N d          -5.898  48.659   4.365  0.00  0.00     0.122 A 
ATOM     62  O41 O2N d          -4.398  50.248   3.785  0.00  0.00    -0.323 OA
ATOM     63  C16 O2N d          -6.847  47.651   4.188  0.00  0.00     0.085 A 
ATOM     64  O42 O2N d          -5.430  49.080   5.616  0.00  0.00    -0.322 OA
ATOM     65  C29 O2N d          -4.525  50.130   5.216  0.00  0.00     0.115 A 
ATOM     66  H18 O2N d          -4.897  51.085   5.614  0.00  0.00     0.118 H 
ATOM     67  H19 O2N d          -3.532  49.918   5.640  0.00  0.00     0.118 H 
BRANCH  63  68
ATOM     68  C28 O2N d          -7.479  47.037   5.417  0.00  0.00     0.212 C 
ATOM     69  O38 O2N d          -8.552  47.605   5.801  0.00  0.00    -0.644 OA
ATOM     70  O40 O2N d          -7.104  45.958   5.978  0.00  0.00    -0.644 OA
ENDBRANCH  63  68
ENDBRANCH  52  55
ENDBRANCH  50  52
BRANCH  50  71
ATOM     71  C34 O2N d          -6.035  44.974   2.539  0.00  0.00     0.099 C 
ATOM     72  H30 O2N d          -5.463  45.042   1.602  0.00  0.00     0.082 H 
ATOM     73  H31 O2N d          -5.866  45.880   3.139  0.00  0.00     0.082 H 
BRANCH  71  74
ATOM     74  C26 O2N d          -5.490  43.808   3.317  0.00  0.00    -0.087 C 
ATOM     75  C25 O2N d          -6.248  43.173   4.228  0.00  0.00    -0.123 C 
ATOM     76  H15 O2N d          -5.840  42.330   4.784  0.00  0.00     0.066 H 
ATOM     77  H16 O2N d          -7.271  43.501   4.409  0.00  0.00     0.066 H 
ATOM     78  H17 O2N d          -4.468  43.475   3.141  0.00  0.00     0.078 H 
ENDBRANCH  71  74
ENDBRANCH  50  71
ENDBRANCH  47  50
ENDBRANCH   6  47
TORSDOF 15
ENDMDL
MODEL 9
REMARK VINA RESULT:      -5.9      2.240      7.089
REMARK  15 active torsions:
REMARK  status: ('A' for Active; 'I' for Inactive)
REMARK    1  A    between atoms: C27_27  and  C15_15 
REMARK    2  A    between atoms: C16_16  and  C28_28 
REMARK    3  A    between atoms: C35_35  and  C17_17 
REMARK    4  A    between atoms: C35_35  and  C18_18 
REMARK    5  A    between atoms: C19_19  and  C32_32 
REMARK    6  A    between atoms: C33_33  and  C20_20 
REMARK    7  A    between atoms: C23_23  and  O43_43 
REMARK    8  A    between atoms: C24_24  and  O44_44 
REMARK    9  A    between atoms: C34_34  and  C26_26 
REMARK       I    between atoms: N36_36  and  C27_27 
REMARK   10  A    between atoms: O43_43  and  C30_30 
REMARK   11  A    between atoms: O44_44  and  C31_31 
REMARK   12  A    between atoms: C32_32  and  N37_37 
REMARK   13  A    between atoms: N37_37  and  C33_33 
REMARK   14  A    between atoms: N37_37  and  C34_34 
REMARK   15  A    between atoms: C35_35  and  N36_36 
ROOT
ATOM      1  C1  O2N d         -14.287  45.357  -1.530  0.00  0.00    -0.082 A 
ATOM      2  C2  O2N d         -13.320  44.427  -1.841  0.00  0.00    -0.082 A 
ATOM      3  C3  O2N d         -13.872  46.549  -0.949  0.00  0.00    -0.067 A 
ATOM      4  C4  O2N d         -11.975  44.656  -1.602  0.00  0.00    -0.074 A 
ATOM      5  C15 O2N d         -12.533  46.796  -0.700  0.00  0.00     0.040 A 
ATOM      6  C19 O2N d         -11.568  45.845  -1.027  0.00  0.00    -0.017 A 
ATOM      7  H1  O2N d         -15.335  45.166  -1.730  0.00  0.00     0.083 H 
ATOM      8  H2  O2N d         -13.622  43.486  -2.287  0.00  0.00     0.083 H 
ATOM      9  H3  O2N d         -14.609  47.299  -0.686  0.00  0.00     0.085 H 
ATOM     10  H4  O2N d         -11.241  43.903  -1.867  0.00  0.00     0.084 H 
ENDROOT
BRANCH   5  11
ATOM     11  C27 O2N d         -12.146  48.095  -0.108  0.00  0.00     0.253 C 
ATOM     12  N36 O2N d         -11.338  48.082   1.030  0.00  0.00    -0.344 N 
ATOM     13  H33 O2N d         -11.078  47.203   1.428  0.00  0.00     0.163 HD
ATOM     14  O39 O2N d         -12.582  49.119  -0.642  0.00  0.00    -0.268 OA
BRANCH  12  15
ATOM     15  C35 O2N d         -10.863  49.303   1.654  0.00  0.00     0.063 C 
ATOM     16  H32 O2N d         -11.423  50.150   1.231  0.00  0.00     0.088 H 
BRANCH  15  17
ATOM     17  C17 O2N d          -9.386  49.517   1.277  0.00  0.00    -0.031 A 
ATOM     18  C6  O2N d          -8.887  49.023   0.078  0.00  0.00    -0.072 A 
ATOM     19  C11 O2N d          -7.545  49.178  -0.291  0.00  0.00    -0.050 A 
ATOM     20  H6  O2N d          -9.558  48.500  -0.594  0.00  0.00     0.084 H 
ATOM     21  C23 O2N d          -6.713  49.912   0.594  0.00  0.00     0.068 A 
ATOM     22  H11 O2N d          -7.158  48.757  -1.212  0.00  0.00     0.087 H 
ATOM     23  C12 O2N d          -7.163  50.385   1.816  0.00  0.00    -0.050 A 
ATOM     24  C7  O2N d          -8.514  50.173   2.130  0.00  0.00    -0.072 A 
ATOM     25  H12 O2N d          -6.499  50.899   2.501  0.00  0.00     0.087 H 
ATOM     26  H7  O2N d          -8.891  50.537   3.078  0.00  0.00     0.084 H 
BRANCH  21  27
ATOM     27  O43 O2N d          -5.370  50.070   0.214  0.00  0.00    -0.356 OA
BRANCH  27  28
ATOM     28  C30 O2N d          -4.373  50.418   1.199  0.00  0.00     0.010 C 
ATOM     29  H20 O2N d          -3.414  49.952   0.931  0.00  0.00     0.066 H 
ATOM     30  H21 O2N d          -4.693  50.057   2.187  0.00  0.00     0.066 H 
ATOM     31  H22 O2N d          -4.254  51.511   1.229  0.00  0.00     0.066 H 
ENDBRANCH  27  28
ENDBRANCH  21  27
ENDBRANCH  15  17
BRANCH  15  32
ATOM     32  C18 O2N d         -11.196  49.254   3.143  0.00  0.00    -0.031 A 
ATOM     33  C8  O2N d         -12.236  50.065   3.583  0.00  0.00    -0.072 A 
ATOM     34  C13 O2N d         -12.605  50.028   4.926  0.00  0.00    -0.050 A 
ATOM     35  H8  O2N d         -12.753  50.718   2.890  0.00  0.00     0.084 H 
ATOM     36  C24 O2N d         -11.951  49.213   5.843  0.00  0.00     0.068 A 
ATOM     37  H13 O2N d         -13.424  50.652   5.265  0.00  0.00     0.087 H 
ATOM     38  C14 O2N d         -10.907  48.391   5.463  0.00  0.00    -0.050 A 
ATOM     39  C9  O2N d         -10.589  48.430   4.084  0.00  0.00    -0.072 A 
ATOM     40  H14 O2N d         -10.373  47.765   6.168  0.00  0.00     0.087 H 
ATOM     41  H9  O2N d          -9.810  47.763   3.733  0.00  0.00     0.084 H 
BRANCH  36  42
ATOM     42  O44 O2N d         -12.412  49.296   7.157  0.00  0.00    -0.356 OA
BRANCH  42  43
ATOM     43  C31 O2N d         -13.804  49.604   7.226  0.00  0.00     0.010 C 
ATOM     44  H23 O2N d         -14.052  50.355   6.460  0.00  0.00     0.066 H 
ATOM     45  H24 O2N d         -14.042  50.005   8.222  0.00  0.00     0.066 H 
ATOM     46  H25 O2N d         -14.391  48.691   7.048  0.00  0.00     0.066 H 
ENDBRANCH  42  43
ENDBRANCH  36  42
ENDBRANCH  15  32
ENDBRANCH  12  15
ENDBRANCH   5  11
BRANCH   6  47
ATOM     47  C32 O2N d         -10.107  46.058  -0.806  0.00  0.00     0.109 C 
ATOM     48  H26 O2N d          -9.957  47.108  -0.514  0.00  0.00     0.083 H 
ATOM     49  H27 O2N d          -9.588  45.864  -1.756  0.00  0.00     0.083 H 
BRANCH  47  50
ATOM     50  N37 O2N d          -9.474  45.179   0.262  0.00  0.00    -0.060 N 
ATOM     51  H34 O2N d          -9.834  45.499   1.148  0.00  0.00     0.281 HD
BRANCH  50  52
ATOM     52  C33 O2N d          -7.914  45.234   0.382  0.00  0.00     0.109 C 
ATOM     53  H28 O2N d          -7.482  44.290   0.018  0.00  0.00     0.083 H 
ATOM     54  H29 O2N d          -7.527  46.071  -0.218  0.00  0.00     0.083 H 
BRANCH  52  55
ATOM     55  C20 O2N d          -7.541  45.438   1.843  0.00  0.00    -0.013 A 
ATOM     56  C5  O2N d          -7.814  46.633   2.567  0.00  0.00    -0.071 A 
ATOM     57  C10 O2N d          -7.465  46.793   3.946  0.00  0.00    -0.047 A 
ATOM     58  H5  O2N d          -8.304  47.453   2.054  0.00  0.00     0.084 H 
ATOM     59  C21 O2N d          -6.812  45.728   4.518  0.00  0.00     0.106 A 
ATOM     60  H10 O2N d          -7.700  47.694   4.501  0.00  0.00     0.087 H 
ATOM     61  C22 O2N d          -6.555  44.558   3.825  0.00  0.00     0.122 A 
ATOM     62  O41 O2N d          -6.363  45.641   5.800  0.00  0.00    -0.323 OA
ATOM     63  C16 O2N d          -6.892  44.364   2.484  0.00  0.00     0.085 A 
ATOM     64  O42 O2N d          -5.886  43.609   4.607  0.00  0.00    -0.322 OA
ATOM     65  C29 O2N d          -5.834  44.303   5.871  0.00  0.00     0.115 A 
ATOM     66  H18 O2N d          -6.418  43.734   6.608  0.00  0.00     0.118 H 
ATOM     67  H19 O2N d          -4.785  44.357   6.198  0.00  0.00     0.118 H 
BRANCH  63  68
ATOM     68  C28 O2N d          -6.606  43.017   1.860  0.00  0.00     0.212 C 
ATOM     69  O38 O2N d          -5.378  42.803   1.601  0.00  0.00    -0.644 OA
ATOM     70  O40 O2N d          -7.452  42.077   1.716  0.00  0.00    -0.644 OA
ENDBRANCH  63  68
ENDBRANCH  52  55
ENDBRANCH  50  52
BRANCH  50  71
ATOM     71  C34 O2N d          -9.947  43.772   0.059  0.00  0.00     0.099 C 
ATOM     72  H30 O2N d          -9.885  43.260   1.030  0.00  0.00     0.082 H 
ATOM     73  H31 O2N d         -10.998  43.820  -0.263  0.00  0.00     0.082 H 
BRANCH  71  74
ATOM     74  C26 O2N d          -9.207  42.931  -0.944  0.00  0.00    -0.087 C 
ATOM     75  C25 O2N d          -9.722  41.768  -1.381  0.00  0.00    -0.123 C 
ATOM     76  H15 O2N d          -9.175  41.169  -2.108  0.00  0.00     0.066 H 
ATOM     77  H16 O2N d         -10.687  41.426  -1.010  0.00  0.00     0.066 H 
ATOM     78  H17 O2N d          -8.241  43.267  -1.320  0.00  0.00     0.078 H 
ENDBRANCH  71  74
ENDBRANCH  50  71
ENDBRANCH  47  50
ENDBRANCH   6  47
TORSDOF 15
ENDMDL
MODEL 10
REMARK VINA RESULT:      -5.9      2.468      6.364
REMARK  15 active torsions:
REMARK  status: ('A' for Active; 'I' for Inactive)
REMARK    1  A    between atoms: C27_27  and  C15_15 
REMARK    2  A    between atoms: C16_16  and  C28_28 
REMARK    3  A    between atoms: C35_35  and  C17_17 
REMARK    4  A    between atoms: C35_35  and  C18_18 
REMARK    5  A    between atoms: C19_19  and  C32_32 
REMARK    6  A    between atoms: C33_33  and  C20_20 
REMARK    7  A    between atoms: C23_23  and  O43_43 
REMARK    8  A    between atoms: C24_24  and  O44_44 
REMARK    9  A    between atoms: C34_34  and  C26_26 
REMARK       I    between atoms: N36_36  and  C27_27 
REMARK   10  A    between atoms: O43_43  and  C30_30 
REMARK   11  A    between atoms: O44_44  and  C31_31 
REMARK   12  A    between atoms: C32_32  and  N37_37 
REMARK   13  A    between atoms: N37_37  and  C33_33 
REMARK   14  A    between atoms: N37_37  and  C34_34 
REMARK   15  A    between atoms: C35_35  and  N36_36 
ROOT
ATOM      1  C1  O2N d          -9.202  50.904  -1.917  0.00  0.00    -0.082 A 
ATOM      2  C2  O2N d          -9.733  49.699  -2.319  0.00  0.00    -0.082 A 
ATOM      3  C3  O2N d          -8.877  51.048  -0.574  0.00  0.00    -0.067 A 
ATOM      4  C4  O2N d          -9.934  48.651  -1.435  0.00  0.00    -0.074 A 
ATOM      5  C15 O2N d          -9.072  50.015   0.326  0.00  0.00     0.040 A 
ATOM      6  C19 O2N d          -9.606  48.800  -0.102  0.00  0.00    -0.017 A 
ATOM      7  H1  O2N d          -9.043  51.711  -2.622  0.00  0.00     0.083 H 
ATOM      8  H2  O2N d         -10.003  49.567  -3.361  0.00  0.00     0.083 H 
ATOM      9  H3  O2N d          -8.462  51.987  -0.224  0.00  0.00     0.085 H 
ATOM     10  H4  O2N d         -10.349  47.714  -1.790  0.00  0.00     0.084 H 
ENDROOT
BRANCH   5  11
ATOM     11  C27 O2N d          -8.680  50.214   1.738  0.00  0.00     0.253 C 
ATOM     12  N36 O2N d          -9.262  49.393   2.703  0.00  0.00    -0.344 N 
ATOM     13  H33 O2N d          -9.950  48.725   2.418  0.00  0.00     0.163 HD
ATOM     14  O39 O2N d          -7.873  51.116   1.984  0.00  0.00    -0.268 OA
BRANCH  12  15
ATOM     15  C35 O2N d          -8.905  49.476   4.107  0.00  0.00     0.063 C 
ATOM     16  H32 O2N d          -8.303  50.384   4.258  0.00  0.00     0.088 H 
BRANCH  15  17
ATOM     17  C17 O2N d          -8.004  48.281   4.466  0.00  0.00    -0.031 A 
ATOM     18  C6  O2N d          -7.206  48.318   5.603  0.00  0.00    -0.072 A 
ATOM     19  C11 O2N d          -6.357  47.260   5.951  0.00  0.00    -0.050 A 
ATOM     20  H6  O2N d          -7.241  49.194   6.241  0.00  0.00     0.084 H 
ATOM     21  C23 O2N d          -6.378  46.113   5.117  0.00  0.00     0.068 A 
ATOM     22  H11 O2N d          -5.712  47.315   6.821  0.00  0.00     0.087 H 
ATOM     23  C12 O2N d          -7.130  46.055   3.954  0.00  0.00    -0.050 A 
ATOM     24  C7  O2N d          -7.940  47.161   3.655  0.00  0.00    -0.072 A 
ATOM     25  H12 O2N d          -7.094  45.189   3.302  0.00  0.00     0.087 H 
ATOM     26  H7  O2N d          -8.540  47.137   2.753  0.00  0.00     0.084 H 
BRANCH  21  27
ATOM     27  O43 O2N d          -5.530  45.053   5.477  0.00  0.00    -0.356 OA
BRANCH  27  28
ATOM     28  C30 O2N d          -4.376  44.740   4.667  0.00  0.00     0.010 C 
ATOM     29  H20 O2N d          -4.359  45.396   3.785  0.00  0.00     0.066 H 
ATOM     30  H21 O2N d          -4.429  43.691   4.343  0.00  0.00     0.066 H 
ATOM     31  H22 O2N d          -3.461  44.895   5.257  0.00  0.00     0.066 H 
ENDBRANCH  27  28
ENDBRANCH  21  27
ENDBRANCH  15  17
BRANCH  15  32
ATOM     32  C18 O2N d         -10.180  49.653   4.928  0.00  0.00    -0.031 A 
ATOM     33  C8  O2N d         -10.784  50.904   4.894  0.00  0.00    -0.072 A 
ATOM     34  C13 O2N d         -11.971  51.106   5.595  0.00  0.00    -0.050 A 
ATOM     35  H8  O2N d         -10.336  51.713   4.329  0.00  0.00     0.084 H 
ATOM     36  C24 O2N d         -12.562  50.092   6.342  0.00  0.00     0.068 A 
ATOM     37  H13 O2N d         -12.446  52.079   5.558  0.00  0.00     0.087 H 
ATOM     38  C14 O2N d         -12.003  48.831   6.417  0.00  0.00    -0.050 A 
ATOM     39  C9  O2N d         -10.819  48.657   5.659  0.00  0.00    -0.072 A 
ATOM     40  H14 O2N d         -12.438  48.035   7.010  0.00  0.00     0.087 H 
ATOM     41  H9  O2N d         -10.375  47.668   5.648  0.00  0.00     0.084 H 
BRANCH  36  42
ATOM     42  O44 O2N d         -13.734  50.444   7.011  0.00  0.00    -0.356 OA
BRANCH  42  43
ATOM     43  C31 O2N d         -14.574  51.290   6.225  0.00  0.00     0.010 C 
ATOM     44  H23 O2N d         -15.210  50.672   5.573  0.00  0.00     0.066 H 
ATOM     45  H24 O2N d         -13.951  51.953   5.608  0.00  0.00     0.066 H 
ATOM     46  H25 O2N d         -15.208  51.895   6.889  0.00  0.00     0.066 H 
ENDBRANCH  42  43
ENDBRANCH  36  42
ENDBRANCH  15  32
ENDBRANCH  12  15
ENDBRANCH   5  11
BRANCH   6  47
ATOM     47  C32 O2N d          -9.821  47.639   0.812  0.00  0.00     0.109 C 
ATOM     48  H26 O2N d         -10.784  47.782   1.323  0.00  0.00     0.083 H 
ATOM     49  H27 O2N d          -9.009  47.636   1.554  0.00  0.00     0.083 H 
BRANCH  47  50
ATOM     50  N37 O2N d          -9.845  46.275   0.138  0.00  0.00    -0.060 N 
ATOM     51  H34 O2N d         -10.013  46.442  -0.842  0.00  0.00     0.281 HD
BRANCH  50  52
ATOM     52  C33 O2N d         -10.961  45.281   0.606  0.00  0.00     0.109 C 
ATOM     53  H28 O2N d         -10.499  44.343   0.949  0.00  0.00     0.083 H 
ATOM     54  H29 O2N d         -11.533  45.731   1.431  0.00  0.00     0.083 H 
BRANCH  52  55
ATOM     55  C20 O2N d         -11.889  44.997  -0.565  0.00  0.00    -0.013 A 
ATOM     56  C5  O2N d         -11.510  44.230  -1.702  0.00  0.00    -0.071 A 
ATOM     57  C10 O2N d         -12.408  43.964  -2.784  0.00  0.00    -0.047 A 
ATOM     58  H5  O2N d         -10.503  43.832  -1.750  0.00  0.00     0.084 H 
ATOM     59  C21 O2N d         -13.654  44.533  -2.672  0.00  0.00     0.106 A 
ATOM     60  H10 O2N d         -12.125  43.355  -3.635  0.00  0.00     0.087 H 
ATOM     61  C22 O2N d         -14.034  45.269  -1.564  0.00  0.00     0.122 A 
ATOM     62  O41 O2N d         -14.674  44.445  -3.570  0.00  0.00    -0.323 OA
ATOM     63  C16 O2N d         -13.188  45.536  -0.486  0.00  0.00     0.085 A 
ATOM     64  O42 O2N d         -15.347  45.746  -1.663  0.00  0.00    -0.322 OA
ATOM     65  C29 O2N d         -15.745  45.155  -2.918  0.00  0.00     0.115 A 
ATOM     66  H18 O2N d         -16.568  44.451  -2.729  0.00  0.00     0.118 H 
ATOM     67  H19 O2N d         -16.093  45.955  -3.588  0.00  0.00     0.118 H 
BRANCH  63  68
ATOM     68  C28 O2N d         -13.745  46.307   0.689  0.00  0.00     0.212 C 
ATOM     69  O38 O2N d         -13.559  47.565   0.635  0.00  0.00    -0.644 OA
ATOM     70  O40 O2N d         -14.475  45.819   1.611  0.00  0.00    -0.644 OA
ENDBRANCH  63  68
ENDBRANCH  52  55
ENDBRANCH  50  52
BRANCH  50  71
ATOM     71  C34 O2N d          -8.487  45.658   0.268  0.00  0.00     0.099 C 
ATOM     72  H30 O2N d          -7.775  46.469   0.481  0.00  0.00     0.082 H 
ATOM     73  H31 O2N d          -8.519  44.965   1.122  0.00  0.00     0.082 H 
BRANCH  71  74
ATOM     74  C26 O2N d          -7.958  44.892  -0.914  0.00  0.00    -0.087 C 
ATOM     75  C25 O2N d          -7.922  43.548  -0.902  0.00  0.00    -0.123 C 
ATOM     76  H15 O2N d          -7.538  43.006  -1.765  0.00  0.00     0.066 H 
ATOM     77  H16 O2N d          -8.279  43.000  -0.030  0.00  0.00     0.066 H 
ATOM     78  H17 O2N d          -7.601  45.432  -1.789  0.00  0.00     0.078 H 
ENDBRANCH  71  74
ENDBRANCH  50  71
ENDBRANCH  47  50
ENDBRANCH   6  47
TORSDOF 15
ENDMDL
