MODEL 1
REMARK VINA RESULT:      -4.5      0.000      0.000
REMARK  13 active torsions:
REMARK  status: ('A' for Active; 'I' for Inactive)
REMARK    1  A    between atoms: C_1  and  CH3_3 
REMARK       I    between atoms: N_4  and  C_1 
REMARK    2  A    between atoms: CA_5  and  N_4 
REMARK    3  A    between atoms: C_6  and  CA_5 
REMARK    4  A    between atoms: CA_5  and  CB_8 
REMARK       I    between atoms: N_26  and  C_6 
REMARK    5  A    between atoms: CB_8  and  CG_9 
REMARK    6  A    between atoms: CZ_14  and  OH_15 
REMARK    7  A    between atoms: OH_15  and  P_16 
REMARK    8  A    between atoms: CA_28  and  N_26 
REMARK    9  A    between atoms: C_27  and  CA_28 
REMARK       I    between atoms: C_27  and  N_29 
REMARK   10  A    between atoms: N_29  and  CA_30 
REMARK   11  A    between atoms: CA_30  and  C_31 
REMARK   12  A    between atoms: CA_30  and  CB_33 
REMARK       I    between atoms: C_31  and  N_37 
REMARK   13  A    between atoms: CB_33  and  CG_34 
REMARK       I    between atoms: CG_34  and  ND2_36 
ROOT
ATOM      1  CD  ACE d           9.822  -7.804  -1.947  0.00  0.00    -0.065 C 
ATOM      2  CG  ACE d           9.822  -6.495  -1.114  0.00  0.00    -0.062 C 
ATOM      3  CE  ACE d           9.179  -8.933  -1.118  0.00  0.00    -0.062 C 
ATOM      4  CB  ACE d          10.580  -6.645   0.246  0.00  0.00    -0.033 C 
ATOM      5  CH  ACE d           9.863  -9.068   0.255  0.00  0.00    -0.033 C 
ATOM      6  CA  ACE d           9.977  -7.780   1.094  0.00  0.00     0.114 C 
ATOM      7  H12 ACE d          10.856  -8.078  -2.202  0.00  0.00     0.033 H 
ATOM      8  H13 ACE d           9.244  -7.653  -2.871  0.00  0.00     0.033 H 
ATOM      9  H14 ACE d           8.780  -6.209  -0.908  0.00  0.00     0.033 H 
ATOM     10  H15 ACE d          10.308  -5.703  -1.703  0.00  0.00     0.033 H 
ATOM     11  H16 ACE d           9.279  -9.882  -1.665  0.00  0.00     0.033 H 
ATOM     12  H17 ACE d           8.112  -8.706  -0.968  0.00  0.00     0.033 H 
ATOM     13  H18 ACE d          10.504  -5.700   0.805  0.00  0.00     0.037 H 
ATOM     14  H19 ACE d          11.638  -6.869   0.045  0.00  0.00     0.037 H 
ATOM     15  H20 ACE d          10.881  -9.447   0.086  0.00  0.00     0.037 H 
ATOM     16  H21 ACE d           9.292  -9.801   0.843  0.00  0.00     0.037 H 
ENDROOT
BRANCH   6  17
ATOM     17  N   ACE d           8.611  -7.450   1.517  0.00  0.00    -0.341 N 
ATOM     18  C   ACE d           8.049  -7.933   2.618  0.00  0.00     0.241 C 
ATOM     19  O   ACE d           8.616  -8.670   3.410  0.00  0.00    -0.271 OA
ATOM     20  H22 ACE d           8.075  -6.830   0.945  0.00  0.00     0.163 HD
BRANCH  18  21
ATOM     21  CA  ACE d           6.608  -7.506   2.856  0.00  0.00     0.093 C 
ATOM     22  H5  ACE d           5.929  -8.127   2.253  0.00  0.00     0.088 H 
BRANCH  21  23
ATOM     23  N   ACE d           6.307  -7.673   4.303  0.00  0.00    -0.348 N 
ATOM     24  C   ACE d           5.124  -8.169   4.705  0.00  0.00     0.214 C 
ATOM     25  O   ACE d           4.238  -8.555   3.933  0.00  0.00    -0.274 OA
ATOM     26  H4  ACE d           6.993  -7.412   4.984  0.00  0.00     0.163 HD
BRANCH  24  27
ATOM     27  CH3 ACE d           4.905  -8.265   6.236  0.00  0.00    -0.003 C 
ATOM     28  H1  ACE d           5.531  -9.070   6.647  0.00  0.00     0.040 H 
ATOM     29  H2  ACE d           3.847  -8.481   6.442  0.00  0.00     0.040 H 
ATOM     30  H3  ACE d           5.182  -7.310   6.706  0.00  0.00     0.040 H 
ENDBRANCH  24  27
ENDBRANCH  21  23
BRANCH  21  31
ATOM     31  CB  ACE d           6.423  -5.993   2.477  0.00  0.00    -0.014 C 
ATOM     32  H6  ACE d           7.411  -5.519   2.387  0.00  0.00     0.043 H 
ATOM     33  H7  ACE d           5.844  -5.491   3.266  0.00  0.00     0.043 H 
BRANCH  31  34
ATOM     34  CG  ACE d           5.681  -5.866   1.151  0.00  0.00    -0.056 A 
ATOM     35  CD1 ACE d           5.014  -6.977   0.670  0.00  0.00    -0.074 A 
ATOM     36  CE1 ACE d           4.412  -6.898  -0.586  0.00  0.00    -0.050 A 
ATOM     37  H8  ACE d           4.961  -7.889   1.255  0.00  0.00     0.084 H 
ATOM     38  CZ  ACE d           4.454  -5.696  -1.325  0.00  0.00     0.082 A 
ATOM     39  H10 ACE d           3.907  -7.765  -0.996  0.00  0.00     0.087 H 
ATOM     40  CE2 ACE d           5.128  -4.578  -0.856  0.00  0.00    -0.050 A 
ATOM     41  CD2 ACE d           5.725  -4.641   0.426  0.00  0.00    -0.074 A 
ATOM     42  H11 ACE d           5.195  -3.677  -1.456  0.00  0.00     0.087 H 
ATOM     43  H9  ACE d           6.209  -3.770   0.850  0.00  0.00     0.084 H 
BRANCH  38  44
ATOM     44  OH  ACE d           3.809  -5.800  -2.538  0.00  0.00    -0.240 OA
BRANCH  44  45
ATOM     45  P   ACE d           4.585  -6.111  -3.964  0.00  0.00     0.427 P 
ATOM     46  O1P ACE d           3.692  -7.252  -4.589  0.00  0.00    -0.617 OA
ATOM     47  O2P ACE d           4.603  -4.943  -4.853  0.00  0.00    -0.617 OA
ATOM     48  O3P ACE d           5.906  -6.684  -3.621  0.00  0.00    -0.617 OA
ENDBRANCH  44  45
ENDBRANCH  38  44
ENDBRANCH  31  34
ENDBRANCH  21  31
ENDBRANCH  18  21
ENDBRANCH   6  17
BRANCH   6  49
ATOM     49  C   ACE d          10.871  -7.921   2.361  0.00  0.00     0.246 C 
ATOM     50  O   ACE d          11.513  -8.977   2.647  0.00  0.00    -0.271 OA
ATOM     51  N   ACE d          11.011  -6.776   3.065  0.00  0.00    -0.345 N 
ATOM     52  H23 ACE d          10.519  -5.956   2.772  0.00  0.00     0.163 HD
BRANCH  51  53
ATOM     53  CA  ACE d          11.874  -6.714   4.254  0.00  0.00     0.097 C 
ATOM     54  H24 ACE d          12.906  -6.562   3.906  0.00  0.00     0.088 H 
BRANCH  53  55
ATOM     55  C   ACE d          11.868  -8.012   5.056  0.00  0.00     0.238 C 
ATOM     56  O   ACE d          10.916  -8.279   5.766  0.00  0.00    -0.271 OA
ATOM     57  N   ACE d          12.961  -8.748   5.055  0.00  0.00    -0.368 N 
ATOM     58  H29 ACE d          12.988  -9.604   5.572  0.00  0.00     0.159 HD
ATOM     59  H30 ACE d          13.764  -8.451   4.538  0.00  0.00     0.159 HD
ENDBRANCH  53  55
BRANCH  53  60
ATOM     60  CB  ACE d          11.483  -5.474   5.106  0.00  0.00     0.036 C 
ATOM     61  H25 ACE d          12.369  -4.834   5.233  0.00  0.00     0.051 H 
ATOM     62  H26 ACE d          11.131  -5.813   6.091  0.00  0.00     0.051 H 
BRANCH  60  63
ATOM     63  CG  ACE d          10.357  -4.644   4.426  0.00  0.00     0.217 C 
ATOM     64  OD1 ACE d          10.541  -4.162   3.284  0.00  0.00    -0.274 OA
ATOM     65  ND2 ACE d           9.247  -4.511   5.137  0.00  0.00    -0.370 N 
ATOM     66  H27 ACE d           8.476  -3.991   4.769  0.00  0.00     0.159 HD
ATOM     67  H28 ACE d           9.180  -4.930   6.043  0.00  0.00     0.159 HD
ENDBRANCH  60  63
ENDBRANCH  53  60
ENDBRANCH  51  53
ENDBRANCH   6  49
TORSDOF 13
ENDMDL
MODEL 2
REMARK VINA RESULT:      -4.4      3.398      6.158
REMARK  13 active torsions:
REMARK  status: ('A' for Active; 'I' for Inactive)
REMARK    1  A    between atoms: C_1  and  CH3_3 
REMARK       I    between atoms: N_4  and  C_1 
REMARK    2  A    between atoms: CA_5  and  N_4 
REMARK    3  A    between atoms: C_6  and  CA_5 
REMARK    4  A    between atoms: CA_5  and  CB_8 
REMARK       I    between atoms: N_26  and  C_6 
REMARK    5  A    between atoms: CB_8  and  CG_9 
REMARK    6  A    between atoms: CZ_14  and  OH_15 
REMARK    7  A    between atoms: OH_15  and  P_16 
REMARK    8  A    between atoms: CA_28  and  N_26 
REMARK    9  A    between atoms: C_27  and  CA_28 
REMARK       I    between atoms: C_27  and  N_29 
REMARK   10  A    between atoms: N_29  and  CA_30 
REMARK   11  A    between atoms: CA_30  and  C_31 
REMARK   12  A    between atoms: CA_30  and  CB_33 
REMARK       I    between atoms: C_31  and  N_37 
REMARK   13  A    between atoms: CB_33  and  CG_34 
REMARK       I    between atoms: CG_34  and  ND2_36 
ROOT
ATOM      1  CD  ACE d           3.885  -7.737   3.390  0.00  0.00    -0.065 C 
ATOM      2  CG  ACE d           5.000  -8.772   3.696  0.00  0.00    -0.062 C 
ATOM      3  CE  ACE d           4.406  -6.722   2.354  0.00  0.00    -0.062 C 
ATOM      4  CB  ACE d           6.313  -8.107   4.226  0.00  0.00    -0.033 C 
ATOM      5  CH  ACE d           5.732  -6.091   2.818  0.00  0.00    -0.033 C 
ATOM      6  CA  ACE d           6.851  -7.069   3.225  0.00  0.00     0.114 C 
ATOM      7  H12 ACE d           3.609  -7.210   4.315  0.00  0.00     0.033 H 
ATOM      8  H13 ACE d           3.003  -8.255   2.986  0.00  0.00     0.033 H 
ATOM      9  H14 ACE d           5.232  -9.323   2.772  0.00  0.00     0.033 H 
ATOM     10  H15 ACE d           4.629  -9.475   4.457  0.00  0.00     0.033 H 
ATOM     11  H16 ACE d           3.656  -5.927   2.221  0.00  0.00     0.033 H 
ATOM     12  H17 ACE d           4.568  -7.237   1.396  0.00  0.00     0.033 H 
ATOM     13  H18 ACE d           7.074  -8.887   4.380  0.00  0.00     0.037 H 
ATOM     14  H19 ACE d           6.101  -7.607   5.183  0.00  0.00     0.037 H 
ATOM     15  H20 ACE d           5.513  -5.453   3.687  0.00  0.00     0.037 H 
ATOM     16  H21 ACE d           6.113  -5.470   1.995  0.00  0.00     0.037 H 
ENDROOT
BRANCH   6  17
ATOM     17  N   ACE d           7.293  -7.717   1.984  0.00  0.00    -0.341 N 
ATOM     18  C   ACE d           8.170  -7.176   1.148  0.00  0.00     0.241 C 
ATOM     19  O   ACE d           8.725  -6.104   1.336  0.00  0.00    -0.271 OA
ATOM     20  H22 ACE d           6.913  -8.614   1.757  0.00  0.00     0.163 HD
BRANCH  18  21
ATOM     21  CA  ACE d           8.461  -7.987  -0.107  0.00  0.00     0.093 C 
ATOM     22  H5  ACE d           7.786  -8.854  -0.158  0.00  0.00     0.088 H 
BRANCH  21  23
ATOM     23  N   ACE d           8.256  -7.106  -1.287  0.00  0.00    -0.348 N 
ATOM     24  C   ACE d           7.531  -7.526  -2.339  0.00  0.00     0.214 C 
ATOM     25  O   ACE d           6.959  -8.622  -2.391  0.00  0.00    -0.274 OA
ATOM     26  H4  ACE d           8.662  -6.191  -1.299  0.00  0.00     0.163 HD
BRANCH  24  27
ATOM     27  CH3 ACE d           7.413  -6.540  -3.529  0.00  0.00    -0.003 C 
ATOM     28  H1  ACE d           6.431  -6.659  -4.008  0.00  0.00     0.040 H 
ATOM     29  H2  ACE d           8.206  -6.753  -4.260  0.00  0.00     0.040 H 
ATOM     30  H3  ACE d           7.520  -5.509  -3.162  0.00  0.00     0.040 H 
ENDBRANCH  24  27
ENDBRANCH  21  23
BRANCH  21  31
ATOM     31  CB  ACE d           9.954  -8.475  -0.100  0.00  0.00    -0.014 C 
ATOM     32  H6  ACE d           9.999  -9.509  -0.470  0.00  0.00     0.043 H 
ATOM     33  H7  ACE d          10.343  -8.436   0.929  0.00  0.00     0.043 H 
BRANCH  31  34
ATOM     34  CG  ACE d          10.808  -7.583  -0.994  0.00  0.00    -0.056 A 
ATOM     35  CD1 ACE d          11.195  -8.079  -2.225  0.00  0.00    -0.074 A 
ATOM     36  CE1 ACE d          12.053  -7.308  -3.011  0.00  0.00    -0.050 A 
ATOM     37  H8  ACE d          10.841  -9.043  -2.572  0.00  0.00     0.084 H 
ATOM     38  CZ  ACE d          12.480  -6.037  -2.568  0.00  0.00     0.082 A 
ATOM     39  H10 ACE d          12.393  -7.687  -3.967  0.00  0.00     0.087 H 
ATOM     40  CE2 ACE d          12.104  -5.534  -1.331  0.00  0.00    -0.050 A 
ATOM     41  CD2 ACE d          11.218  -6.300  -0.535  0.00  0.00    -0.074 A 
ATOM     42  H11 ACE d          12.481  -4.579  -0.983  0.00  0.00     0.087 H 
ATOM     43  H9  ACE d          10.857  -5.914   0.411  0.00  0.00     0.084 H 
BRANCH  38  44
ATOM     44  OH  ACE d          13.320  -5.421  -3.469  0.00  0.00    -0.240 OA
BRANCH  44  45
ATOM     45  P   ACE d          13.045  -5.380  -5.098  0.00  0.00     0.427 P 
ATOM     46  O1P ACE d          13.733  -6.713  -5.588  0.00  0.00    -0.617 OA
ATOM     47  O2P ACE d          11.612  -5.406  -5.420  0.00  0.00    -0.617 OA
ATOM     48  O3P ACE d          13.808  -4.232  -5.637  0.00  0.00    -0.617 OA
ENDBRANCH  44  45
ENDBRANCH  38  44
ENDBRANCH  31  34
ENDBRANCH  21  31
ENDBRANCH  18  21
ENDBRANCH   6  17
BRANCH   6  49
ATOM     49  C   ACE d           8.081  -6.388   3.896  0.00  0.00     0.246 C 
ATOM     50  O   ACE d           8.011  -5.289   4.525  0.00  0.00    -0.271 OA
ATOM     51  N   ACE d           9.206  -7.135   3.866  0.00  0.00    -0.345 N 
ATOM     52  H23 ACE d           9.198  -8.018   3.396  0.00  0.00     0.163 HD
BRANCH  51  53
ATOM     53  CA  ACE d          10.444  -6.672   4.512  0.00  0.00     0.097 C 
ATOM     54  H24 ACE d          10.161  -5.937   5.279  0.00  0.00     0.088 H 
BRANCH  53  55
ATOM     55  C   ACE d          11.384  -5.958   3.545  0.00  0.00     0.238 C 
ATOM     56  O   ACE d          12.442  -6.476   3.237  0.00  0.00    -0.271 OA
ATOM     57  N   ACE d          11.076  -4.734   3.169  0.00  0.00    -0.368 N 
ATOM     58  H29 ACE d          11.672  -4.239   2.536  0.00  0.00     0.159 HD
ATOM     59  H30 ACE d          10.245  -4.297   3.517  0.00  0.00     0.159 HD
ENDBRANCH  53  55
BRANCH  53  60
ATOM     60  CB  ACE d          11.119  -7.869   5.240  0.00  0.00     0.036 C 
ATOM     61  H25 ACE d          10.446  -8.232   6.030  0.00  0.00     0.051 H 
ATOM     62  H26 ACE d          12.062  -7.526   5.692  0.00  0.00     0.051 H 
BRANCH  60  63
ATOM     63  CG  ACE d          11.424  -9.038   4.261  0.00  0.00     0.217 C 
ATOM     64  OD1 ACE d          10.483  -9.732   3.808  0.00  0.00    -0.274 OA
ATOM     65  ND2 ACE d          12.705  -9.210   3.970  0.00  0.00    -0.370 N 
ATOM     66  H27 ACE d          12.982  -9.942   3.347  0.00  0.00     0.159 HD
ATOM     67  H28 ACE d          13.394  -8.609   4.374  0.00  0.00     0.159 HD
ENDBRANCH  60  63
ENDBRANCH  53  60
ENDBRANCH  51  53
ENDBRANCH   6  49
TORSDOF 13
ENDMDL
MODEL 3
REMARK VINA RESULT:      -3.3      3.526      7.598
REMARK  13 active torsions:
REMARK  status: ('A' for Active; 'I' for Inactive)
REMARK    1  A    between atoms: C_1  and  CH3_3 
REMARK       I    between atoms: N_4  and  C_1 
REMARK    2  A    between atoms: CA_5  and  N_4 
REMARK    3  A    between atoms: C_6  and  CA_5 
REMARK    4  A    between atoms: CA_5  and  CB_8 
REMARK       I    between atoms: N_26  and  C_6 
REMARK    5  A    between atoms: CB_8  and  CG_9 
REMARK    6  A    between atoms: CZ_14  and  OH_15 
REMARK    7  A    between atoms: OH_15  and  P_16 
REMARK    8  A    between atoms: CA_28  and  N_26 
REMARK    9  A    between atoms: C_27  and  CA_28 
REMARK       I    between atoms: C_27  and  N_29 
REMARK   10  A    between atoms: N_29  and  CA_30 
REMARK   11  A    between atoms: CA_30  and  C_31 
REMARK   12  A    between atoms: CA_30  and  CB_33 
REMARK       I    between atoms: C_31  and  N_37 
REMARK   13  A    between atoms: CB_33  and  CG_34 
REMARK       I    between atoms: CG_34  and  ND2_36 
ROOT
ATOM      1  CD  ACE d          12.760  -5.837  -2.138  0.00  0.00    -0.065 C 
ATOM      2  CG  ACE d          11.899  -6.889  -2.886  0.00  0.00    -0.062 C 
ATOM      3  CE  ACE d          11.860  -5.029  -1.185  0.00  0.00    -0.062 C 
ATOM      4  CB  ACE d          10.726  -6.245  -3.694  0.00  0.00    -0.033 C 
ATOM      5  CH  ACE d          10.658  -4.429  -1.938  0.00  0.00    -0.033 C 
ATOM      6  CA  ACE d           9.814  -5.410  -2.776  0.00  0.00     0.114 C 
ATOM      7  H12 ACE d          13.228  -5.159  -2.867  0.00  0.00     0.033 H 
ATOM      8  H13 ACE d          13.544  -6.348  -1.558  0.00  0.00     0.033 H 
ATOM      9  H14 ACE d          11.477  -7.588  -2.148  0.00  0.00     0.033 H 
ATOM     10  H15 ACE d          12.546  -7.441  -3.584  0.00  0.00     0.033 H 
ATOM     11  H16 ACE d          12.448  -4.213  -0.739  0.00  0.00     0.033 H 
ATOM     12  H17 ACE d          11.490  -5.693  -0.389  0.00  0.00     0.033 H 
ATOM     13  H18 ACE d          10.130  -7.043  -4.162  0.00  0.00     0.037 H 
ATOM     14  H19 ACE d          11.143  -5.593  -4.476  0.00  0.00     0.037 H 
ATOM     15  H20 ACE d          11.041  -3.653  -2.617  0.00  0.00     0.037 H 
ATOM     16  H21 ACE d           9.993  -3.967  -1.194  0.00  0.00     0.037 H 
ENDROOT
BRANCH   6  17
ATOM     17  N   ACE d           9.114  -6.266  -1.812  0.00  0.00    -0.341 N 
ATOM     18  C   ACE d           8.499  -7.393  -2.147  0.00  0.00     0.241 C 
ATOM     19  O   ACE d           8.478  -7.853  -3.279  0.00  0.00    -0.271 OA
ATOM     20  H22 ACE d           9.100  -5.986  -0.852  0.00  0.00     0.163 HD
BRANCH  18  21
ATOM     21  CA  ACE d           7.792  -8.114  -1.007  0.00  0.00     0.093 C 
ATOM     22  H5  ACE d           7.925  -9.200  -1.112  0.00  0.00     0.088 H 
BRANCH  21  23
ATOM     23  N   ACE d           8.382  -7.645   0.275  0.00  0.00    -0.348 N 
ATOM     24  C   ACE d           9.448  -8.269   0.808  0.00  0.00     0.214 C 
ATOM     25  O   ACE d          10.030  -9.221   0.274  0.00  0.00    -0.274 OA
ATOM     26  H4  ACE d           7.982  -6.858   0.746  0.00  0.00     0.163 HD
BRANCH  24  27
ATOM     27  CH3 ACE d           9.956  -7.719   2.165  0.00  0.00    -0.003 C 
ATOM     28  H1  ACE d          11.056  -7.703   2.165  0.00  0.00     0.040 H 
ATOM     29  H2  ACE d           9.599  -8.365   2.979  0.00  0.00     0.040 H 
ATOM     30  H3  ACE d           9.575  -6.698   2.312  0.00  0.00     0.040 H 
ENDBRANCH  24  27
ENDBRANCH  21  23
BRANCH  21  31
ATOM     31  CB  ACE d           6.261  -7.762  -1.012  0.00  0.00    -0.014 C 
ATOM     32  H6  ACE d           5.714  -8.534  -1.571  0.00  0.00     0.043 H 
ATOM     33  H7  ACE d           6.116  -6.785  -1.497  0.00  0.00     0.043 H 
BRANCH  31  34
ATOM     34  CG  ACE d           5.727  -7.700   0.415  0.00  0.00    -0.056 A 
ATOM     35  CD1 ACE d           4.920  -8.734   0.851  0.00  0.00    -0.074 A 
ATOM     36  CE1 ACE d           4.351  -8.640   2.121  0.00  0.00    -0.050 A 
ATOM     37  H8  ACE d           4.734  -9.596   0.221  0.00  0.00     0.084 H 
ATOM     38  CZ  ACE d           4.627  -7.530   2.949  0.00  0.00     0.082 A 
ATOM     39  H10 ACE d           3.692  -9.425   2.475  0.00  0.00     0.087 H 
ATOM     40  CE2 ACE d           5.428  -6.483   2.518  0.00  0.00    -0.050 A 
ATOM     41  CD2 ACE d           6.027  -6.578   1.239  0.00  0.00    -0.074 A 
ATOM     42  H11 ACE d           5.591  -5.614   3.145  0.00  0.00     0.087 H 
ATOM     43  H9  ACE d           6.705  -5.808   0.891  0.00  0.00     0.084 H 
BRANCH  38  44
ATOM     44  OH  ACE d           3.982  -7.606   4.164  0.00  0.00    -0.240 OA
BRANCH  44  45
ATOM     45  P   ACE d           4.768  -7.672   5.616  0.00  0.00     0.427 P 
ATOM     46  O1P ACE d           4.052  -8.884   6.329  0.00  0.00    -0.617 OA
ATOM     47  O2P ACE d           6.200  -7.956   5.460  0.00  0.00    -0.617 OA
ATOM     48  O3P ACE d           4.431  -6.431   6.347  0.00  0.00    -0.617 OA
ENDBRANCH  44  45
ENDBRANCH  38  44
ENDBRANCH  31  34
ENDBRANCH  21  31
ENDBRANCH  18  21
ENDBRANCH   6  17
BRANCH   6  49
ATOM     49  C   ACE d           8.758  -4.722  -3.691  0.00  0.00     0.246 C 
ATOM     50  O   ACE d           9.049  -4.163  -4.792  0.00  0.00    -0.271 OA
ATOM     51  N   ACE d           7.482  -4.888  -3.278  0.00  0.00    -0.345 N 
ATOM     52  H23 ACE d           7.302  -5.377  -2.425  0.00  0.00     0.163 HD
BRANCH  51  53
ATOM     53  CA  ACE d           6.354  -4.360  -4.060  0.00  0.00     0.097 C 
ATOM     54  H24 ACE d           6.402  -3.262  -4.009  0.00  0.00     0.088 H 
BRANCH  53  55
ATOM     55  C   ACE d           4.999  -4.767  -3.491  0.00  0.00     0.238 C 
ATOM     56  O   ACE d           4.935  -5.277  -2.386  0.00  0.00    -0.271 OA
ATOM     57  N   ACE d           3.942  -4.672  -4.272  0.00  0.00    -0.368 N 
ATOM     58  H29 ACE d           3.040  -4.932  -3.928  0.00  0.00     0.159 HD
ATOM     59  H30 ACE d           4.042  -4.340  -5.210  0.00  0.00     0.159 HD
ENDBRANCH  53  55
BRANCH  53  60
ATOM     60  CB  ACE d           6.532  -4.764  -5.551  0.00  0.00     0.036 C 
ATOM     61  H25 ACE d           7.515  -4.417  -5.900  0.00  0.00     0.051 H 
ATOM     62  H26 ACE d           5.741  -4.286  -6.147  0.00  0.00     0.051 H 
BRANCH  60  63
ATOM     63  CG  ACE d           6.444  -6.306  -5.740  0.00  0.00     0.217 C 
ATOM     64  OD1 ACE d           5.323  -6.861  -5.818  0.00  0.00    -0.274 OA
ATOM     65  ND2 ACE d           7.610  -6.932  -5.809  0.00  0.00    -0.370 N 
ATOM     66  H27 ACE d           7.638  -7.924  -5.930  0.00  0.00     0.159 HD
ATOM     67  H28 ACE d           8.461  -6.412  -5.740  0.00  0.00     0.159 HD
ENDBRANCH  60  63
ENDBRANCH  53  60
ENDBRANCH  51  53
ENDBRANCH   6  49
TORSDOF 13
ENDMDL
MODEL 4
REMARK VINA RESULT:      -3.2      3.176      7.136
REMARK  13 active torsions:
REMARK  status: ('A' for Active; 'I' for Inactive)
REMARK    1  A    between atoms: C_1  and  CH3_3 
REMARK       I    between atoms: N_4  and  C_1 
REMARK    2  A    between atoms: CA_5  and  N_4 
REMARK    3  A    between atoms: C_6  and  CA_5 
REMARK    4  A    between atoms: CA_5  and  CB_8 
REMARK       I    between atoms: N_26  and  C_6 
REMARK    5  A    between atoms: CB_8  and  CG_9 
REMARK    6  A    between atoms: CZ_14  and  OH_15 
REMARK    7  A    between atoms: OH_15  and  P_16 
REMARK    8  A    between atoms: CA_28  and  N_26 
REMARK    9  A    between atoms: C_27  and  CA_28 
REMARK       I    between atoms: C_27  and  N_29 
REMARK   10  A    between atoms: N_29  and  CA_30 
REMARK   11  A    between atoms: CA_30  and  C_31 
REMARK   12  A    between atoms: CA_30  and  CB_33 
REMARK       I    between atoms: C_31  and  N_37 
REMARK   13  A    between atoms: CB_33  and  CG_34 
REMARK       I    between atoms: CG_34  and  ND2_36 
ROOT
ATOM      1  CD  ACE d           4.180  -8.884   3.736  0.00  0.00    -0.065 C 
ATOM      2  CG  ACE d           3.690  -7.746   2.802  0.00  0.00    -0.062 C 
ATOM      3  CE  ACE d           5.720  -8.912   3.738  0.00  0.00    -0.062 C 
ATOM      4  CB  ACE d           4.215  -7.899   1.336  0.00  0.00    -0.033 C 
ATOM      5  CH  ACE d           6.273  -9.002   2.303  0.00  0.00    -0.033 C 
ATOM      6  CA  ACE d           5.753  -7.952   1.301  0.00  0.00     0.114 C 
ATOM      7  H12 ACE d           3.795  -9.849   3.373  0.00  0.00     0.033 H 
ATOM      8  H13 ACE d           3.814  -8.705   4.758  0.00  0.00     0.033 H 
ATOM      9  H14 ACE d           4.044  -6.785   3.204  0.00  0.00     0.033 H 
ATOM     10  H15 ACE d           2.590  -7.753   2.785  0.00  0.00     0.033 H 
ATOM     11  H16 ACE d           6.064  -9.786   4.311  0.00  0.00     0.033 H 
ATOM     12  H17 ACE d           6.096  -7.992   4.211  0.00  0.00     0.033 H 
ATOM     13  H18 ACE d           3.871  -7.041   0.740  0.00  0.00     0.037 H 
ATOM     14  H19 ACE d           3.813  -8.829   0.907  0.00  0.00     0.037 H 
ATOM     15  H20 ACE d           6.018  -9.996   1.908  0.00  0.00     0.037 H 
ATOM     16  H21 ACE d           7.366  -8.899   2.358  0.00  0.00     0.037 H 
ENDROOT
BRANCH   6  17
ATOM     17  N   ACE d           6.332  -6.671   1.722  0.00  0.00    -0.341 N 
ATOM     18  C   ACE d           6.105  -5.524   1.094  0.00  0.00     0.241 C 
ATOM     19  O   ACE d           5.368  -5.407   0.126  0.00  0.00    -0.271 OA
ATOM     20  H22 ACE d           6.929  -6.661   2.524  0.00  0.00     0.163 HD
BRANCH  18  21
ATOM     21  CA  ACE d           6.835  -4.314   1.660  0.00  0.00     0.093 C 
ATOM     22  H5  ACE d           6.239  -3.405   1.494  0.00  0.00     0.088 H 
BRANCH  21  23
ATOM     23  N   ACE d           7.039  -4.535   3.117  0.00  0.00    -0.348 N 
ATOM     24  C   ACE d           5.990  -4.594   3.955  0.00  0.00     0.214 C 
ATOM     25  O   ACE d           4.810  -4.516   3.592  0.00  0.00    -0.274 OA
ATOM     26  H4  ACE d           7.967  -4.641   3.476  0.00  0.00     0.163 HD
BRANCH  24  27
ATOM     27  CH3 ACE d           6.321  -4.791   5.456  0.00  0.00    -0.003 C 
ATOM     28  H1  ACE d           5.911  -3.952   6.036  0.00  0.00     0.040 H 
ATOM     29  H2  ACE d           7.412  -4.829   5.588  0.00  0.00     0.040 H 
ATOM     30  H3  ACE d           5.877  -5.733   5.809  0.00  0.00     0.040 H 
ENDBRANCH  24  27
ENDBRANCH  21  23
BRANCH  21  31
ATOM     31  CB  ACE d           8.240  -4.162   0.975  0.00  0.00    -0.014 C 
ATOM     32  H6  ACE d           8.547  -3.107   1.009  0.00  0.00     0.043 H 
ATOM     33  H7  ACE d           8.169  -4.491  -0.072  0.00  0.00     0.043 H 
BRANCH  31  34
ATOM     34  CG  ACE d           9.278  -5.012   1.700  0.00  0.00    -0.056 A 
ATOM     35  CD1 ACE d           9.967  -5.960   0.966  0.00  0.00    -0.074 A 
ATOM     36  CE1 ACE d          10.851  -6.805   1.639  0.00  0.00    -0.050 A 
ATOM     37  H8  ACE d           9.824  -6.045  -0.104  0.00  0.00     0.084 H 
ATOM     38  CZ  ACE d          11.059  -6.663   3.028  0.00  0.00     0.082 A 
ATOM     39  H10 ACE d          11.381  -7.575   1.091  0.00  0.00     0.087 H 
ATOM     40  CE2 ACE d          10.367  -5.720   3.774  0.00  0.00    -0.050 A 
ATOM     41  CD2 ACE d           9.483  -4.845   3.098  0.00  0.00    -0.074 A 
ATOM     42  H11 ACE d          10.499  -5.656   4.848  0.00  0.00     0.087 H 
ATOM     43  H9  ACE d           8.969  -4.059   3.638  0.00  0.00     0.084 H 
BRANCH  38  44
ATOM     44  OH  ACE d          11.962  -7.579   3.522  0.00  0.00    -0.240 OA
BRANCH  44  45
ATOM     45  P   ACE d          11.547  -8.828   4.520  0.00  0.00     0.427 P 
ATOM     46  O1P ACE d          10.422  -9.560   3.690  0.00  0.00    -0.617 OA
ATOM     47  O2P ACE d          12.669  -9.743   4.763  0.00  0.00    -0.617 OA
ATOM     48  O3P ACE d          10.928  -8.230   5.725  0.00  0.00    -0.617 OA
ENDBRANCH  44  45
ENDBRANCH  38  44
ENDBRANCH  31  34
ENDBRANCH  21  31
ENDBRANCH  18  21
ENDBRANCH   6  17
BRANCH   6  49
ATOM     49  C   ACE d           6.163  -8.223  -0.176  0.00  0.00     0.246 C 
ATOM     50  O   ACE d           5.351  -8.154  -1.149  0.00  0.00    -0.271 OA
ATOM     51  N   ACE d           7.490  -8.409  -0.353  0.00  0.00    -0.345 N 
ATOM     52  H23 ACE d           8.096  -8.409   0.442  0.00  0.00     0.163 HD
BRANCH  51  53
ATOM     53  CA  ACE d           8.058  -8.612  -1.694  0.00  0.00     0.097 C 
ATOM     54  H24 ACE d           7.280  -9.079  -2.315  0.00  0.00     0.088 H 
BRANCH  53  55
ATOM     55  C   ACE d           9.250  -9.564  -1.693  0.00  0.00     0.238 C 
ATOM     56  O   ACE d           9.299 -10.471  -2.504  0.00  0.00    -0.271 OA
ATOM     57  N   ACE d          10.133  -9.454  -0.722  0.00  0.00    -0.368 N 
ATOM     58  H29 ACE d          10.925 -10.064  -0.694  0.00  0.00     0.159 HD
ATOM     59  H30 ACE d          10.013  -8.759  -0.013  0.00  0.00     0.159 HD
ENDBRANCH  53  55
BRANCH  53  60
ATOM     60  CB  ACE d           8.389  -7.229  -2.324  0.00  0.00     0.036 C 
ATOM     61  H25 ACE d           9.479  -7.140  -2.438  0.00  0.00     0.051 H 
ATOM     62  H26 ACE d           8.024  -6.435  -1.656  0.00  0.00     0.051 H 
BRANCH  60  63
ATOM     63  CG  ACE d           7.721  -7.061  -3.719  0.00  0.00     0.217 C 
ATOM     64  OD1 ACE d           7.995  -7.865  -4.641  0.00  0.00    -0.274 OA
ATOM     65  ND2 ACE d           6.880  -6.043  -3.822  0.00  0.00    -0.370 N 
ATOM     66  H27 ACE d           6.410  -5.868  -4.688  0.00  0.00     0.159 HD
ATOM     67  H28 ACE d           6.715  -5.449  -3.035  0.00  0.00     0.159 HD
ENDBRANCH  60  63
ENDBRANCH  53  60
ENDBRANCH  51  53
ENDBRANCH   6  49
TORSDOF 13
ENDMDL
MODEL 5
REMARK VINA RESULT:      -2.8      3.899      7.686
REMARK  13 active torsions:
REMARK  status: ('A' for Active; 'I' for Inactive)
REMARK    1  A    between atoms: C_1  and  CH3_3 
REMARK       I    between atoms: N_4  and  C_1 
REMARK    2  A    between atoms: CA_5  and  N_4 
REMARK    3  A    between atoms: C_6  and  CA_5 
REMARK    4  A    between atoms: CA_5  and  CB_8 
REMARK       I    between atoms: N_26  and  C_6 
REMARK    5  A    between atoms: CB_8  and  CG_9 
REMARK    6  A    between atoms: CZ_14  and  OH_15 
REMARK    7  A    between atoms: OH_15  and  P_16 
REMARK    8  A    between atoms: CA_28  and  N_26 
REMARK    9  A    between atoms: C_27  and  CA_28 
REMARK       I    between atoms: C_27  and  N_29 
REMARK   10  A    between atoms: N_29  and  CA_30 
REMARK   11  A    between atoms: CA_30  and  C_31 
REMARK   12  A    between atoms: CA_30  and  CB_33 
REMARK       I    between atoms: C_31  and  N_37 
REMARK   13  A    between atoms: CB_33  and  CG_34 
REMARK       I    between atoms: CG_34  and  ND2_36 
ROOT
ATOM      1  CD  ACE d           5.552  -8.219   0.293  0.00  0.00    -0.065 C 
ATOM      2  CG  ACE d           5.707  -8.231  -1.251  0.00  0.00    -0.062 C 
ATOM      3  CE  ACE d           6.808  -7.591   0.925  0.00  0.00    -0.062 C 
ATOM      4  CB  ACE d           6.978  -9.009  -1.725  0.00  0.00    -0.033 C 
ATOM      5  CH  ACE d           8.086  -8.296   0.432  0.00  0.00    -0.033 C 
ATOM      6  CA  ACE d           8.254  -8.421  -1.095  0.00  0.00     0.114 C 
ATOM      7  H12 ACE d           5.433  -9.251   0.658  0.00  0.00     0.033 H 
ATOM      8  H13 ACE d           4.666  -7.628   0.570  0.00  0.00     0.033 H 
ATOM      9  H14 ACE d           5.777  -7.192  -1.605  0.00  0.00     0.033 H 
ATOM     10  H15 ACE d           4.818  -8.707  -1.690  0.00  0.00     0.033 H 
ATOM     11  H16 ACE d           6.746  -7.684   2.019  0.00  0.00     0.033 H 
ATOM     12  H17 ACE d           6.855  -6.526   0.649  0.00  0.00     0.033 H 
ATOM     13  H18 ACE d           7.054  -8.941  -2.820  0.00  0.00     0.037 H 
ATOM     14  H19 ACE d           6.885 -10.064  -1.428  0.00  0.00     0.037 H 
ATOM     15  H20 ACE d           8.091  -9.312   0.853  0.00  0.00     0.037 H 
ATOM     16  H21 ACE d           8.949  -7.734   0.819  0.00  0.00     0.037 H 
ENDROOT
BRANCH   6  17
ATOM     17  N   ACE d           8.503  -7.060  -1.587  0.00  0.00    -0.341 N 
ATOM     18  C   ACE d           9.706  -6.503  -1.621  0.00  0.00     0.241 C 
ATOM     19  O   ACE d          10.734  -7.070  -1.280  0.00  0.00    -0.271 OA
ATOM     20  H22 ACE d           7.724  -6.525  -1.914  0.00  0.00     0.163 HD
BRANCH  18  21
ATOM     21  CA  ACE d           9.747  -5.067  -2.124  0.00  0.00     0.093 C 
ATOM     22  H5  ACE d          10.229  -5.029  -3.111  0.00  0.00     0.088 H 
BRANCH  21  23
ATOM     23  N   ACE d           8.348  -4.568  -2.216  0.00  0.00    -0.348 N 
ATOM     24  C   ACE d           7.613  -4.789  -3.320  0.00  0.00     0.214 C 
ATOM     25  O   ACE d           8.009  -5.438  -4.295  0.00  0.00    -0.274 OA
ATOM     26  H4  ACE d           7.951  -4.064  -1.449  0.00  0.00     0.163 HD
BRANCH  24  27
ATOM     27  CH3 ACE d           6.183  -4.192  -3.322  0.00  0.00    -0.003 C 
ATOM     28  H1  ACE d           5.480  -4.923  -2.895  0.00  0.00     0.040 H 
ATOM     29  H2  ACE d           5.885  -3.957  -4.354  0.00  0.00     0.040 H 
ATOM     30  H3  ACE d           6.169  -3.274  -2.718  0.00  0.00     0.040 H 
ENDBRANCH  24  27
ENDBRANCH  21  23
BRANCH  21  31
ATOM     31  CB  ACE d          10.535  -4.162  -1.111  0.00  0.00    -0.014 C 
ATOM     32  H6  ACE d          10.088  -3.157  -1.099  0.00  0.00     0.043 H 
ATOM     33  H7  ACE d          11.586  -4.093  -1.429  0.00  0.00     0.043 H 
BRANCH  31  34
ATOM     34  CG  ACE d          10.473  -4.757   0.292  0.00  0.00    -0.056 A 
ATOM     35  CD1 ACE d          11.636  -5.277   0.828  0.00  0.00    -0.074 A 
ATOM     36  CE1 ACE d          11.569  -5.907   2.071  0.00  0.00    -0.050 A 
ATOM     37  H8  ACE d          12.577  -5.198   0.296  0.00  0.00     0.084 H 
ATOM     38  CZ  ACE d          10.347  -5.974   2.775  0.00  0.00     0.082 A 
ATOM     39  H10 ACE d          12.462  -6.347   2.501  0.00  0.00     0.087 H 
ATOM     40  CE2 ACE d           9.172  -5.462   2.241  0.00  0.00    -0.050 A 
ATOM     41  CD2 ACE d           9.233  -4.804   0.990  0.00  0.00    -0.074 A 
ATOM     42  H11 ACE d           8.231  -5.565   2.770  0.00  0.00     0.087 H 
ATOM     43  H9  ACE d           8.348  -4.341   0.569  0.00  0.00     0.084 H 
BRANCH  38  44
ATOM     44  OH  ACE d          10.468  -6.629   3.981  0.00  0.00    -0.240 OA
BRANCH  44  45
ATOM     45  P   ACE d          11.070  -8.160   4.134  0.00  0.00     0.427 P 
ATOM     46  O1P ACE d          10.257  -8.718   5.366  0.00  0.00    -0.617 OA
ATOM     47  O2P ACE d          10.810  -8.982   2.946  0.00  0.00    -0.617 OA
ATOM     48  O3P ACE d          12.490  -8.027   4.531  0.00  0.00    -0.617 OA
ENDBRANCH  44  45
ENDBRANCH  38  44
ENDBRANCH  31  34
ENDBRANCH  21  31
ENDBRANCH  18  21
ENDBRANCH   6  17
BRANCH   6  49
ATOM     49  C   ACE d           9.437  -9.333  -1.534  0.00  0.00     0.246 C 
ATOM     50  O   ACE d          10.088 -10.066  -0.728  0.00  0.00    -0.271 OA
ATOM     51  N   ACE d           9.628  -9.381  -2.871  0.00  0.00    -0.345 N 
ATOM     52  H23 ACE d           9.057  -8.818  -3.469  0.00  0.00     0.163 HD
BRANCH  51  53
ATOM     53  CA  ACE d          10.661 -10.245  -3.462  0.00  0.00     0.097 C 
ATOM     54  H24 ACE d          10.425 -10.357  -4.531  0.00  0.00     0.088 H 
BRANCH  53  55
ATOM     55  C   ACE d          10.669 -11.648  -2.865  0.00  0.00     0.238 C 
ATOM     56  O   ACE d           9.701 -12.373  -3.010  0.00  0.00    -0.271 OA
ATOM     57  N   ACE d          11.682 -11.990  -2.094  0.00  0.00    -0.368 N 
ATOM     58  H29 ACE d          11.716 -12.903  -1.687  0.00  0.00     0.159 HD
ATOM     59  H30 ACE d          12.417 -11.335  -1.914  0.00  0.00     0.159 HD
ENDBRANCH  53  55
BRANCH  53  60
ATOM     60  CB  ACE d          12.040  -9.535  -3.362  0.00  0.00     0.036 C 
ATOM     61  H25 ACE d          12.763 -10.223  -2.899  0.00  0.00     0.051 H 
ATOM     62  H26 ACE d          11.936  -8.637  -2.736  0.00  0.00     0.051 H 
BRANCH  60  63
ATOM     63  CG  ACE d          12.571  -9.114  -4.763  0.00  0.00     0.217 C 
ATOM     64  OD1 ACE d          13.786  -9.257  -5.037  0.00  0.00    -0.274 OA
ATOM     65  ND2 ACE d          11.658  -8.622  -5.587  0.00  0.00    -0.370 N 
ATOM     66  H27 ACE d          11.921  -8.328  -6.506  0.00  0.00     0.159 HD
ATOM     67  H28 ACE d          10.706  -8.543  -5.289  0.00  0.00     0.159 HD
ENDBRANCH  60  63
ENDBRANCH  53  60
ENDBRANCH  51  53
ENDBRANCH   6  49
TORSDOF 13
ENDMDL
MODEL 6
REMARK VINA RESULT:      -2.4      3.796      7.276
REMARK  13 active torsions:
REMARK  status: ('A' for Active; 'I' for Inactive)
REMARK    1  A    between atoms: C_1  and  CH3_3 
REMARK       I    between atoms: N_4  and  C_1 
REMARK    2  A    between atoms: CA_5  and  N_4 
REMARK    3  A    between atoms: C_6  and  CA_5 
REMARK    4  A    between atoms: CA_5  and  CB_8 
REMARK       I    between atoms: N_26  and  C_6 
REMARK    5  A    between atoms: CB_8  and  CG_9 
REMARK    6  A    between atoms: CZ_14  and  OH_15 
REMARK    7  A    between atoms: OH_15  and  P_16 
REMARK    8  A    between atoms: CA_28  and  N_26 
REMARK    9  A    between atoms: C_27  and  CA_28 
REMARK       I    between atoms: C_27  and  N_29 
REMARK   10  A    between atoms: N_29  and  CA_30 
REMARK   11  A    between atoms: CA_30  and  C_31 
REMARK   12  A    between atoms: CA_30  and  CB_33 
REMARK       I    between atoms: C_31  and  N_37 
REMARK   13  A    between atoms: CB_33  and  CG_34 
REMARK       I    between atoms: CG_34  and  ND2_36 
ROOT
ATOM      1  CD  ACE d           5.688  -4.589  -2.169  0.00  0.00    -0.065 C 
ATOM      2  CG  ACE d           6.515  -4.164  -0.927  0.00  0.00    -0.062 C 
ATOM      3  CE  ACE d           5.632  -6.127  -2.240  0.00  0.00    -0.062 C 
ATOM      4  CB  ACE d           7.969  -4.742  -0.943  0.00  0.00    -0.033 C 
ATOM      5  CH  ACE d           7.047  -6.733  -2.197  0.00  0.00    -0.033 C 
ATOM      6  CA  ACE d           7.953  -6.279  -1.036  0.00  0.00     0.114 C 
ATOM      7  H12 ACE d           6.163  -4.195  -3.080  0.00  0.00     0.033 H 
ATOM      8  H13 ACE d           4.667  -4.187  -2.086  0.00  0.00     0.033 H 
ATOM      9  H14 ACE d           6.003  -4.524  -0.023  0.00  0.00     0.033 H 
ATOM     10  H15 ACE d           6.573  -3.065  -0.902  0.00  0.00     0.033 H 
ATOM     11  H16 ACE d           5.141  -6.426  -3.178  0.00  0.00     0.033 H 
ATOM     12  H17 ACE d           5.052  -6.506  -1.385  0.00  0.00     0.033 H 
ATOM     13  H18 ACE d           8.485  -4.443  -0.019  0.00  0.00     0.037 H 
ATOM     14  H19 ACE d           8.507  -4.335  -1.813  0.00  0.00     0.037 H 
ATOM     15  H20 ACE d           7.553  -6.470  -3.138  0.00  0.00     0.037 H 
ATOM     16  H21 ACE d           6.942  -7.825  -2.132  0.00  0.00     0.037 H 
ENDROOT
BRANCH   6  17
ATOM     17  N   ACE d           7.381  -6.871   0.179  0.00  0.00    -0.341 N 
ATOM     18  C   ACE d           7.416  -6.282   1.367  0.00  0.00     0.241 C 
ATOM     19  O   ACE d           7.894  -5.176   1.570  0.00  0.00    -0.271 OA
ATOM     20  H22 ACE d           6.941  -7.767   0.107  0.00  0.00     0.163 HD
BRANCH  18  21
ATOM     21  CA  ACE d           6.807  -7.081   2.510  0.00  0.00     0.093 C 
ATOM     22  H5  ACE d           6.806  -6.479   3.430  0.00  0.00     0.088 H 
BRANCH  21  23
ATOM     23  N   ACE d           5.415  -7.445   2.133  0.00  0.00    -0.348 N 
ATOM     24  C   ACE d           5.180  -8.320   1.139  0.00  0.00     0.214 C 
ATOM     25  O   ACE d           6.069  -8.906   0.510  0.00  0.00    -0.274 OA
ATOM     26  H4  ACE d           4.646  -7.034   2.623  0.00  0.00     0.163 HD
BRANCH  24  27
ATOM     27  CH3 ACE d           3.692  -8.596   0.806  0.00  0.00    -0.003 C 
ATOM     28  H1  ACE d           3.471  -8.241  -0.211  0.00  0.00     0.040 H 
ATOM     29  H2  ACE d           3.051  -8.067   1.527  0.00  0.00     0.040 H 
ATOM     30  H3  ACE d           3.498  -9.677   0.868  0.00  0.00     0.040 H 
ENDBRANCH  24  27
ENDBRANCH  21  23
BRANCH  21  31
ATOM     31  CB  ACE d           7.624  -8.402   2.740  0.00  0.00    -0.014 C 
ATOM     32  H6  ACE d           7.706  -8.948   1.789  0.00  0.00     0.043 H 
ATOM     33  H7  ACE d           7.101  -9.028   3.478  0.00  0.00     0.043 H 
BRANCH  31  34
ATOM     34  CG  ACE d           9.022  -8.078   3.257  0.00  0.00    -0.056 A 
ATOM     35  CD1 ACE d           9.136  -7.177   4.299  0.00  0.00    -0.074 A 
ATOM     36  CE1 ACE d          10.414  -6.803   4.716  0.00  0.00    -0.050 A 
ATOM     37  H8  ACE d           8.254  -6.770   4.780  0.00  0.00     0.084 H 
ATOM     38  CZ  ACE d          11.558  -7.366   4.108  0.00  0.00     0.082 A 
ATOM     39  H10 ACE d          10.529  -6.077   5.512  0.00  0.00     0.087 H 
ATOM     40  CE2 ACE d          11.454  -8.265   3.057  0.00  0.00    -0.050 A 
ATOM     41  CD2 ACE d          10.162  -8.665   2.640  0.00  0.00    -0.074 A 
ATOM     42  H11 ACE d          12.341  -8.650   2.567  0.00  0.00     0.087 H 
ATOM     43  H9  ACE d          10.043  -9.409   1.861  0.00  0.00     0.084 H 
BRANCH  38  44
ATOM     44  OH  ACE d          12.731  -6.883   4.646  0.00  0.00    -0.240 OA
BRANCH  44  45
ATOM     45  P   ACE d          12.896  -5.359   5.262  0.00  0.00     0.427 P 
ATOM     46  O1P ACE d          13.671  -4.613   4.107  0.00  0.00    -0.617 OA
ATOM     47  O2P ACE d          11.600  -4.710   5.498  0.00  0.00    -0.617 OA
ATOM     48  O3P ACE d          13.791  -5.463   6.436  0.00  0.00    -0.617 OA
ENDBRANCH  44  45
ENDBRANCH  38  44
ENDBRANCH  31  34
ENDBRANCH  21  31
ENDBRANCH  18  21
ENDBRANCH   6  17
BRANCH   6  49
ATOM     49  C   ACE d           9.435  -6.740  -1.165  0.00  0.00     0.246 C 
ATOM     50  O   ACE d          10.362  -6.325  -0.405  0.00  0.00    -0.271 OA
ATOM     51  N   ACE d           9.627  -7.723  -2.071  0.00  0.00    -0.345 N 
ATOM     52  H23 ACE d           8.853  -8.049  -2.614  0.00  0.00     0.163 HD
BRANCH  51  53
ATOM     53  CA  ACE d          10.955  -8.322  -2.274  0.00  0.00     0.097 C 
ATOM     54  H24 ACE d          11.455  -8.357  -1.295  0.00  0.00     0.088 H 
BRANCH  53  55
ATOM     55  C   ACE d          11.845  -7.490  -3.192  0.00  0.00     0.238 C 
ATOM     56  O   ACE d          11.396  -7.053  -4.236  0.00  0.00    -0.271 OA
ATOM     57  N   ACE d          13.121  -7.376  -2.884  0.00  0.00    -0.368 N 
ATOM     58  H29 ACE d          13.730  -6.837  -3.467  0.00  0.00     0.159 HD
ATOM     59  H30 ACE d          13.481  -7.829  -2.069  0.00  0.00     0.159 HD
ENDBRANCH  53  55
BRANCH  53  60
ATOM     60  CB  ACE d          10.785  -9.789  -2.762  0.00  0.00     0.036 C 
ATOM     61  H25 ACE d          11.731 -10.129  -3.208  0.00  0.00     0.051 H 
ATOM     62  H26 ACE d           9.989  -9.823  -3.521  0.00  0.00     0.051 H 
BRANCH  60  63
ATOM     63  CG  ACE d          10.408 -10.742  -1.592  0.00  0.00     0.217 C 
ATOM     64  OD1 ACE d          10.207 -10.273  -0.447  0.00  0.00    -0.274 OA
ATOM     65  ND2 ACE d          10.323 -12.024  -1.914  0.00  0.00    -0.370 N 
ATOM     66  H27 ACE d          10.085 -12.700  -1.217  0.00  0.00     0.159 HD
ATOM     67  H28 ACE d          10.497 -12.316  -2.855  0.00  0.00     0.159 HD
ENDBRANCH  60  63
ENDBRANCH  53  60
ENDBRANCH  51  53
ENDBRANCH   6  49
TORSDOF 13
ENDMDL
MODEL 7
REMARK VINA RESULT:      -2.0      4.091      8.185
REMARK  13 active torsions:
REMARK  status: ('A' for Active; 'I' for Inactive)
REMARK    1  A    between atoms: C_1  and  CH3_3 
REMARK       I    between atoms: N_4  and  C_1 
REMARK    2  A    between atoms: CA_5  and  N_4 
REMARK    3  A    between atoms: C_6  and  CA_5 
REMARK    4  A    between atoms: CA_5  and  CB_8 
REMARK       I    between atoms: N_26  and  C_6 
REMARK    5  A    between atoms: CB_8  and  CG_9 
REMARK    6  A    between atoms: CZ_14  and  OH_15 
REMARK    7  A    between atoms: OH_15  and  P_16 
REMARK    8  A    between atoms: CA_28  and  N_26 
REMARK    9  A    between atoms: C_27  and  CA_28 
REMARK       I    between atoms: C_27  and  N_29 
REMARK   10  A    between atoms: N_29  and  CA_30 
REMARK   11  A    between atoms: CA_30  and  C_31 
REMARK   12  A    between atoms: CA_30  and  CB_33 
REMARK       I    between atoms: C_31  and  N_37 
REMARK   13  A    between atoms: CB_33  and  CG_34 
REMARK       I    between atoms: CG_34  and  ND2_36 
ROOT
ATOM      1  CD  ACE d          13.642  -6.050  -3.444  0.00  0.00    -0.065 C 
ATOM      2  CG  ACE d          12.718  -6.852  -4.399  0.00  0.00    -0.062 C 
ATOM      3  CE  ACE d          12.863  -5.696  -2.163  0.00  0.00    -0.062 C 
ATOM      4  CB  ACE d          11.416  -6.072  -4.775  0.00  0.00    -0.033 C 
ATOM      5  CH  ACE d          11.542  -4.980  -2.501  0.00  0.00    -0.033 C 
ATOM      6  CA  ACE d          10.620  -5.683  -3.516  0.00  0.00     0.114 C 
ATOM      7  H12 ACE d          13.972  -5.126  -3.941  0.00  0.00     0.033 H 
ATOM      8  H13 ACE d          14.520  -6.659  -3.183  0.00  0.00     0.033 H 
ATOM      9  H14 ACE d          12.435  -7.794  -3.906  0.00  0.00     0.033 H 
ATOM     10  H15 ACE d          13.275  -7.075  -5.322  0.00  0.00     0.033 H 
ATOM     11  H16 ACE d          13.480  -5.036  -1.536  0.00  0.00     0.033 H 
ATOM     12  H17 ACE d          12.639  -6.622  -1.611  0.00  0.00     0.033 H 
ATOM     13  H18 ACE d          10.787  -6.710  -5.414  0.00  0.00     0.037 H 
ATOM     14  H19 ACE d          11.690  -5.159  -5.324  0.00  0.00     0.037 H 
ATOM     15  H20 ACE d          11.793  -3.989  -2.907  0.00  0.00     0.037 H 
ATOM     16  H21 ACE d          10.978  -4.859  -1.564  0.00  0.00     0.037 H 
ENDROOT
BRANCH   6  17
ATOM     17  N   ACE d          10.101  -6.874  -2.834  0.00  0.00    -0.341 N 
ATOM     18  C   ACE d           9.368  -7.801  -3.437  0.00  0.00     0.241 C 
ATOM     19  O   ACE d           9.077  -7.781  -4.623  0.00  0.00    -0.271 OA
ATOM     20  H22 ACE d          10.311  -6.993  -1.863  0.00  0.00     0.163 HD
BRANCH  18  21
ATOM     21  CA  ACE d           8.888  -8.937  -2.543  0.00  0.00     0.093 C 
ATOM     22  H5  ACE d           8.275  -9.638  -3.126  0.00  0.00     0.088 H 
BRANCH  21  23
ATOM     23  N   ACE d          10.083  -9.632  -1.994  0.00  0.00    -0.348 N 
ATOM     24  C   ACE d          10.492 -10.804  -2.511  0.00  0.00     0.214 C 
ATOM     25  O   ACE d           9.955 -11.358  -3.478  0.00  0.00    -0.274 OA
ATOM     26  H4  ACE d          10.588  -9.223  -1.233  0.00  0.00     0.163 HD
BRANCH  24  27
ATOM     27  CH3 ACE d          11.726 -11.457  -1.839  0.00  0.00    -0.003 C 
ATOM     28  H1  ACE d          12.093 -12.281  -2.467  0.00  0.00     0.040 H 
ATOM     29  H2  ACE d          11.440 -11.849  -0.851  0.00  0.00     0.040 H 
ATOM     30  H3  ACE d          12.519 -10.705  -1.719  0.00  0.00     0.040 H 
ENDBRANCH  24  27
ENDBRANCH  21  23
BRANCH  21  31
ATOM     31  CB  ACE d           8.049  -8.364  -1.346  0.00  0.00    -0.014 C 
ATOM     32  H6  ACE d           7.396  -9.155  -0.950  0.00  0.00     0.043 H 
ATOM     33  H7  ACE d           7.434  -7.525  -1.704  0.00  0.00     0.043 H 
BRANCH  31  34
ATOM     34  CG  ACE d           8.973  -7.873  -0.237  0.00  0.00    -0.056 A 
ATOM     35  CD1 ACE d           9.714  -8.813   0.454  0.00  0.00    -0.074 A 
ATOM     36  CE1 ACE d          10.491  -8.385   1.531  0.00  0.00    -0.050 A 
ATOM     37  H8  ACE d           9.692  -9.858   0.167  0.00  0.00     0.084 H 
ATOM     38  CZ  ACE d          10.543  -7.017   1.877  0.00  0.00     0.082 A 
ATOM     39  H10 ACE d          11.058  -9.107   2.106  0.00  0.00     0.087 H 
ATOM     40  CE2 ACE d           9.797  -6.066   1.195  0.00  0.00    -0.050 A 
ATOM     41  CD2 ACE d           9.021  -6.488   0.088  0.00  0.00    -0.074 A 
ATOM     42  H11 ACE d           9.808  -5.027   1.502  0.00  0.00     0.087 H 
ATOM     43  H9  ACE d           8.471  -5.766  -0.504  0.00  0.00     0.084 H 
BRANCH  38  44
ATOM     44  OH  ACE d          11.357  -6.778   2.961  0.00  0.00    -0.240 OA
BRANCH  44  45
ATOM     45  P   ACE d          10.816  -6.736   4.522  0.00  0.00     0.427 P 
ATOM     46  O1P ACE d           9.580  -7.717   4.473  0.00  0.00    -0.617 OA
ATOM     47  O2P ACE d          11.817  -7.236   5.472  0.00  0.00    -0.617 OA
ATOM     48  O3P ACE d          10.317  -5.365   4.770  0.00  0.00    -0.617 OA
ENDBRANCH  44  45
ENDBRANCH  38  44
ENDBRANCH  31  34
ENDBRANCH  21  31
ENDBRANCH  18  21
ENDBRANCH   6  17
BRANCH   6  49
ATOM     49  C   ACE d           9.416  -4.817  -3.991  0.00  0.00     0.246 C 
ATOM     50  O   ACE d           9.415  -4.162  -5.078  0.00  0.00    -0.271 OA
ATOM     51  N   ACE d           8.319  -4.927  -3.211  0.00  0.00    -0.345 N 
ATOM     52  H23 ACE d           8.356  -5.493  -2.388  0.00  0.00     0.163 HD
BRANCH  51  53
ATOM     53  CA  ACE d           7.070  -4.228  -3.551  0.00  0.00     0.097 C 
ATOM     54  H24 ACE d           7.322  -3.174  -3.740  0.00  0.00     0.088 H 
BRANCH  53  55
ATOM     55  C   ACE d           6.057  -4.239  -2.410  0.00  0.00     0.238 C 
ATOM     56  O   ACE d           4.867  -4.162  -2.658  0.00  0.00    -0.271 OA
ATOM     57  N   ACE d           6.512  -4.202  -1.174  0.00  0.00    -0.368 N 
ATOM     58  H29 ACE d           5.873  -4.208  -0.405  0.00  0.00     0.159 HD
ATOM     59  H30 ACE d           7.497  -4.168  -1.005  0.00  0.00     0.159 HD
ENDBRANCH  53  55
BRANCH  53  60
ATOM     60  CB  ACE d           6.500  -4.814  -4.874  0.00  0.00     0.036 C 
ATOM     61  H25 ACE d           7.222  -4.635  -5.684  0.00  0.00     0.051 H 
ATOM     62  H26 ACE d           5.552  -4.307  -5.110  0.00  0.00     0.051 H 
BRANCH  60  63
ATOM     63  CG  ACE d           6.239  -6.343  -4.757  0.00  0.00     0.217 C 
ATOM     64  OD1 ACE d           6.311  -7.066  -5.779  0.00  0.00    -0.274 OA
ATOM     65  ND2 ACE d           5.954  -6.775  -3.538  0.00  0.00    -0.370 N 
ATOM     66  H27 ACE d           5.774  -7.746  -3.381  0.00  0.00     0.159 HD
ATOM     67  H28 ACE d           5.919  -6.130  -2.775  0.00  0.00     0.159 HD
ENDBRANCH  60  63
ENDBRANCH  53  60
ENDBRANCH  51  53
ENDBRANCH   6  49
TORSDOF 13
ENDMDL
