MODEL 1
REMARK VINA RESULT:      -9.3      0.000      0.000
REMARK  7 active torsions:
REMARK  status: ('A' for Active; 'I' for Inactive)
REMARK    1  A    between atoms: O2_1  and  C2_2 
REMARK    2  A    between atoms: C3_3  and  O3_4 
REMARK    3  A    between atoms: C4_5  and  O4_6 
REMARK    4  A    between atoms: C5_7  and  C6_8 
REMARK    5  A    between atoms: C6_8  and  O6_9 
REMARK    6  A    between atoms: N1_12  and  C9_14 
REMARK    7  A    between atoms: C9_14  and  C10_15 
ROOT
ATOM      1  C2  VBZ d          27.637  45.838  -0.718  0.00  0.00     0.090 C 
ATOM      2  C3  VBZ d          27.982  46.995   0.191  0.00  0.00     0.094 C 
ATOM      3  C4  VBZ d          28.016  48.235  -0.710  0.00  0.00     0.116 C 
ATOM      4  C5  VBZ d          26.702  48.239  -1.523  0.00  0.00     0.002 C 
ATOM      5  C7  VBZ d          26.770  47.151  -2.600  0.00  0.00    -0.028 C 
ATOM      6  C8  VBZ d          29.269  48.168  -1.600  0.00  0.00     0.115 C 
ATOM      7  N1  VBZ d          29.213  46.939  -2.429  0.00  0.00    -0.058 N 
ATOM      8  C1  VBZ d          27.912  46.245  -2.190  0.00  0.00     0.132 C 
ATOM      9  H2  VBZ d          26.557  45.650  -0.627  0.00  0.00     0.090 H 
ATOM     10  H3  VBZ d          27.230  47.120   0.983  0.00  0.00     0.091 H 
ATOM     11  H6  VBZ d          25.920  47.923  -0.817  0.00  0.00     0.048 H 
ATOM     12  H10 VBZ d          26.968  47.597  -3.586  0.00  0.00     0.036 H 
ATOM     13  H11 VBZ d          25.826  46.587  -2.637  0.00  0.00     0.036 H 
ATOM     14  H12 VBZ d          30.169  48.144  -0.967  0.00  0.00     0.081 H 
ATOM     15  H13 VBZ d          29.303  49.052  -2.254  0.00  0.00     0.081 H 
ATOM     16  H14 VBZ d          29.966  46.336  -2.138  0.00  0.00     0.281 HD
ATOM     17  H15 VBZ d          27.899  45.335  -2.809  0.00  0.00     0.088 H 
ENDROOT
BRANCH   7  18
ATOM     18  C9  VBZ d          29.357  47.182  -3.912  0.00  0.00     0.108 C 
ATOM     19  H16 VBZ d          28.483  47.761  -4.243  0.00  0.00     0.083 H 
ATOM     20  H17 VBZ d          29.361  46.203  -4.414  0.00  0.00     0.083 H 
BRANCH  18  21
ATOM     21  C10 VBZ d          30.606  47.933  -4.350  0.00  0.00    -0.033 A 
ATOM     22  C11 VBZ d          31.887  47.476  -4.029  0.00  0.00    -0.075 A 
ATOM     23  C12 VBZ d          33.033  48.184  -4.449  0.00  0.00    -0.082 A 
ATOM     24  H18 VBZ d          32.001  46.567  -3.449  0.00  0.00     0.084 H 
ATOM     25  C13 VBZ d          32.903  49.377  -5.177  0.00  0.00    -0.083 A 
ATOM     26  H19 VBZ d          34.020  47.805  -4.208  0.00  0.00     0.083 H 
ATOM     27  C14 VBZ d          31.625  49.856  -5.479  0.00  0.00    -0.082 A 
ATOM     28  H22 VBZ d          33.783  49.921  -5.501  0.00  0.00     0.083 H 
ATOM     29  C15 VBZ d          30.491  49.132  -5.070  0.00  0.00    -0.075 A 
ATOM     30  H21 VBZ d          31.508  50.784  -6.029  0.00  0.00     0.083 H 
ATOM     31  H20 VBZ d          29.505  49.509  -5.316  0.00  0.00     0.084 H 
ENDBRANCH  18  21
ENDBRANCH   7  18
BRANCH   3  32
ATOM     32  O4  VBZ d          28.046  49.409   0.143  0.00  0.00    -0.385 OA
ATOM     33  H5  VBZ d          27.974  50.190  -0.394  0.00  0.00     0.210 HD
ENDBRANCH   3  32
BRANCH   1  34
ATOM     34  O2  VBZ d          28.301  44.646  -0.321  0.00  0.00    -0.391 OA
ATOM     35  H1  VBZ d          29.016  44.469  -0.921  0.00  0.00     0.210 HD
ENDBRANCH   1  34
BRANCH   2  36
ATOM     36  O3  VBZ d          29.234  46.714   0.759  0.00  0.00    -0.390 OA
ATOM     37  H4  VBZ d          29.443  47.376   1.406  0.00  0.00     0.210 HD
ENDBRANCH   2  36
BRANCH   4  38
ATOM     38  C6  VBZ d          26.217  49.586  -2.063  0.00  0.00     0.023 C 
ATOM     39  H7  VBZ d          26.021  50.273  -1.226  0.00  0.00     0.074 H 
ATOM     40  H8  VBZ d          25.293  49.442  -2.643  0.00  0.00     0.074 H 
BRANCH  38  41
ATOM     41  O6  VBZ d          27.227  50.127  -2.899  0.00  0.00    -0.400 OA
ATOM     42  H9  VBZ d          27.215  49.680  -3.738  0.00  0.00     0.209 HD
ENDBRANCH  38  41
ENDBRANCH   4  38
TORSDOF 7
ENDMDL
MODEL 2
REMARK VINA RESULT:      -8.4      1.461      2.179
REMARK  7 active torsions:
REMARK  status: ('A' for Active; 'I' for Inactive)
REMARK    1  A    between atoms: O2_1  and  C2_2 
REMARK    2  A    between atoms: C3_3  and  O3_4 
REMARK    3  A    between atoms: C4_5  and  O4_6 
REMARK    4  A    between atoms: C5_7  and  C6_8 
REMARK    5  A    between atoms: C6_8  and  O6_9 
REMARK    6  A    between atoms: N1_12  and  C9_14 
REMARK    7  A    between atoms: C9_14  and  C10_15 
ROOT
ATOM      1  C2  VBZ d          27.724  45.854  -0.892  0.00  0.00     0.090 C 
ATOM      2  C3  VBZ d          27.957  46.852   0.218  0.00  0.00     0.094 C 
ATOM      3  C4  VBZ d          27.963  48.229  -0.456  0.00  0.00     0.116 C 
ATOM      4  C5  VBZ d          26.693  48.309  -1.333  0.00  0.00     0.002 C 
ATOM      5  C7  VBZ d          26.876  47.427  -2.572  0.00  0.00    -0.028 C 
ATOM      6  C8  VBZ d          29.260  48.376  -1.270  0.00  0.00     0.115 C 
ATOM      7  N1  VBZ d          29.317  47.308  -2.297  0.00  0.00    -0.058 N 
ATOM      8  C1  VBZ d          28.047  46.520  -2.255  0.00  0.00     0.132 C 
ATOM      9  H2  VBZ d          26.653  45.600  -0.896  0.00  0.00     0.090 H 
ATOM     10  H3  VBZ d          27.160  46.802   0.975  0.00  0.00     0.091 H 
ATOM     11  H6  VBZ d          25.897  47.839  -0.736  0.00  0.00     0.048 H 
ATOM     12  H10 VBZ d          27.097  48.045  -3.454  0.00  0.00     0.036 H 
ATOM     13  H11 VBZ d          25.969  46.832  -2.758  0.00  0.00     0.036 H 
ATOM     14  H12 VBZ d          30.128  48.288  -0.599  0.00  0.00     0.081 H 
ATOM     15  H13 VBZ d          29.275  49.360  -1.762  0.00  0.00     0.081 H 
ATOM     16  H14 VBZ d          30.087  46.701  -2.068  0.00  0.00     0.281 HD
ATOM     17  H15 VBZ d          28.117  45.731  -3.018  0.00  0.00     0.088 H 
ENDROOT
BRANCH   7  18
ATOM     18  C9  VBZ d          29.519  47.808  -3.706  0.00  0.00     0.108 C 
ATOM     19  H16 VBZ d          30.327  48.554  -3.684  0.00  0.00     0.083 H 
ATOM     20  H17 VBZ d          28.584  48.291  -4.029  0.00  0.00     0.083 H 
BRANCH  18  21
ATOM     21  C10 VBZ d          29.884  46.758  -4.745  0.00  0.00    -0.033 A 
ATOM     22  C11 VBZ d          29.026  45.697  -5.046  0.00  0.00    -0.075 A 
ATOM     23  C12 VBZ d          29.379  44.735  -6.017  0.00  0.00    -0.082 A 
ATOM     24  H18 VBZ d          28.077  45.611  -4.527  0.00  0.00     0.084 H 
ATOM     25  C13 VBZ d          30.614  44.817  -6.679  0.00  0.00    -0.083 A 
ATOM     26  H19 VBZ d          28.693  43.930  -6.253  0.00  0.00     0.083 H 
ATOM     27  C14 VBZ d          31.490  45.860  -6.365  0.00  0.00    -0.082 A 
ATOM     28  H22 VBZ d          30.885  44.079  -7.426  0.00  0.00     0.083 H 
ATOM     29  C15 VBZ d          31.118  46.821  -5.408  0.00  0.00    -0.075 A 
ATOM     30  H21 VBZ d          32.453  45.927  -6.858  0.00  0.00     0.083 H 
ATOM     31  H20 VBZ d          31.802  47.630  -5.177  0.00  0.00     0.084 H 
ENDBRANCH  18  21
ENDBRANCH   7  18
BRANCH   3  32
ATOM     32  O4  VBZ d          27.883  49.239   0.583  0.00  0.00    -0.385 OA
ATOM     33  H5  VBZ d          27.561  48.843   1.384  0.00  0.00     0.210 HD
ENDBRANCH   3  32
BRANCH   1  34
ATOM     34  O2  VBZ d          28.435  44.645  -0.664  0.00  0.00    -0.391 OA
ATOM     35  H1  VBZ d          27.967  44.120  -0.024  0.00  0.00     0.210 HD
ENDBRANCH   1  34
BRANCH   2  36
ATOM     36  O3  VBZ d          29.193  46.539   0.803  0.00  0.00    -0.390 OA
ATOM     37  H4  VBZ d          29.788  46.223   0.133  0.00  0.00     0.210 HD
ENDBRANCH   2  36
BRANCH   4  38
ATOM     38  C6  VBZ d          26.158  49.704  -1.664  0.00  0.00     0.023 C 
ATOM     39  H7  VBZ d          26.209  50.344  -0.771  0.00  0.00     0.074 H 
ATOM     40  H8  VBZ d          25.114  49.630  -2.003  0.00  0.00     0.074 H 
BRANCH  38  41
ATOM     41  O6  VBZ d          26.956  50.259  -2.697  0.00  0.00    -0.400 OA
ATOM     42  H9  VBZ d          27.771  49.775  -2.761  0.00  0.00     0.209 HD
ENDBRANCH  38  41
ENDBRANCH   4  38
TORSDOF 7
ENDMDL
MODEL 3
REMARK VINA RESULT:      -6.9      1.472      3.474
REMARK  7 active torsions:
REMARK  status: ('A' for Active; 'I' for Inactive)
REMARK    1  A    between atoms: O2_1  and  C2_2 
REMARK    2  A    between atoms: C3_3  and  O3_4 
REMARK    3  A    between atoms: C4_5  and  O4_6 
REMARK    4  A    between atoms: C5_7  and  C6_8 
REMARK    5  A    between atoms: C6_8  and  O6_9 
REMARK    6  A    between atoms: N1_12  and  C9_14 
REMARK    7  A    between atoms: C9_14  and  C10_15 
ROOT
ATOM      1  C2  VBZ d          27.242  49.350  -1.985  0.00  0.00     0.090 C 
ATOM      2  C3  VBZ d          26.167  48.315  -2.222  0.00  0.00     0.094 C 
ATOM      3  C4  VBZ d          26.813  46.963  -1.896  0.00  0.00     0.116 C 
ATOM      4  C5  VBZ d          27.479  47.103  -0.508  0.00  0.00     0.002 C 
ATOM      5  C7  VBZ d          28.745  47.957  -0.636  0.00  0.00    -0.028 C 
ATOM      6  C8  VBZ d          27.818  46.614  -3.007  0.00  0.00     0.115 C 
ATOM      7  N1  VBZ d          28.858  47.670  -3.076  0.00  0.00    -0.058 N 
ATOM      8  C1  VBZ d          28.629  48.655  -1.975  0.00  0.00     0.132 C 
ATOM      9  H2  VBZ d          27.083  49.776  -0.983  0.00  0.00     0.090 H 
ATOM     10  H3  VBZ d          25.296  48.487  -1.573  0.00  0.00     0.091 H 
ATOM     11  H6  VBZ d          26.772  47.691   0.096  0.00  0.00     0.048 H 
ATOM     12  H10 VBZ d          29.641  47.320  -0.611  0.00  0.00     0.036 H 
ATOM     13  H11 VBZ d          28.795  48.694   0.178  0.00  0.00     0.036 H 
ATOM     14  H12 VBZ d          27.293  46.551  -3.972  0.00  0.00     0.081 H 
ATOM     15  H13 VBZ d          28.292  45.646  -2.783  0.00  0.00     0.081 H 
ATOM     16  H14 VBZ d          28.762  48.139  -3.962  0.00  0.00     0.281 HD
ATOM     17  H15 VBZ d          29.405  49.430  -2.053  0.00  0.00     0.088 H 
ENDROOT
BRANCH   7  18
ATOM     18  C9  VBZ d          30.273  47.158  -2.970  0.00  0.00     0.108 C 
ATOM     19  H16 VBZ d          30.227  46.111  -2.637  0.00  0.00     0.083 H 
ATOM     20  H17 VBZ d          30.793  47.762  -2.210  0.00  0.00     0.083 H 
BRANCH  18  21
ATOM     21  C10 VBZ d          31.101  47.205  -4.246  0.00  0.00    -0.033 A 
ATOM     22  C11 VBZ d          30.666  46.591  -5.423  0.00  0.00    -0.075 A 
ATOM     23  C12 VBZ d          31.445  46.649  -6.599  0.00  0.00    -0.082 A 
ATOM     24  H18 VBZ d          29.719  46.063  -5.434  0.00  0.00     0.084 H 
ATOM     25  C13 VBZ d          32.686  47.305  -6.595  0.00  0.00    -0.083 A 
ATOM     26  H19 VBZ d          31.084  46.184  -7.509  0.00  0.00     0.083 H 
ATOM     27  C14 VBZ d          33.141  47.899  -5.415  0.00  0.00    -0.082 A 
ATOM     28  H22 VBZ d          33.284  47.351  -7.498  0.00  0.00     0.083 H 
ATOM     29  C15 VBZ d          32.347  47.849  -4.255  0.00  0.00    -0.075 A 
ATOM     30  H21 VBZ d          34.104  48.397  -5.393  0.00  0.00     0.083 H 
ATOM     31  H20 VBZ d          32.706  48.318  -3.347  0.00  0.00     0.084 H 
ENDBRANCH  18  21
ENDBRANCH   7  18
BRANCH   3  32
ATOM     32  O4  VBZ d          25.760  45.969  -1.815  0.00  0.00    -0.385 OA
ATOM     33  H5  VBZ d          25.269  46.093  -1.011  0.00  0.00     0.210 HD
ENDBRANCH   3  32
BRANCH   1  34
ATOM     34  O2  VBZ d          27.146  50.423  -2.911  0.00  0.00    -0.391 OA
ATOM     35  H1  VBZ d          26.430  50.257  -3.513  0.00  0.00     0.210 HD
ENDBRANCH   1  34
BRANCH   2  36
ATOM     36  O3  VBZ d          25.789  48.414  -3.569  0.00  0.00    -0.390 OA
ATOM     37  H4  VBZ d          26.355  49.036  -4.011  0.00  0.00     0.210 HD
ENDBRANCH   2  36
BRANCH   4  38
ATOM     38  C6  VBZ d          27.702  45.819   0.294  0.00  0.00     0.023 C 
ATOM     39  H7  VBZ d          26.740  45.454   0.686  0.00  0.00     0.074 H 
ATOM     40  H8  VBZ d          28.387  46.018   1.131  0.00  0.00     0.074 H 
BRANCH  38  41
ATOM     41  O6  VBZ d          28.268  44.843  -0.565  0.00  0.00    -0.400 OA
ATOM     42  H9  VBZ d          28.060  45.058  -1.467  0.00  0.00     0.209 HD
ENDBRANCH  38  41
ENDBRANCH   4  38
TORSDOF 7
ENDMDL
