MODEL 1
REMARK VINA RESULT:      -8.0      0.000      0.000
REMARK  2 active torsions:
REMARK  status: ('A' for Active; 'I' for Inactive)
REMARK    1  A    between atoms: C6_3  and  S_5 
REMARK    2  A    between atoms: S_5  and  N_10 
ROOT
ATOM      1  C4  SKF d          28.773  46.084  16.748  0.00  0.00    -0.075 A 
ATOM      2  C5  SKF d          28.408  45.468  15.558  0.00  0.00    -0.060 A 
ATOM      3  C6  SKF d          28.052  44.114  15.563  0.00  0.00     0.080 A 
ATOM      4  C7  SKF d          28.065  43.395  16.751  0.00  0.00    -0.052 A 
ATOM      5  C8  SKF d          28.430  44.009  17.934  0.00  0.00    -0.025 A 
ATOM      6  C9  SKF d          28.786  45.362  17.936  0.00  0.00    -0.049 A 
ATOM      7  C1  SKF d          28.362  43.235  19.226  0.00  0.00     0.106 C 
ATOM      8  C2  SKF d          28.831  45.379  20.394  0.00  0.00     0.086 C 
ATOM      9  C3  SKF d          29.471  45.933  19.139  0.00  0.00    -0.018 C 
ATOM     10  N1  SKF d          29.047  43.908  20.355  0.00  0.00    -0.071 N 
ATOM     11  H1  SKF d          29.050  47.132  16.750  0.00  0.00     0.084 H 
ATOM     12  H2  SKF d          28.399  46.031  14.633  0.00  0.00     0.085 H 
ATOM     13  H3  SKF d          27.786  42.348  16.750  0.00  0.00     0.086 H 
ATOM     14  H6  SKF d          28.832  42.253  19.069  0.00  0.00     0.083 H 
ATOM     15  H7  SKF d          27.304  43.097  19.494  0.00  0.00     0.083 H 
ATOM     16  H8  SKF d          27.755  45.607  20.406  0.00  0.00     0.076 H 
ATOM     17  H9  SKF d          29.308  45.810  21.287  0.00  0.00     0.076 H 
ATOM     18  H10 SKF d          29.372  47.028  19.131  0.00  0.00     0.042 H 
ATOM     19  H11 SKF d          30.536  45.660  19.119  0.00  0.00     0.042 H 
ATOM     20  H12 SKF d          30.036  43.733  20.276  0.00  0.00     0.277 HD
ATOM     21  H13 SKF d          28.704  43.513  21.216  0.00  0.00     0.277 HD
ENDROOT
BRANCH   3  22
ATOM     22  S   SKF d          27.594  43.315  14.058  0.00  0.00     0.256 S 
ATOM     23  O1  SKF d          26.159  43.142  13.981  0.00  0.00    -0.201 OA
ATOM     24  O2  SKF d          28.229  42.033  13.896  0.00  0.00    -0.201 OA
BRANCH  22  25
ATOM     25  N   SKF d          28.060  44.256  12.882  0.00  0.00    -0.324 N 
ATOM     26  H4  SKF d          29.026  44.298  12.628  0.00  0.00     0.169 HD
ATOM     27  H5  SKF d          27.389  44.811  12.391  0.00  0.00     0.169 HD
ENDBRANCH  22  25
ENDBRANCH   3  22
TORSDOF 2
ENDMDL
MODEL 2
REMARK VINA RESULT:      -7.2      3.325      5.504
REMARK  2 active torsions:
REMARK  status: ('A' for Active; 'I' for Inactive)
REMARK    1  A    between atoms: C6_3  and  S_5 
REMARK    2  A    between atoms: S_5  and  N_10 
ROOT
ATOM      1  C4  SKF d          27.611  42.396  17.053  0.00  0.00    -0.075 A 
ATOM      2  C5  SKF d          28.077  42.994  18.217  0.00  0.00    -0.060 A 
ATOM      3  C6  SKF d          28.640  44.274  18.157  0.00  0.00     0.080 A 
ATOM      4  C7  SKF d          28.731  44.939  16.941  0.00  0.00    -0.052 A 
ATOM      5  C8  SKF d          28.269  44.341  15.783  0.00  0.00    -0.025 A 
ATOM      6  C9  SKF d          27.704  43.062  15.837  0.00  0.00    -0.049 A 
ATOM      7  C1  SKF d          28.303  45.108  14.485  0.00  0.00     0.106 C 
ATOM      8  C2  SKF d          26.988  43.246  13.492  0.00  0.00     0.086 C 
ATOM      9  C3  SKF d          27.496  42.304  14.562  0.00  0.00    -0.018 C 
ATOM     10  N1  SKF d          28.056  44.263  13.294  0.00  0.00    -0.071 N 
ATOM     11  H1  SKF d          27.174  41.405  17.094  0.00  0.00     0.084 H 
ATOM     12  H2  SKF d          28.005  42.474  19.164  0.00  0.00     0.085 H 
ATOM     13  H3  SKF d          29.166  45.931  16.899  0.00  0.00     0.086 H 
ATOM     14  H6  SKF d          29.293  45.575  14.383  0.00  0.00     0.083 H 
ATOM     15  H7  SKF d          27.531  45.891  14.523  0.00  0.00     0.083 H 
ATOM     16  H8  SKF d          26.056  43.730  13.821  0.00  0.00     0.076 H 
ATOM     17  H9  SKF d          26.806  42.697  12.556  0.00  0.00     0.076 H 
ATOM     18  H10 SKF d          26.758  41.506  14.727  0.00  0.00     0.042 H 
ATOM     19  H11 SKF d          28.449  41.862  14.239  0.00  0.00     0.042 H 
ATOM     20  H12 SKF d          28.911  43.785  13.060  0.00  0.00     0.277 HD
ATOM     21  H13 SKF d          27.786  44.862  12.529  0.00  0.00     0.277 HD
ENDROOT
BRANCH   3  22
ATOM     22  S   SKF d          29.243  45.044  19.625  0.00  0.00     0.256 S 
ATOM     23  O1  SKF d          29.116  46.483  19.544  0.00  0.00    -0.201 OA
ATOM     24  O2  SKF d          30.617  44.711  19.901  0.00  0.00    -0.201 OA
BRANCH  22  25
ATOM     25  N   SKF d          28.353  44.518  20.815  0.00  0.00    -0.324 N 
ATOM     26  H4  SKF d          28.176  45.105  21.605  0.00  0.00     0.169 HD
ATOM     27  H5  SKF d          27.965  43.597  20.779  0.00  0.00     0.169 HD
ENDBRANCH  22  25
ENDBRANCH   3  22
TORSDOF 2
ENDMDL
MODEL 3
REMARK VINA RESULT:      -6.7      3.513      5.169
REMARK  2 active torsions:
REMARK  status: ('A' for Active; 'I' for Inactive)
REMARK    1  A    between atoms: C6_3  and  S_5 
REMARK    2  A    between atoms: S_5  and  N_10 
ROOT
ATOM      1  C4  SKF d          28.718  46.149  16.200  0.00  0.00    -0.075 A 
ATOM      2  C5  SKF d          29.009  46.132  17.557  0.00  0.00    -0.060 A 
ATOM      3  C6  SKF d          28.839  44.949  18.285  0.00  0.00     0.080 A 
ATOM      4  C7  SKF d          28.382  43.801  17.650  0.00  0.00    -0.052 A 
ATOM      5  C8  SKF d          28.090  43.820  16.299  0.00  0.00    -0.025 A 
ATOM      6  C9  SKF d          28.259  45.000  15.567  0.00  0.00    -0.049 A 
ATOM      7  C1  SKF d          27.671  42.546  15.611  0.00  0.00     0.106 C 
ATOM      8  C2  SKF d          27.848  43.791  13.466  0.00  0.00     0.086 C 
ATOM      9  C3  SKF d          27.657  45.101  14.199  0.00  0.00    -0.018 C 
ATOM     10  N1  SKF d          27.116  42.763  14.254  0.00  0.00    -0.071 N 
ATOM     11  H1  SKF d          28.849  47.063  15.631  0.00  0.00     0.084 H 
ATOM     12  H2  SKF d          29.366  47.029  18.050  0.00  0.00     0.085 H 
ATOM     13  H3  SKF d          28.253  42.886  18.217  0.00  0.00     0.086 H 
ATOM     14  H6  SKF d          26.904  42.054  16.226  0.00  0.00     0.083 H 
ATOM     15  H7  SKF d          28.550  41.890  15.526  0.00  0.00     0.083 H 
ATOM     16  H8  SKF d          28.917  43.538  13.408  0.00  0.00     0.076 H 
ATOM     17  H9  SKF d          27.432  43.859  12.449  0.00  0.00     0.076 H 
ATOM     18  H10 SKF d          28.150  45.909  13.640  0.00  0.00     0.042 H 
ATOM     19  H11 SKF d          26.582  45.318  14.288  0.00  0.00     0.042 H 
ATOM     20  H12 SKF d          26.156  43.056  14.346  0.00  0.00     0.277 HD
ATOM     21  H13 SKF d          27.154  41.890  13.751  0.00  0.00     0.277 HD
ENDROOT
BRANCH   3  22
ATOM     22  S   SKF d          29.198  44.913  20.012  0.00  0.00     0.256 S 
ATOM     23  O1  SKF d          27.987  44.759  20.789  0.00  0.00    -0.201 OA
ATOM     24  O2  SKF d          29.893  46.093  20.458  0.00  0.00    -0.201 OA
BRANCH  22  25
ATOM     25  N   SKF d          30.126  43.663  20.259  0.00  0.00    -0.324 N 
ATOM     26  H4  SKF d          30.827  43.694  20.971  0.00  0.00     0.169 HD
ATOM     27  H5  SKF d          30.014  42.840  19.703  0.00  0.00     0.169 HD
ENDBRANCH  22  25
ENDBRANCH   3  22
TORSDOF 2
ENDMDL
MODEL 4
REMARK VINA RESULT:      -5.7      1.423      2.395
REMARK  2 active torsions:
REMARK  status: ('A' for Active; 'I' for Inactive)
REMARK    1  A    between atoms: C6_3  and  S_5 
REMARK    2  A    between atoms: S_5  and  N_10 
ROOT
ATOM      1  C4  SKF d          27.604  42.834  18.696  0.00  0.00    -0.075 A 
ATOM      2  C5  SKF d          27.407  42.727  17.326  0.00  0.00    -0.060 A 
ATOM      3  C6  SKF d          27.937  43.702  16.474  0.00  0.00     0.080 A 
ATOM      4  C7  SKF d          28.655  44.769  16.999  0.00  0.00    -0.052 A 
ATOM      5  C8  SKF d          28.849  44.875  18.363  0.00  0.00    -0.025 A 
ATOM      6  C9  SKF d          28.323  43.902  19.220  0.00  0.00    -0.049 A 
ATOM      7  C1  SKF d          29.698  45.996  18.909  0.00  0.00     0.106 C 
ATOM      8  C2  SKF d          29.540  44.874  21.122  0.00  0.00     0.086 C 
ATOM      9  C3  SKF d          28.266  44.181  20.690  0.00  0.00    -0.018 C 
ATOM     10  N1  SKF d          29.585  46.161  20.377  0.00  0.00    -0.071 N 
ATOM     11  H1  SKF d          27.197  42.081  19.361  0.00  0.00     0.084 H 
ATOM     12  H2  SKF d          26.846  41.894  16.919  0.00  0.00     0.085 H 
ATOM     13  H3  SKF d          29.066  45.521  16.335  0.00  0.00     0.086 H 
ATOM     14  H6  SKF d          29.387  46.934  18.427  0.00  0.00     0.083 H 
ATOM     15  H7  SKF d          30.750  45.788  18.662  0.00  0.00     0.083 H 
ATOM     16  H8  SKF d          30.415  44.256  20.871  0.00  0.00     0.076 H 
ATOM     17  H9  SKF d          29.523  45.062  22.206  0.00  0.00     0.076 H 
ATOM     18  H10 SKF d          28.160  43.234  21.239  0.00  0.00     0.042 H 
ATOM     19  H11 SKF d          27.404  44.829  20.908  0.00  0.00     0.042 H 
ATOM     20  H12 SKF d          28.741  46.674  20.575  0.00  0.00     0.277 HD
ATOM     21  H13 SKF d          30.382  46.688  20.700  0.00  0.00     0.277 HD
ENDROOT
BRANCH   3  22
ATOM     22  S   SKF d          27.688  43.585  14.732  0.00  0.00     0.256 S 
ATOM     23  O1  SKF d          28.482  42.516  14.166  0.00  0.00    -0.201 OA
ATOM     24  O2  SKF d          27.997  44.812  14.044  0.00  0.00    -0.201 OA
BRANCH  22  25
ATOM     25  N   SKF d          26.161  43.260  14.511  0.00  0.00    -0.324 N 
ATOM     26  H4  SKF d          25.883  42.632  13.784  0.00  0.00     0.169 HD
ATOM     27  H5  SKF d          25.470  43.682  15.097  0.00  0.00     0.169 HD
ENDBRANCH  22  25
ENDBRANCH   3  22
TORSDOF 2
ENDMDL
