REMARK  7 active torsions:
REMARK  status: ('A' for Active; 'I' for Inactive)
REMARK    1  A    between atoms: O2_1  and  C2_2 
REMARK    2  A    between atoms: C3_3  and  O3_4 
REMARK    3  A    between atoms: C4_5  and  O4_6 
REMARK    4  A    between atoms: C5_7  and  C6_8 
REMARK    5  A    between atoms: C6_8  and  O6_9 
REMARK    6  A    between atoms: N1_12  and  C9_14 
REMARK    7  A    between atoms: C9_14  and  C10_15 
ROOT
ATOM      1  C2  VBZ d          27.532  45.902  -0.486  0.00  0.00     0.090 C 
ATOM      2  C3  VBZ d          28.095  47.094   0.252  0.00  0.00     0.094 C 
ATOM      3  C4  VBZ d          28.171  48.224  -0.781  0.00  0.00     0.116 C 
ATOM      4  C5  VBZ d          26.788  48.304  -1.466  0.00  0.00     0.002 C 
ATOM      5  C7  VBZ d          26.623  47.113  -2.416  0.00  0.00    -0.028 C 
ATOM      6  C8  VBZ d          29.309  47.917  -1.769  0.00  0.00     0.115 C 
ATOM      7  N1  VBZ d          29.033  46.627  -2.447  0.00  0.00    -0.058 N 
ATOM      8  C1  VBZ d          27.695  46.122  -2.013  0.00  0.00     0.132 C 
ATOM      9  H2  VBZ d          26.453  45.855  -0.275  0.00  0.00     0.090 H 
ATOM     10  H3  VBZ d          27.447  47.388   1.091  0.00  0.00     0.091 H 
ATOM     11  H6  VBZ d          26.054  48.158  -0.660  0.00  0.00     0.048 H 
ATOM     12  H10 VBZ d          26.766  47.431  -3.459  0.00  0.00     0.036 H 
ATOM     13  H11 VBZ d          25.624  46.666  -2.302  0.00  0.00     0.036 H 
ATOM     14  H12 VBZ d          30.262  47.849  -1.223  0.00  0.00     0.081 H 
ATOM     15  H13 VBZ d          29.372  48.720  -2.518  0.00  0.00     0.081 H 
ATOM     16  H14 VBZ d          29.741  45.970  -2.160  0.00  0.00     0.281 HD
ATOM     17  H15 VBZ d          27.518  45.163  -2.522  0.00  0.00     0.088 H 
ENDROOT
BRANCH   7  18
ATOM     18  C9  VBZ d          29.048  46.700  -3.954  0.00  0.00     0.108 C 
ATOM     19  H16 VBZ d          28.163  47.270  -4.271  0.00  0.00     0.083 H 
ATOM     20  H17 VBZ d          28.980  45.672  -4.341  0.00  0.00     0.083 H 
BRANCH  18  21
ATOM     21  C10 VBZ d          30.271  47.353  -4.582  0.00  0.00    -0.033 A 
ATOM     22  C11 VBZ d          31.562  46.880  -4.334  0.00  0.00    -0.075 A 
ATOM     23  C12 VBZ d          32.684  47.496  -4.930  0.00  0.00    -0.082 A 
ATOM     24  H18 VBZ d          31.704  46.030  -3.676  0.00  0.00     0.084 H 
ATOM     25  C13 VBZ d          32.520  48.613  -5.763  0.00  0.00    -0.083 A 
ATOM     26  H19 VBZ d          33.677  47.104  -4.743  0.00  0.00     0.083 H 
ATOM     27  C14 VBZ d          31.234  49.110  -5.995  0.00  0.00    -0.082 A 
ATOM     28  H22 VBZ d          33.381  49.086  -6.222  0.00  0.00     0.083 H 
ATOM     29  C15 VBZ d          30.123  48.476  -5.409  0.00  0.00    -0.075 A 
ATOM     30  H21 VBZ d          31.093  49.981  -6.625  0.00  0.00     0.083 H 
ATOM     31  H20 VBZ d          29.130  48.865  -5.601  0.00  0.00     0.084 H 
ENDBRANCH  18  21
ENDBRANCH   7  18
BRANCH   3  32
ATOM     32  O4  VBZ d          28.418  49.466  -0.072  0.00  0.00    -0.385 OA
ATOM     33  H5  VBZ d          28.469  50.181  -0.696  0.00  0.00     0.210 HD
ENDBRANCH   3  32
BRANCH   1  34
ATOM     34  O2  VBZ d          28.098  44.685  -0.020  0.00  0.00    -0.391 OA
ATOM     35  H1  VBZ d          29.039  44.704  -0.152  0.00  0.00     0.210 HD
ENDBRANCH   1  34
BRANCH   2  36
ATOM     36  O3  VBZ d          29.360  46.723   0.731  0.00  0.00    -0.390 OA
ATOM     37  H4  VBZ d          29.271  45.979   1.315  0.00  0.00     0.210 HD
ENDBRANCH   2  36
BRANCH   4  38
ATOM     38  C6  VBZ d          26.400  49.639  -2.107  0.00  0.00     0.023 C 
ATOM     39  H7  VBZ d          26.584  50.459  -1.397  0.00  0.00     0.074 H 
ATOM     40  H8  VBZ d          25.335  49.623  -2.381  0.00  0.00     0.074 H 
BRANCH  38  41
ATOM     41  O6  VBZ d          27.190  49.827  -3.270  0.00  0.00    -0.400 OA
ATOM     42  H9  VBZ d          26.959  50.653  -3.678  0.00  0.00     0.209 HD
ENDBRANCH  38  41
ENDBRANCH   4  38
TORSDOF 7
