REMARK  23 active torsions:
REMARK  status: ('A' for Active; 'I' for Inactive)
REMARK    1  A    between atoms: N4B_18  and  C1A_1 
REMARK    2  A    between atoms: C2A_2  and  O2A_8 
REMARK    3  A    between atoms: C3A_3  and  O3A_9 
REMARK    4  A    between atoms: C4A_4  and  O4A_10 
REMARK    5  A    between atoms: C5A_5  and  C6A_6 
REMARK    6  A    between atoms: C6A_6  and  O6A_11 
REMARK    7  A    between atoms: O4C_30  and  C1B_12 
REMARK    8  A    between atoms: C2B_13  and  O2B_19 
REMARK    9  A    between atoms: C3B_14  and  O3B_20 
REMARK   10  A    between atoms: C4B_15  and  N4B_18 
REMARK   11  A    between atoms: C5B_16  and  C6B_17 
REMARK   12  A    between atoms: O4D_42  and  C1C_22 
REMARK   13  A    between atoms: C2C_23  and  O2C_28 
REMARK   14  A    between atoms: C3C_24  and  O3C_29 
REMARK   15  A    between atoms: C4C_25  and  O4C_30 
REMARK   16  A    between atoms: C5C_26  and  C6C_27 
REMARK   17  A    between atoms: C6C_27  and  O6C_32 
REMARK   18  A    between atoms: C1D_33  and  O1D_39 
REMARK   19  A    between atoms: C2D_34  and  O2D_40 
REMARK   20  A    between atoms: C3D_35  and  O3D_41 
REMARK   21  A    between atoms: C4D_36  and  O4D_42 
REMARK   22  A    between atoms: C5D_37  and  C6D_38 
REMARK   23  A    between atoms: C6D_38  and  O6D_44 
ROOT
ATOM      1  C1B ACR d         -18.217  -6.743  -5.386  0.00  0.00     0.159 C 
ATOM      2  C2B ACR d         -17.840  -5.556  -6.271  0.00  0.00     0.110 C 
ATOM      3  C3B ACR d         -18.974  -5.248  -7.262  0.00  0.00     0.094 C 
ATOM      4  C4B ACR d         -19.240  -6.467  -8.146  0.00  0.00     0.154 C 
ATOM      5  C5B ACR d         -19.594  -7.651  -7.221  0.00  0.00     0.068 C 
ATOM      6  O5B ACR d         -18.541  -7.843  -6.242  0.00  0.00    -0.351 OA
ATOM      7  H12 ACR d         -17.367  -7.014  -4.743  0.00  0.00     0.133 H 
ATOM      8  H13 ACR d         -16.921  -5.790  -6.828  0.00  0.00     0.094 H 
ATOM      9  H14 ACR d         -19.885  -4.995  -6.700  0.00  0.00     0.090 H 
ATOM     10  H15 ACR d         -18.294  -6.727  -8.643  0.00  0.00     0.092 H 
ATOM     11  H16 ACR d         -20.536  -7.419  -6.703  0.00  0.00     0.086 H 
ENDROOT
BRANCH   1  12
ATOM     12  O4C ACR d         -19.345  -6.391  -4.560  0.00  0.00    -0.348 OA
BRANCH  12  13
ATOM     13  C4C ACR d         -19.722  -7.338  -3.560  0.00  0.00     0.096 C 
ATOM     14  C3C ACR d         -19.020  -6.961  -2.255  0.00  0.00     0.092 C 
ATOM     15  C2C ACR d         -19.534  -7.739  -1.040  0.00  0.00     0.110 C 
ATOM     16  H26 ACR d         -19.219  -5.895  -2.068  0.00  0.00     0.091 H 
ATOM     17  C1C ACR d         -21.057  -7.738  -0.958  0.00  0.00     0.159 C 
ATOM     18  H25 ACR d         -19.165  -8.775  -1.073  0.00  0.00     0.094 H 
ATOM     19  O5C ACR d         -21.593  -8.154  -2.226  0.00  0.00    -0.348 OA
ATOM     20  H24 ACR d         -21.386  -8.434  -0.172  0.00  0.00     0.133 H 
ATOM     21  C5C ACR d         -21.242  -7.338  -3.363  0.00  0.00     0.089 C 
ATOM     22  H28 ACR d         -21.561  -6.303  -3.171  0.00  0.00     0.090 H 
ATOM     23  H27 ACR d         -19.402  -8.343  -3.871  0.00  0.00     0.091 H 
BRANCH  14  24
ATOM     24  O3C ACR d         -17.604  -7.128  -2.405  0.00  0.00    -0.390 OA
ATOM     25  H32 ACR d         -17.293  -6.567  -3.105  0.00  0.00     0.210 HD
ENDBRANCH  14  24
BRANCH  15  26
ATOM     26  O2C ACR d         -19.040  -7.061   0.109  0.00  0.00    -0.388 OA
ATOM     27  H31 ACR d         -19.366  -6.168   0.113  0.00  0.00     0.210 HD
ENDBRANCH  15  26
BRANCH  17  28
ATOM     28  O4D ACR d         -21.517  -6.416  -0.648  0.00  0.00    -0.348 OA
BRANCH  28  29
ATOM     29  C4D ACR d         -22.487  -6.269   0.398  0.00  0.00     0.096 C 
ATOM     30  C3D ACR d         -21.993  -5.060   1.199  0.00  0.00     0.092 C 
ATOM     31  C2D ACR d         -22.960  -4.623   2.306  0.00  0.00     0.110 C 
ATOM     32  H36 ACR d         -21.908  -4.219   0.495  0.00  0.00     0.091 H 
ATOM     33  C1D ACR d         -24.436  -4.540   1.835  0.00  0.00     0.156 C 
ATOM     34  H35 ACR d         -22.915  -5.367   3.115  0.00  0.00     0.094 H 
ATOM     35  O5D ACR d         -24.819  -5.618   0.955  0.00  0.00    -0.349 OA
ATOM     36  H34 ACR d         -25.063  -4.615   2.736  0.00  0.00     0.133 H 
ATOM     37  C5D ACR d         -23.907  -5.941  -0.121  0.00  0.00     0.089 C 
ATOM     38  H38 ACR d         -23.811  -5.050  -0.759  0.00  0.00     0.090 H 
ATOM     39  H37 ACR d         -22.521  -7.177   1.018  0.00  0.00     0.091 H 
BRANCH  30  40
ATOM     40  O3D ACR d         -20.679  -5.312   1.738  0.00  0.00    -0.390 OA
ATOM     41  H43 ACR d         -20.073  -5.479   1.026  0.00  0.00     0.210 HD
ENDBRANCH  30  40
BRANCH  31  42
ATOM     42  O2D ACR d         -22.490  -3.360   2.819  0.00  0.00    -0.388 OA
ATOM     43  H42 ACR d         -22.477  -2.720   2.117  0.00  0.00     0.210 HD
ENDBRANCH  31  42
BRANCH  33  44
ATOM     44  O1D ACR d         -24.725  -3.278   1.208  0.00  0.00    -0.369 OA
ATOM     45  H41 ACR d         -24.472  -2.571   1.790  0.00  0.00     0.212 HD
ENDBRANCH  33  44
BRANCH  37  46
ATOM     46  C6D ACR d         -24.541  -7.046  -0.971  0.00  0.00     0.043 C 
ATOM     47  H39 ACR d         -24.628  -7.966  -0.374  0.00  0.00     0.078 H 
ATOM     48  H40 ACR d         -23.912  -7.239  -1.853  0.00  0.00     0.078 H 
BRANCH  46  49
ATOM     49  O6D ACR d         -25.849  -6.622  -1.396  0.00  0.00    -0.398 OA
ATOM     50  H44 ACR d         -26.390  -6.455  -0.633  0.00  0.00     0.209 HD
ENDBRANCH  46  49
ENDBRANCH  37  46
ENDBRANCH  28  29
ENDBRANCH  17  28
BRANCH  21  51
ATOM     51  C6C ACR d         -21.995  -7.854  -4.585  0.00  0.00     0.043 C 
ATOM     52  H29 ACR d         -21.619  -8.852  -4.852  0.00  0.00     0.078 H 
ATOM     53  H30 ACR d         -21.839  -7.165  -5.429  0.00  0.00     0.078 H 
BRANCH  51  54
ATOM     54  O6C ACR d         -23.397  -7.936  -4.288  0.00  0.00    -0.398 OA
ATOM     55  H33 ACR d         -23.531  -8.531  -3.560  0.00  0.00     0.209 HD
ENDBRANCH  51  54
ENDBRANCH  21  51
ENDBRANCH  12  13
ENDBRANCH   1  12
BRANCH   2  56
ATOM     56  O2B ACR d         -17.624  -4.418  -5.439  0.00  0.00    -0.388 OA
ATOM     57  H22 ACR d         -18.421  -4.220  -4.961  0.00  0.00     0.210 HD
ENDBRANCH   2  56
BRANCH   3  58
ATOM     58  O3B ACR d         -18.618  -4.157  -8.104  0.00  0.00    -0.391 OA
ATOM     59  H23 ACR d         -18.449  -3.389  -7.571  0.00  0.00     0.210 HD
ENDBRANCH   3  58
BRANCH   5  60
ATOM     60  C6B ACR d         -19.763  -8.957  -7.990  0.00  0.00    -0.050 C 
ATOM     61  H17 ACR d         -20.014  -9.766  -7.288  0.00  0.00     0.031 H 
ATOM     62  H18 ACR d         -18.825  -9.200  -8.510  0.00  0.00     0.031 H 
ATOM     63  H19 ACR d         -20.573  -8.847  -8.726  0.00  0.00     0.031 H 
ENDBRANCH   5  60
BRANCH   4  64
ATOM     64  N4B ACR d         -20.200  -6.177  -9.233  0.00  0.00    -0.056 N 
ATOM     65  H20 ACR d         -20.854  -6.944  -9.266  0.00  0.00     0.278 HD
ATOM     66  H21 ACR d         -20.687  -5.331  -8.983  0.00  0.00     0.278 HD
BRANCH  64  67
ATOM     67  C1A ACR d         -19.671  -5.990 -10.611  0.00  0.00     0.146 C 
ATOM     68  C2A ACR d         -20.730  -5.683 -11.690  0.00  0.00     0.093 C 
ATOM     69  C3A ACR d         -21.560  -6.936 -11.971  0.00  0.00     0.091 C 
ATOM     70  H2  ACR d         -20.220  -5.369 -12.613  0.00  0.00     0.090 H 
ATOM     71  C4A ACR d         -20.667  -7.964 -12.639  0.00  0.00     0.086 C 
ATOM     72  H3  ACR d         -21.869  -7.341 -10.996  0.00  0.00     0.091 H 
ATOM     73  C5A ACR d         -19.347  -8.105 -11.911  0.00  0.00    -0.027 C 
ATOM     74  H4  ACR d         -20.469  -7.646 -13.673  0.00  0.00     0.094 H 
ATOM     75  C7A ACR d         -18.833  -7.168 -11.099  0.00  0.00    -0.064 C 
ATOM     76  H7  ACR d         -17.795  -7.250 -10.781  0.00  0.00     0.080 H 
ATOM     77  H1  ACR d         -19.006  -5.115 -10.560  0.00  0.00     0.095 H 
BRANCH  68  78
ATOM     78  O2A ACR d         -21.598  -4.643 -11.261  0.00  0.00    -0.390 OA
ATOM     79  H8  ACR d         -22.234  -4.461 -11.943  0.00  0.00     0.210 HD
ENDBRANCH  68  78
BRANCH  69  80
ATOM     80  O3A ACR d         -22.795  -6.725 -12.743  0.00  0.00    -0.390 OA
ATOM     81  H9  ACR d         -23.335  -6.078 -12.304  0.00  0.00     0.210 HD
ENDBRANCH  69  80
BRANCH  71  82
ATOM     82  O4A ACR d         -21.341  -9.222 -12.655  0.00  0.00    -0.388 OA
ATOM     83  H10 ACR d         -22.169  -9.131 -13.112  0.00  0.00     0.210 HD
ENDBRANCH  71  82
BRANCH  73  84
ATOM     84  C6A ACR d         -18.589  -9.368 -12.180  0.00  0.00     0.039 C 
ATOM     85  H5  ACR d         -19.273 -10.213 -12.345  0.00  0.00     0.081 H 
ATOM     86  H6  ACR d         -17.907  -9.605 -11.351  0.00  0.00     0.081 H 
BRANCH  84  87
ATOM     87  O6A ACR d         -17.857  -9.052 -13.380  0.00  0.00    -0.397 OA
ATOM     88  H11 ACR d         -17.335  -9.803 -13.638  0.00  0.00     0.209 HD
ENDBRANCH  84  87
ENDBRANCH  73  84
ENDBRANCH  64  67
ENDBRANCH   4  64
TORSDOF 23
