MODEL 1
REMARK VINA RESULT:      -7.2      0.000      0.000
REMARK  23 active torsions:
REMARK  status: ('A' for Active; 'I' for Inactive)
REMARK    1  A    between atoms: N4B_18  and  C1A_1 
REMARK    2  A    between atoms: C2A_2  and  O2A_8 
REMARK    3  A    between atoms: C3A_3  and  O3A_9 
REMARK    4  A    between atoms: C4A_4  and  O4A_10 
REMARK    5  A    between atoms: C5A_5  and  C6A_6 
REMARK    6  A    between atoms: C6A_6  and  O6A_11 
REMARK    7  A    between atoms: O4C_30  and  C1B_12 
REMARK    8  A    between atoms: C2B_13  and  O2B_19 
REMARK    9  A    between atoms: C3B_14  and  O3B_20 
REMARK   10  A    between atoms: C4B_15  and  N4B_18 
REMARK   11  A    between atoms: C5B_16  and  C6B_17 
REMARK   12  A    between atoms: O4D_42  and  C1C_22 
REMARK   13  A    between atoms: C2C_23  and  O2C_28 
REMARK   14  A    between atoms: C3C_24  and  O3C_29 
REMARK   15  A    between atoms: C4C_25  and  O4C_30 
REMARK   16  A    between atoms: C5C_26  and  C6C_27 
REMARK   17  A    between atoms: C6C_27  and  O6C_32 
REMARK   18  A    between atoms: C1D_33  and  O1D_39 
REMARK   19  A    between atoms: C2D_34  and  O2D_40 
REMARK   20  A    between atoms: C3D_35  and  O3D_41 
REMARK   21  A    between atoms: C4D_36  and  O4D_42 
REMARK   22  A    between atoms: C5D_37  and  C6D_38 
REMARK   23  A    between atoms: C6D_38  and  O6D_44 
ROOT
ATOM      1  C1B ACR d         -18.121  -6.764  -5.284  0.00  0.00     0.159 C 
ATOM      2  C2B ACR d         -17.695  -5.608  -6.189  0.00  0.00     0.110 C 
ATOM      3  C3B ACR d         -18.820  -5.263  -7.178  0.00  0.00     0.094 C 
ATOM      4  C4B ACR d         -19.147  -6.481  -8.043  0.00  0.00     0.154 C 
ATOM      5  C5B ACR d         -19.549  -7.634  -7.098  0.00  0.00     0.068 C 
ATOM      6  O5B ACR d         -18.500  -7.860  -6.122  0.00  0.00    -0.351 OA
ATOM      7  H12 ACR d         -17.281  -7.064  -4.642  0.00  0.00     0.133 H 
ATOM      8  H13 ACR d         -16.791  -5.892  -6.747  0.00  0.00     0.094 H 
ATOM      9  H14 ACR d         -19.715  -4.960  -6.615  0.00  0.00     0.090 H 
ATOM     10  H15 ACR d         -18.216  -6.792  -8.541  0.00  0.00     0.092 H 
ATOM     11  H16 ACR d         -20.476  -7.351  -6.579  0.00  0.00     0.086 H 
ENDROOT
BRANCH   1  12
ATOM     12  O4C ACR d         -19.227  -6.348  -4.458  0.00  0.00    -0.348 OA
BRANCH  12  13
ATOM     13  C4C ACR d         -19.129  -6.650  -3.065  0.00  0.00     0.096 C 
ATOM     14  C3C ACR d         -18.996  -5.334  -2.298  0.00  0.00     0.092 C 
ATOM     15  C2C ACR d         -19.141  -5.495  -0.782  0.00  0.00     0.110 C 
ATOM     16  H26 ACR d         -19.808  -4.671  -2.635  0.00  0.00     0.091 H 
ATOM     17  C1C ACR d         -20.366  -6.321  -0.405  0.00  0.00     0.159 C 
ATOM     18  H25 ACR d         -18.236  -5.962  -0.366  0.00  0.00     0.094 H 
ATOM     19  O5C ACR d         -20.350  -7.548  -1.155  0.00  0.00    -0.348 OA
ATOM     20  H24 ACR d         -20.344  -6.546   0.672  0.00  0.00     0.133 H 
ATOM     21  C5C ACR d         -20.370  -7.416  -2.592  0.00  0.00     0.089 C 
ATOM     22  H28 ACR d         -21.259  -6.839  -2.884  0.00  0.00     0.090 H 
ATOM     23  H27 ACR d         -18.238  -7.269  -2.888  0.00  0.00     0.091 H 
BRANCH  14  24
ATOM     24  O3C ACR d         -17.748  -4.710  -2.628  0.00  0.00    -0.390 OA
ATOM     25  H32 ACR d         -17.411  -4.258  -1.864  0.00  0.00     0.210 HD
ENDBRANCH  14  24
BRANCH  15  26
ATOM     26  O2C ACR d         -19.325  -4.186  -0.255  0.00  0.00    -0.388 OA
ATOM     27  H31 ACR d         -19.761  -3.644  -0.903  0.00  0.00     0.210 HD
ENDBRANCH  15  26
BRANCH  17  28
ATOM     28  O4D ACR d         -21.554  -5.581  -0.714  0.00  0.00    -0.348 OA
BRANCH  28  29
ATOM     29  C4D ACR d         -22.646  -5.644   0.213  0.00  0.00     0.096 C 
ATOM     30  C3D ACR d         -22.586  -4.305   0.955  0.00  0.00     0.092 C 
ATOM     31  C2D ACR d         -23.759  -4.086   1.918  0.00  0.00     0.110 C 
ATOM     32  H36 ACR d         -22.642  -3.512   0.194  0.00  0.00     0.091 H 
ATOM     33  C1D ACR d         -25.138  -4.431   1.296  0.00  0.00     0.156 C 
ATOM     34  H35 ACR d         -23.617  -4.744   2.787  0.00  0.00     0.094 H 
ATOM     35  O5D ACR d         -25.117  -5.618   0.476  0.00  0.00    -0.349 OA
ATOM     36  H34 ACR d         -25.826  -4.623   2.132  0.00  0.00     0.133 H 
ATOM     37  C5D ACR d         -24.030  -5.741  -0.472  0.00  0.00     0.089 C 
ATOM     38  H38 ACR d         -24.096  -4.894  -1.170  0.00  0.00     0.090 H 
ATOM     39  H37 ACR d         -22.515  -6.492   0.902  0.00  0.00     0.091 H 
BRANCH  30  40
ATOM     40  O3D ACR d         -21.326  -4.162   1.642  0.00  0.00    -0.390 OA
ATOM     41  H43 ACR d         -21.354  -4.653   2.455  0.00  0.00     0.210 HD
ENDBRANCH  30  40
BRANCH  31  42
ATOM     42  O2D ACR d         -23.702  -2.716   2.367  0.00  0.00    -0.388 OA
ATOM     43  H42 ACR d         -24.548  -2.464   2.716  0.00  0.00     0.210 HD
ENDBRANCH  31  42
BRANCH  33  44
ATOM     44  O1D ACR d         -25.671  -3.330   0.538  0.00  0.00    -0.369 OA
ATOM     45  H41 ACR d         -25.420  -2.512   0.950  0.00  0.00     0.212 HD
ENDBRANCH  33  44
BRANCH  37  46
ATOM     46  C6D ACR d         -24.246  -7.021  -1.284  0.00  0.00     0.043 C 
ATOM     47  H39 ACR d         -24.169  -6.793  -2.358  0.00  0.00     0.078 H 
ATOM     48  H40 ACR d         -25.243  -7.433  -1.066  0.00  0.00     0.078 H 
BRANCH  46  49
ATOM     49  O6D ACR d         -23.238  -7.984  -0.923  0.00  0.00    -0.398 OA
ATOM     50  H44 ACR d         -23.191  -8.657  -1.592  0.00  0.00     0.209 HD
ENDBRANCH  46  49
ENDBRANCH  37  46
ENDBRANCH  28  29
ENDBRANCH  17  28
BRANCH  21  51
ATOM     51  C6C ACR d         -20.475  -8.807  -3.209  0.00  0.00     0.043 C 
ATOM     52  H29 ACR d         -21.067  -9.456  -2.548  0.00  0.00     0.078 H 
ATOM     53  H30 ACR d         -19.467  -9.230  -3.332  0.00  0.00     0.078 H 
BRANCH  51  54
ATOM     54  O6C ACR d         -21.116  -8.718  -4.490  0.00  0.00    -0.398 OA
ATOM     55  H33 ACR d         -20.547  -8.259  -5.096  0.00  0.00     0.209 HD
ENDBRANCH  51  54
ENDBRANCH  21  51
ENDBRANCH  12  13
ENDBRANCH   1  12
BRANCH   2  56
ATOM     56  O2B ACR d         -17.422  -4.469  -5.375  0.00  0.00    -0.388 OA
ATOM     57  H22 ACR d         -17.753  -3.688  -5.803  0.00  0.00     0.210 HD
ENDBRANCH   2  56
BRANCH   3  58
ATOM     58  O3B ACR d         -18.419  -4.202  -8.038  0.00  0.00    -0.391 OA
ATOM     59  H23 ACR d         -17.913  -4.555  -8.760  0.00  0.00     0.210 HD
ENDBRANCH   3  58
BRANCH   5  60
ATOM     60  C6B ACR d         -19.782  -8.942  -7.847  0.00  0.00    -0.050 C 
ATOM     61  H17 ACR d         -20.757  -8.904  -8.356  0.00  0.00     0.031 H 
ATOM     62  H18 ACR d         -19.773  -9.779  -7.134  0.00  0.00     0.031 H 
ATOM     63  H19 ACR d         -18.986  -9.085  -8.592  0.00  0.00     0.031 H 
ENDBRANCH   5  60
BRANCH   4  64
ATOM     64  N4B ACR d         -20.099  -6.163  -9.129  0.00  0.00    -0.056 N 
ATOM     65  H20 ACR d         -20.808  -6.880  -9.123  0.00  0.00     0.278 HD
ATOM     66  H21 ACR d         -20.518  -5.274  -8.907  0.00  0.00     0.278 HD
BRANCH  64  67
ATOM     67  C1A ACR d         -19.578  -6.070 -10.519  0.00  0.00     0.146 C 
ATOM     68  C2A ACR d         -20.624  -5.710 -11.595  0.00  0.00     0.093 C 
ATOM     69  C3A ACR d         -21.562  -6.896 -11.820  0.00  0.00     0.091 C 
ATOM     70  H2  ACR d         -20.104  -5.473 -12.535  0.00  0.00     0.090 H 
ATOM     71  C4A ACR d         -20.771  -8.020 -12.462  0.00  0.00     0.086 C 
ATOM     72  H3  ACR d         -21.889  -7.240 -10.827  0.00  0.00     0.091 H 
ATOM     73  C5A ACR d         -19.457  -8.248 -11.747  0.00  0.00    -0.027 C 
ATOM     74  H4  ACR d         -20.564  -7.755 -13.510  0.00  0.00     0.094 H 
ATOM     75  C7A ACR d         -18.851  -7.331 -10.976  0.00  0.00    -0.064 C 
ATOM     76  H7  ACR d         -17.819  -7.491 -10.669  0.00  0.00     0.080 H 
ATOM     77  H1  ACR d         -18.840  -5.254 -10.508  0.00  0.00     0.095 H 
BRANCH  68  78
ATOM     78  O2A ACR d         -21.393  -4.586 -11.191  0.00  0.00    -0.390 OA
ATOM     79  H8  ACR d         -22.316  -4.810 -11.214  0.00  0.00     0.210 HD
ENDBRANCH  68  78
BRANCH  69  80
ATOM     80  O3A ACR d         -22.787  -6.607 -12.583  0.00  0.00    -0.390 OA
ATOM     81  H9  ACR d         -23.539  -6.954 -12.116  0.00  0.00     0.210 HD
ENDBRANCH  69  80
BRANCH  71  82
ATOM     82  O4A ACR d         -21.550  -9.215 -12.425  0.00  0.00    -0.388 OA
ATOM     83  H10 ACR d         -21.871  -9.355 -11.541  0.00  0.00     0.210 HD
ENDBRANCH  71  82
BRANCH  73  84
ATOM     84  C6A ACR d         -18.814  -9.580 -11.981  0.00  0.00     0.039 C 
ATOM     85  H5  ACR d         -19.495 -10.261 -12.511  0.00  0.00     0.081 H 
ATOM     86  H6  ACR d         -18.499 -10.040 -11.033  0.00  0.00     0.081 H 
BRANCH  84  87
ATOM     87  O6A ACR d         -17.675  -9.246 -12.798  0.00  0.00    -0.397 OA
ATOM     88  H11 ACR d         -17.230 -10.044 -13.061  0.00  0.00     0.209 HD
ENDBRANCH  84  87
ENDBRANCH  73  84
ENDBRANCH  64  67
ENDBRANCH   4  64
TORSDOF 23
ENDMDL
MODEL 2
REMARK VINA RESULT:      -7.1      1.319      2.385
REMARK  23 active torsions:
REMARK  status: ('A' for Active; 'I' for Inactive)
REMARK    1  A    between atoms: N4B_18  and  C1A_1 
REMARK    2  A    between atoms: C2A_2  and  O2A_8 
REMARK    3  A    between atoms: C3A_3  and  O3A_9 
REMARK    4  A    between atoms: C4A_4  and  O4A_10 
REMARK    5  A    between atoms: C5A_5  and  C6A_6 
REMARK    6  A    between atoms: C6A_6  and  O6A_11 
REMARK    7  A    between atoms: O4C_30  and  C1B_12 
REMARK    8  A    between atoms: C2B_13  and  O2B_19 
REMARK    9  A    between atoms: C3B_14  and  O3B_20 
REMARK   10  A    between atoms: C4B_15  and  N4B_18 
REMARK   11  A    between atoms: C5B_16  and  C6B_17 
REMARK   12  A    between atoms: O4D_42  and  C1C_22 
REMARK   13  A    between atoms: C2C_23  and  O2C_28 
REMARK   14  A    between atoms: C3C_24  and  O3C_29 
REMARK   15  A    between atoms: C4C_25  and  O4C_30 
REMARK   16  A    between atoms: C5C_26  and  C6C_27 
REMARK   17  A    between atoms: C6C_27  and  O6C_32 
REMARK   18  A    between atoms: C1D_33  and  O1D_39 
REMARK   19  A    between atoms: C2D_34  and  O2D_40 
REMARK   20  A    between atoms: C3D_35  and  O3D_41 
REMARK   21  A    between atoms: C4D_36  and  O4D_42 
REMARK   22  A    between atoms: C5D_37  and  C6D_38 
REMARK   23  A    between atoms: C6D_38  and  O6D_44 
ROOT
ATOM      1  C1B ACR d         -18.782  -6.478  -4.917  0.00  0.00     0.159 C 
ATOM      2  C2B ACR d         -18.281  -5.411  -5.889  0.00  0.00     0.110 C 
ATOM      3  C3B ACR d         -19.291  -5.212  -7.030  0.00  0.00     0.094 C 
ATOM      4  C4B ACR d         -19.489  -6.526  -7.788  0.00  0.00     0.154 C 
ATOM      5  C5B ACR d         -19.971  -7.585  -6.774  0.00  0.00     0.068 C 
ATOM      6  O5B ACR d         -19.037  -7.670  -5.668  0.00  0.00    -0.351 OA
ATOM      7  H12 ACR d         -18.014  -6.680  -4.156  0.00  0.00     0.133 H 
ATOM      8  H13 ACR d         -17.312  -5.721  -6.308  0.00  0.00     0.094 H 
ATOM      9  H14 ACR d         -20.252  -4.883  -6.608  0.00  0.00     0.090 H 
ATOM     10  H15 ACR d         -18.501  -6.855  -8.141  0.00  0.00     0.092 H 
ATOM     11  H16 ACR d         -20.959  -7.282  -6.396  0.00  0.00     0.086 H 
ENDROOT
BRANCH   1  12
ATOM     12  O4C ACR d         -19.985  -6.017  -4.270  0.00  0.00    -0.348 OA
BRANCH  12  13
ATOM     13  C4C ACR d         -20.051  -6.187  -2.854  0.00  0.00     0.096 C 
ATOM     14  C3C ACR d         -20.324  -4.823  -2.220  0.00  0.00     0.092 C 
ATOM     15  C2C ACR d         -20.674  -4.902  -0.731  0.00  0.00     0.110 C 
ATOM     16  H26 ACR d         -21.192  -4.385  -2.736  0.00  0.00     0.091 H 
ATOM     17  C1C ACR d         -21.741  -5.953  -0.446  0.00  0.00     0.159 C 
ATOM     18  H25 ACR d         -19.770  -5.123  -0.144  0.00  0.00     0.094 H 
ATOM     19  O5C ACR d         -21.347  -7.196  -1.051  0.00  0.00    -0.348 OA
ATOM     20  H24 ACR d         -21.846  -6.089   0.641  0.00  0.00     0.133 H 
ATOM     21  C5C ACR d         -21.162  -7.176  -2.482  0.00  0.00     0.089 C 
ATOM     22  H28 ACR d         -22.094  -6.836  -2.957  0.00  0.00     0.090 H 
ATOM     23  H27 ACR d         -19.090  -6.576  -2.488  0.00  0.00     0.091 H 
BRANCH  14  24
ATOM     24  O3C ACR d         -19.200  -3.960  -2.434  0.00  0.00    -0.390 OA
ATOM     25  H32 ACR d         -18.734  -4.236  -3.214  0.00  0.00     0.210 HD
ENDBRANCH  14  24
BRANCH  15  26
ATOM     26  O2C ACR d         -21.212  -3.634  -0.377  0.00  0.00    -0.388 OA
ATOM     27  H31 ACR d         -21.219  -3.069  -1.142  0.00  0.00     0.210 HD
ENDBRANCH  15  26
BRANCH  17  28
ATOM     28  O4D ACR d         -22.993  -5.523  -0.995  0.00  0.00    -0.348 OA
BRANCH  28  29
ATOM     29  C4D ACR d         -24.193  -5.871  -0.291  0.00  0.00     0.096 C 
ATOM     30  C3D ACR d         -24.481  -7.310  -0.731  0.00  0.00     0.092 C 
ATOM     31  C2D ACR d         -25.661  -7.951   0.009  0.00  0.00     0.110 C 
ATOM     32  H36 ACR d         -23.588  -7.906  -0.491  0.00  0.00     0.091 H 
ATOM     33  C1D ACR d         -25.617  -7.730   1.545  0.00  0.00     0.156 C 
ATOM     34  H35 ACR d         -26.590  -7.492  -0.361  0.00  0.00     0.094 H 
ATOM     35  O5D ACR d         -25.190  -6.403   1.921  0.00  0.00    -0.349 OA
ATOM     36  H34 ACR d         -26.644  -7.861   1.916  0.00  0.00     0.133 H 
ATOM     37  C5D ACR d         -24.025  -5.874   1.247  0.00  0.00     0.089 C 
ATOM     38  H38 ACR d         -23.177  -6.538   1.470  0.00  0.00     0.090 H 
ATOM     39  H37 ACR d         -25.012  -5.191  -0.572  0.00  0.00     0.091 H 
BRANCH  30  40
ATOM     40  O3D ACR d         -24.678  -7.373  -2.158  0.00  0.00    -0.390 OA
ATOM     41  H43 ACR d         -23.854  -7.200  -2.598  0.00  0.00     0.210 HD
ENDBRANCH  30  40
BRANCH  31  42
ATOM     42  O2D ACR d         -25.676  -9.352  -0.329  0.00  0.00    -0.388 OA
ATOM     43  H42 ACR d         -25.119  -9.500  -1.085  0.00  0.00     0.210 HD
ENDBRANCH  31  42
BRANCH  33  44
ATOM     44  O1D ACR d         -24.790  -8.708   2.200  0.00  0.00    -0.369 OA
ATOM     45  H41 ACR d         -25.282  -9.118   2.902  0.00  0.00     0.212 HD
ENDBRANCH  33  44
BRANCH  37  46
ATOM     46  C6D ACR d         -23.703  -4.503   1.851  0.00  0.00     0.043 C 
ATOM     47  H39 ACR d         -22.639  -4.463   2.127  0.00  0.00     0.078 H 
ATOM     48  H40 ACR d         -24.321  -4.342   2.747  0.00  0.00     0.078 H 
BRANCH  46  49
ATOM     49  O6D ACR d         -23.988  -3.481   0.879  0.00  0.00    -0.398 OA
ATOM     50  H44 ACR d         -24.805  -3.051   1.104  0.00  0.00     0.209 HD
ENDBRANCH  46  49
ENDBRANCH  37  46
ENDBRANCH  28  29
ENDBRANCH  17  28
BRANCH  21  51
ATOM     51  C6C ACR d         -20.871  -8.596  -2.957  0.00  0.00     0.043 C 
ATOM     52  H29 ACR d         -21.212  -8.711  -3.996  0.00  0.00     0.078 H 
ATOM     53  H30 ACR d         -21.403  -9.313  -2.314  0.00  0.00     0.078 H 
BRANCH  51  54
ATOM     54  O6C ACR d         -19.460  -8.847  -2.888  0.00  0.00    -0.398 OA
ATOM     55  H33 ACR d         -19.238  -9.163  -2.020  0.00  0.00     0.209 HD
ENDBRANCH  51  54
ENDBRANCH  21  51
ENDBRANCH  12  13
ENDBRANCH   1  12
BRANCH   2  56
ATOM     56  O2B ACR d         -18.129  -4.184  -5.179  0.00  0.00    -0.388 OA
ATOM     57  H22 ACR d         -18.552  -3.484  -5.664  0.00  0.00     0.210 HD
ENDBRANCH   2  56
BRANCH   3  58
ATOM     58  O3B ACR d         -18.818  -4.235  -7.951  0.00  0.00    -0.391 OA
ATOM     59  H23 ACR d         -18.411  -3.522  -7.473  0.00  0.00     0.210 HD
ENDBRANCH   3  58
BRANCH   5  60
ATOM     60  C6B ACR d         -20.087  -8.973  -7.397  0.00  0.00    -0.050 C 
ATOM     61  H17 ACR d         -19.972  -9.737  -6.614  0.00  0.00     0.031 H 
ATOM     62  H18 ACR d         -19.300  -9.101  -8.154  0.00  0.00     0.031 H 
ATOM     63  H19 ACR d         -21.074  -9.080  -7.871  0.00  0.00     0.031 H 
ENDBRANCH   5  60
BRANCH   4  64
ATOM     64  N4B ACR d         -20.317  -6.358  -9.002  0.00  0.00    -0.056 N 
ATOM     65  H20 ACR d         -20.902  -7.175  -9.079  0.00  0.00     0.278 HD
ATOM     66  H21 ACR d         -20.893  -5.544  -8.860  0.00  0.00     0.278 HD
BRANCH  64  67
ATOM     67  C1A ACR d         -19.626  -6.186 -10.309  0.00  0.00     0.146 C 
ATOM     68  C2A ACR d         -20.530  -5.755 -11.482  0.00  0.00     0.093 C 
ATOM     69  C3A ACR d         -21.433  -6.918 -11.894  0.00  0.00     0.091 C 
ATOM     70  H2  ACR d         -19.897  -5.466 -12.334  0.00  0.00     0.090 H 
ATOM     71  C4A ACR d         -20.568  -8.007 -12.499  0.00  0.00     0.086 C 
ATOM     72  H3  ACR d         -21.881  -7.317 -10.972  0.00  0.00     0.091 H 
ATOM     73  C5A ACR d         -19.353  -8.288 -11.641  0.00  0.00    -0.027 C 
ATOM     74  H4  ACR d         -20.231  -7.682 -13.494  0.00  0.00     0.094 H 
ATOM     75  C7A ACR d         -18.849  -7.423 -10.746  0.00  0.00    -0.064 C 
ATOM     76  H7  ACR d         -17.863  -7.609 -10.323  0.00  0.00     0.080 H 
ATOM     77  H1  ACR d         -18.895  -5.378 -10.157  0.00  0.00     0.095 H 
BRANCH  68  78
ATOM     78  O2A ACR d         -21.343  -4.650 -11.111  0.00  0.00    -0.390 OA
ATOM     79  H8  ACR d         -20.908  -4.153 -10.429  0.00  0.00     0.210 HD
ENDBRANCH  68  78
BRANCH  69  80
ATOM     80  O3A ACR d         -22.553  -6.574 -12.784  0.00  0.00    -0.390 OA
ATOM     81  H9  ACR d         -23.346  -6.993 -12.470  0.00  0.00     0.210 HD
ENDBRANCH  69  80
BRANCH  71  82
ATOM     82  O4A ACR d         -21.346  -9.196 -12.631  0.00  0.00    -0.388 OA
ATOM     83  H10 ACR d         -20.771  -9.953 -12.620  0.00  0.00     0.210 HD
ENDBRANCH  71  82
BRANCH  73  84
ATOM     84  C6A ACR d         -18.686  -9.608 -11.872  0.00  0.00     0.039 C 
ATOM     85  H5  ACR d         -19.412 -10.367 -12.198  0.00  0.00     0.081 H 
ATOM     86  H6  ACR d         -18.173  -9.958 -10.965  0.00  0.00     0.081 H 
BRANCH  84  87
ATOM     87  O6A ACR d         -17.742  -9.310 -12.919  0.00  0.00    -0.397 OA
ATOM     88  H11 ACR d         -16.863  -9.513 -12.619  0.00  0.00     0.209 HD
ENDBRANCH  84  87
ENDBRANCH  73  84
ENDBRANCH  64  67
ENDBRANCH   4  64
TORSDOF 23
ENDMDL
MODEL 3
REMARK VINA RESULT:      -6.4      1.686      2.377
REMARK  23 active torsions:
REMARK  status: ('A' for Active; 'I' for Inactive)
REMARK    1  A    between atoms: N4B_18  and  C1A_1 
REMARK    2  A    between atoms: C2A_2  and  O2A_8 
REMARK    3  A    between atoms: C3A_3  and  O3A_9 
REMARK    4  A    between atoms: C4A_4  and  O4A_10 
REMARK    5  A    between atoms: C5A_5  and  C6A_6 
REMARK    6  A    between atoms: C6A_6  and  O6A_11 
REMARK    7  A    between atoms: O4C_30  and  C1B_12 
REMARK    8  A    between atoms: C2B_13  and  O2B_19 
REMARK    9  A    between atoms: C3B_14  and  O3B_20 
REMARK   10  A    between atoms: C4B_15  and  N4B_18 
REMARK   11  A    between atoms: C5B_16  and  C6B_17 
REMARK   12  A    between atoms: O4D_42  and  C1C_22 
REMARK   13  A    between atoms: C2C_23  and  O2C_28 
REMARK   14  A    between atoms: C3C_24  and  O3C_29 
REMARK   15  A    between atoms: C4C_25  and  O4C_30 
REMARK   16  A    between atoms: C5C_26  and  C6C_27 
REMARK   17  A    between atoms: C6C_27  and  O6C_32 
REMARK   18  A    between atoms: C1D_33  and  O1D_39 
REMARK   19  A    between atoms: C2D_34  and  O2D_40 
REMARK   20  A    between atoms: C3D_35  and  O3D_41 
REMARK   21  A    between atoms: C4D_36  and  O4D_42 
REMARK   22  A    between atoms: C5D_37  and  C6D_38 
REMARK   23  A    between atoms: C6D_38  and  O6D_44 
ROOT
ATOM      1  C1B ACR d         -18.003  -6.781  -5.365  0.00  0.00     0.159 C 
ATOM      2  C2B ACR d         -17.570  -5.636  -6.279  0.00  0.00     0.110 C 
ATOM      3  C3B ACR d         -18.710  -5.258  -7.238  0.00  0.00     0.094 C 
ATOM      4  C4B ACR d         -19.092  -6.465  -8.095  0.00  0.00     0.154 C 
ATOM      5  C5B ACR d         -19.501  -7.609  -7.143  0.00  0.00     0.068 C 
ATOM      6  O5B ACR d         -18.433  -7.865  -6.195  0.00  0.00    -0.351 OA
ATOM      7  H12 ACR d         -17.154  -7.105  -4.745  0.00  0.00     0.133 H 
ATOM      8  H13 ACR d         -16.688  -5.943  -6.861  0.00  0.00     0.094 H 
ATOM      9  H14 ACR d         -19.581  -4.932  -6.651  0.00  0.00     0.090 H 
ATOM     10  H15 ACR d         -18.184  -6.799  -8.618  0.00  0.00     0.092 H 
ATOM     11  H16 ACR d         -20.406  -7.302  -6.599  0.00  0.00     0.086 H 
ENDROOT
BRANCH   1  12
ATOM     12  O4C ACR d         -19.075  -6.338  -4.509  0.00  0.00    -0.348 OA
BRANCH  12  13
ATOM     13  C4C ACR d         -19.948  -7.349  -4.006  0.00  0.00     0.096 C 
ATOM     14  C3C ACR d         -19.226  -8.088  -2.879  0.00  0.00     0.092 C 
ATOM     15  C2C ACR d         -20.138  -9.025  -2.082  0.00  0.00     0.110 C 
ATOM     16  H26 ACR d         -18.844  -7.330  -2.178  0.00  0.00     0.091 H 
ATOM     17  C1C ACR d         -21.434  -8.343  -1.658  0.00  0.00     0.159 C 
ATOM     18  H25 ACR d         -20.368  -9.922  -2.677  0.00  0.00     0.094 H 
ATOM     19  O5C ACR d         -22.039  -7.730  -2.810  0.00  0.00    -0.348 OA
ATOM     20  H24 ACR d         -22.123  -9.088  -1.232  0.00  0.00     0.133 H 
ATOM     21  C5C ACR d         -21.249  -6.729  -3.485  0.00  0.00     0.089 C 
ATOM     22  H28 ACR d         -20.986  -5.939  -2.766  0.00  0.00     0.090 H 
ATOM     23  H27 ACR d         -20.188  -8.057  -4.813  0.00  0.00     0.091 H 
BRANCH  14  24
ATOM     24  O3C ACR d         -18.104  -8.802  -3.414  0.00  0.00    -0.390 OA
ATOM     25  H32 ACR d         -18.074  -8.684  -4.355  0.00  0.00     0.210 HD
ENDBRANCH  14  24
BRANCH  15  26
ATOM     26  O2C ACR d         -19.425  -9.369  -0.900  0.00  0.00    -0.388 OA
ATOM     27  H31 ACR d         -19.860  -8.987  -0.146  0.00  0.00     0.210 HD
ENDBRANCH  15  26
BRANCH  17  28
ATOM     28  O4D ACR d         -21.146  -7.342  -0.672  0.00  0.00    -0.348 OA
BRANCH  28  29
ATOM     29  C4D ACR d         -22.123  -7.103   0.350  0.00  0.00     0.096 C 
ATOM     30  C3D ACR d         -23.313  -6.499  -0.403  0.00  0.00     0.092 C 
ATOM     31  C2D ACR d         -24.549  -6.284   0.478  0.00  0.00     0.110 C 
ATOM     32  H36 ACR d         -23.597  -7.217  -1.187  0.00  0.00     0.091 H 
ATOM     33  C1D ACR d         -24.889  -7.508   1.369  0.00  0.00     0.156 C 
ATOM     34  H35 ACR d         -24.350  -5.435   1.149  0.00  0.00     0.094 H 
ATOM     35  O5D ACR d         -23.726  -8.144   1.938  0.00  0.00    -0.349 OA
ATOM     36  H34 ACR d         -25.499  -7.134   2.206  0.00  0.00     0.133 H 
ATOM     37  C5D ACR d         -22.614  -8.395   1.046  0.00  0.00     0.089 C 
ATOM     38  H38 ACR d         -22.967  -9.067   0.250  0.00  0.00     0.090 H 
ATOM     39  H37 ACR d         -21.726  -6.407   1.103  0.00  0.00     0.091 H 
BRANCH  30  40
ATOM     40  O3D ACR d         -22.929  -5.271  -1.054  0.00  0.00    -0.390 OA
ATOM     41  H43 ACR d         -23.625  -4.632  -0.957  0.00  0.00     0.210 HD
ENDBRANCH  30  40
BRANCH  31  42
ATOM     42  O2D ACR d         -25.645  -5.933  -0.390  0.00  0.00    -0.388 OA
ATOM     43  H42 ACR d         -25.790  -4.995  -0.352  0.00  0.00     0.210 HD
ENDBRANCH  31  42
BRANCH  33  44
ATOM     44  O1D ACR d         -25.675  -8.481   0.660  0.00  0.00    -0.369 OA
ATOM     45  H41 ACR d         -25.123  -8.940   0.038  0.00  0.00     0.212 HD
ENDBRANCH  33  44
BRANCH  37  46
ATOM     46  C6D ACR d         -21.531  -9.143   1.828  0.00  0.00     0.043 C 
ATOM     47  H39 ACR d         -21.901  -9.378   2.837  0.00  0.00     0.078 H 
ATOM     48  H40 ACR d         -20.631  -8.514   1.905  0.00  0.00     0.078 H 
BRANCH  46  49
ATOM     49  O6D ACR d         -21.207 -10.363   1.137  0.00  0.00    -0.398 OA
ATOM     50  H44 ACR d         -22.005 -10.852   0.970  0.00  0.00     0.209 HD
ENDBRANCH  46  49
ENDBRANCH  37  46
ENDBRANCH  28  29
ENDBRANCH  17  28
BRANCH  21  51
ATOM     51  C6C ACR d         -22.092  -6.108  -4.594  0.00  0.00     0.043 C 
ATOM     52  H29 ACR d         -21.506  -5.335  -5.110  0.00  0.00     0.078 H 
ATOM     53  H30 ACR d         -22.995  -5.654  -4.157  0.00  0.00     0.078 H 
BRANCH  51  54
ATOM     54  O6C ACR d         -22.475  -7.123  -5.534  0.00  0.00    -0.398 OA
ATOM     55  H33 ACR d         -23.176  -7.648  -5.164  0.00  0.00     0.209 HD
ENDBRANCH  51  54
ENDBRANCH  21  51
ENDBRANCH  12  13
ENDBRANCH   1  12
BRANCH   2  56
ATOM     56  O2B ACR d         -17.245  -4.506  -5.471  0.00  0.00    -0.388 OA
ATOM     57  H22 ACR d         -16.367  -4.209  -5.681  0.00  0.00     0.210 HD
ENDBRANCH   2  56
BRANCH   3  58
ATOM     58  O3B ACR d         -18.303  -4.206  -8.107  0.00  0.00    -0.391 OA
ATOM     59  H23 ACR d         -17.698  -3.635  -7.648  0.00  0.00     0.210 HD
ENDBRANCH   3  58
BRANCH   5  60
ATOM     60  C6B ACR d         -19.789  -8.908  -7.887  0.00  0.00    -0.050 C 
ATOM     61  H17 ACR d         -18.908  -9.565  -7.832  0.00  0.00     0.031 H 
ATOM     62  H18 ACR d         -20.016  -8.685  -8.940  0.00  0.00     0.031 H 
ATOM     63  H19 ACR d         -20.650  -9.412  -7.425  0.00  0.00     0.031 H 
ENDBRANCH   5  60
BRANCH   4  64
ATOM     64  N4B ACR d         -20.063  -6.119  -9.156  0.00  0.00    -0.056 N 
ATOM     65  H20 ACR d         -20.783  -6.824  -9.142  0.00  0.00     0.278 HD
ATOM     66  H21 ACR d         -20.463  -5.226  -8.914  0.00  0.00     0.278 HD
BRANCH  64  67
ATOM     67  C1A ACR d         -19.572  -6.018 -10.557  0.00  0.00     0.146 C 
ATOM     68  C2A ACR d         -20.646  -5.675 -11.610  0.00  0.00     0.093 C 
ATOM     69  C3A ACR d         -21.570  -6.876 -11.817  0.00  0.00     0.091 C 
ATOM     70  H2  ACR d         -20.149  -5.430 -12.561  0.00  0.00     0.090 H 
ATOM     71  C4A ACR d         -20.774  -7.987 -12.475  0.00  0.00     0.086 C 
ATOM     72  H3  ACR d         -21.870  -7.224 -10.817  0.00  0.00     0.091 H 
ATOM     73  C5A ACR d         -19.441  -8.194 -11.787  0.00  0.00    -0.027 C 
ATOM     74  H4  ACR d         -20.592  -7.720 -13.526  0.00  0.00     0.094 H 
ATOM     75  C7A ACR d         -18.835  -7.268 -11.028  0.00  0.00    -0.064 C 
ATOM     76  H7  ACR d         -17.795  -7.411 -10.742  0.00  0.00     0.080 H 
ATOM     77  H1  ACR d         -18.847  -5.190 -10.561  0.00  0.00     0.095 H 
BRANCH  68  78
ATOM     78  O2A ACR d         -21.425  -4.563 -11.192  0.00  0.00    -0.390 OA
ATOM     79  H8  ACR d         -21.416  -3.898 -11.871  0.00  0.00     0.210 HD
ENDBRANCH  68  78
BRANCH  69  80
ATOM     80  O3A ACR d         -22.814  -6.607 -12.554  0.00  0.00    -0.390 OA
ATOM     81  H9  ACR d         -22.606  -6.195 -13.385  0.00  0.00     0.210 HD
ENDBRANCH  69  80
BRANCH  71  82
ATOM     82  O4A ACR d         -21.533  -9.194 -12.422  0.00  0.00    -0.388 OA
ATOM     83  H10 ACR d         -21.738  -9.478 -13.305  0.00  0.00     0.210 HD
ENDBRANCH  71  82
BRANCH  73  84
ATOM     84  C6A ACR d         -18.782  -9.516 -12.034  0.00  0.00     0.039 C 
ATOM     85  H5  ACR d         -19.480 -10.226 -12.500  0.00  0.00     0.081 H 
ATOM     86  H6  ACR d         -18.392  -9.945 -11.100  0.00  0.00     0.081 H 
BRANCH  84  87
ATOM     87  O6A ACR d         -17.711  -9.175 -12.935  0.00  0.00    -0.397 OA
ATOM     88  H11 ACR d         -16.997  -9.792 -12.824  0.00  0.00     0.209 HD
ENDBRANCH  84  87
ENDBRANCH  73  84
ENDBRANCH  64  67
ENDBRANCH   4  64
TORSDOF 23
ENDMDL
MODEL 4
REMARK VINA RESULT:      -6.1      1.418      2.062
REMARK  23 active torsions:
REMARK  status: ('A' for Active; 'I' for Inactive)
REMARK    1  A    between atoms: N4B_18  and  C1A_1 
REMARK    2  A    between atoms: C2A_2  and  O2A_8 
REMARK    3  A    between atoms: C3A_3  and  O3A_9 
REMARK    4  A    between atoms: C4A_4  and  O4A_10 
REMARK    5  A    between atoms: C5A_5  and  C6A_6 
REMARK    6  A    between atoms: C6A_6  and  O6A_11 
REMARK    7  A    between atoms: O4C_30  and  C1B_12 
REMARK    8  A    between atoms: C2B_13  and  O2B_19 
REMARK    9  A    between atoms: C3B_14  and  O3B_20 
REMARK   10  A    between atoms: C4B_15  and  N4B_18 
REMARK   11  A    between atoms: C5B_16  and  C6B_17 
REMARK   12  A    between atoms: O4D_42  and  C1C_22 
REMARK   13  A    between atoms: C2C_23  and  O2C_28 
REMARK   14  A    between atoms: C3C_24  and  O3C_29 
REMARK   15  A    between atoms: C4C_25  and  O4C_30 
REMARK   16  A    between atoms: C5C_26  and  C6C_27 
REMARK   17  A    between atoms: C6C_27  and  O6C_32 
REMARK   18  A    between atoms: C1D_33  and  O1D_39 
REMARK   19  A    between atoms: C2D_34  and  O2D_40 
REMARK   20  A    between atoms: C3D_35  and  O3D_41 
REMARK   21  A    between atoms: C4D_36  and  O4D_42 
REMARK   22  A    between atoms: C5D_37  and  C6D_38 
REMARK   23  A    between atoms: C6D_38  and  O6D_44 
ROOT
ATOM      1  C1B ACR d         -18.319  -6.392  -5.043  0.00  0.00     0.159 C 
ATOM      2  C2B ACR d         -17.758  -5.455  -6.110  0.00  0.00     0.110 C 
ATOM      3  C3B ACR d         -18.828  -5.153  -7.172  0.00  0.00     0.094 C 
ATOM      4  C4B ACR d         -19.285  -6.452  -7.836  0.00  0.00     0.154 C 
ATOM      5  C5B ACR d         -19.823  -7.384  -6.729  0.00  0.00     0.068 C 
ATOM      6  O5B ACR d         -18.814  -7.562  -5.702  0.00  0.00    -0.351 OA
ATOM      7  H12 ACR d         -17.523  -6.675  -4.338  0.00  0.00     0.133 H 
ATOM      8  H13 ACR d         -16.887  -5.925  -6.592  0.00  0.00     0.094 H 
ATOM      9  H14 ACR d         -19.687  -4.665  -6.688  0.00  0.00     0.090 H 
ATOM     10  H15 ACR d         -18.392  -6.941  -8.253  0.00  0.00     0.092 H 
ATOM     11  H16 ACR d         -20.716  -6.919  -6.286  0.00  0.00     0.086 H 
ENDROOT
BRANCH   1  12
ATOM     12  O4C ACR d         -19.376  -5.727  -4.323  0.00  0.00    -0.348 OA
BRANCH  12  13
ATOM     13  C4C ACR d         -20.013  -6.478  -3.289  0.00  0.00     0.096 C 
ATOM     14  C3C ACR d         -18.969  -6.800  -2.219  0.00  0.00     0.092 C 
ATOM     15  C2C ACR d         -19.571  -7.379  -0.935  0.00  0.00     0.110 C 
ATOM     16  H26 ACR d         -18.470  -5.858  -1.949  0.00  0.00     0.091 H 
ATOM     17  C1C ACR d         -20.754  -6.557  -0.433  0.00  0.00     0.159 C 
ATOM     18  H25 ACR d         -19.887  -8.419  -1.103  0.00  0.00     0.094 H 
ATOM     19  O5C ACR d         -21.682  -6.365  -1.515  0.00  0.00    -0.348 OA
ATOM     20  H24 ACR d         -21.252  -7.090   0.391  0.00  0.00     0.133 H 
ATOM     21  C5C ACR d         -21.170  -5.681  -2.677  0.00  0.00     0.089 C 
ATOM     22  H28 ACR d         -20.782  -4.698  -2.370  0.00  0.00     0.090 H 
ATOM     23  H27 ACR d         -20.408  -7.415  -3.709  0.00  0.00     0.091 H 
BRANCH  14  24
ATOM     24  O3C ACR d         -17.981  -7.686  -2.762  0.00  0.00    -0.390 OA
ATOM     25  H32 ACR d         -18.256  -7.974  -3.624  0.00  0.00     0.210 HD
ENDBRANCH  14  24
BRANCH  15  26
ATOM     26  O2C ACR d         -18.550  -7.312   0.053  0.00  0.00    -0.388 OA
ATOM     27  H31 ACR d         -17.897  -7.981  -0.123  0.00  0.00     0.210 HD
ENDBRANCH  15  26
BRANCH  17  28
ATOM     28  O4D ACR d         -20.287  -5.285   0.036  0.00  0.00    -0.348 OA
BRANCH  28  29
ATOM     29  C4D ACR d         -20.934  -4.710   1.179  0.00  0.00     0.096 C 
ATOM     30  C3D ACR d         -22.074  -3.878   0.584  0.00  0.00     0.092 C 
ATOM     31  C2D ACR d         -23.003  -3.268   1.641  0.00  0.00     0.110 C 
ATOM     32  H36 ACR d         -22.685  -4.558  -0.028  0.00  0.00     0.091 H 
ATOM     33  C1D ACR d         -23.430  -4.278   2.739  0.00  0.00     0.156 C 
ATOM     34  H35 ACR d         -22.464  -2.449   2.140  0.00  0.00     0.094 H 
ATOM     35  O5D ACR d         -22.361  -5.150   3.164  0.00  0.00    -0.349 OA
ATOM     36  H34 ACR d         -23.736  -3.686   3.615  0.00  0.00     0.133 H 
ATOM     37  C5D ACR d         -21.562  -5.761   2.125  0.00  0.00     0.089 C 
ATOM     38  H38 ACR d         -22.230  -6.380   1.508  0.00  0.00     0.090 H 
ATOM     39  H37 ACR d         -20.227  -4.082   1.742  0.00  0.00     0.091 H 
BRANCH  30  40
ATOM     40  O3D ACR d         -21.553  -2.856  -0.290  0.00  0.00    -0.390 OA
ATOM     41  H43 ACR d         -21.113  -2.192   0.229  0.00  0.00     0.210 HD
ENDBRANCH  30  40
BRANCH  31  42
ATOM     42  O2D ACR d         -24.141  -2.715   0.951  0.00  0.00    -0.388 OA
ATOM     43  H42 ACR d         -23.876  -1.932   0.482  0.00  0.00     0.210 HD
ENDBRANCH  31  42
BRANCH  33  44
ATOM     44  O1D ACR d         -24.562  -5.065   2.329  0.00  0.00    -0.369 OA
ATOM     45  H41 ACR d         -24.261  -5.813   1.827  0.00  0.00     0.212 HD
ENDBRANCH  33  44
BRANCH  37  46
ATOM     46  C6D ACR d         -20.550  -6.700   2.788  0.00  0.00     0.043 C 
ATOM     47  H39 ACR d         -20.572  -7.679   2.286  0.00  0.00     0.078 H 
ATOM     48  H40 ACR d         -20.807  -6.827   3.850  0.00  0.00     0.078 H 
BRANCH  46  49
ATOM     49  O6D ACR d         -19.233  -6.130   2.676  0.00  0.00    -0.398 OA
ATOM     50  H44 ACR d         -18.678  -6.715   2.173  0.00  0.00     0.209 HD
ENDBRANCH  46  49
ENDBRANCH  37  46
ENDBRANCH  28  29
ENDBRANCH  17  28
BRANCH  21  51
ATOM     51  C6C ACR d         -22.317  -5.459  -3.658  0.00  0.00     0.043 C 
ATOM     52  H29 ACR d         -22.183  -6.114  -4.531  0.00  0.00     0.078 H 
ATOM     53  H30 ACR d         -22.323  -4.408  -3.984  0.00  0.00     0.078 H 
BRANCH  51  54
ATOM     54  O6C ACR d         -23.565  -5.768  -3.018  0.00  0.00    -0.398 OA
ATOM     55  H33 ACR d         -23.802  -5.059  -2.432  0.00  0.00     0.209 HD
ENDBRANCH  51  54
ENDBRANCH  21  51
ENDBRANCH  12  13
ENDBRANCH   1  12
BRANCH   2  56
ATOM     56  O2B ACR d         -17.363  -4.236  -5.484  0.00  0.00    -0.388 OA
ATOM     57  H22 ACR d         -17.392  -4.341  -4.541  0.00  0.00     0.210 HD
ENDBRANCH   2  56
BRANCH   3  58
ATOM     58  O3B ACR d         -18.303  -4.298  -8.181  0.00  0.00    -0.391 OA
ATOM     59  H23 ACR d         -18.708  -4.507  -9.014  0.00  0.00     0.210 HD
ENDBRANCH   3  58
BRANCH   5  60
ATOM     60  C6B ACR d         -20.198  -8.762  -7.262  0.00  0.00    -0.050 C 
ATOM     61  H17 ACR d         -19.379  -9.469  -7.059  0.00  0.00     0.031 H 
ATOM     62  H18 ACR d         -20.369  -8.701  -8.346  0.00  0.00     0.031 H 
ATOM     63  H19 ACR d         -21.114  -9.111  -6.764  0.00  0.00     0.031 H 
ENDBRANCH   5  60
BRANCH   4  64
ATOM     64  N4B ACR d         -20.186  -6.213  -8.984  0.00  0.00    -0.056 N 
ATOM     65  H20 ACR d         -20.842  -6.978  -9.013  0.00  0.00     0.278 HD
ATOM     66  H21 ACR d         -20.680  -5.354  -8.800  0.00  0.00     0.278 HD
BRANCH  64  67
ATOM     67  C1A ACR d         -19.587  -6.095 -10.340  0.00  0.00     0.146 C 
ATOM     68  C2A ACR d         -20.573  -5.737 -11.471  0.00  0.00     0.093 C 
ATOM     69  C3A ACR d         -21.479  -6.932 -11.764  0.00  0.00     0.091 C 
ATOM     70  H2  ACR d         -20.003  -5.481 -12.376  0.00  0.00     0.090 H 
ATOM     71  C4A ACR d         -20.636  -8.037 -12.372  0.00  0.00     0.086 C 
ATOM     72  H3  ACR d         -21.859  -7.292 -10.796  0.00  0.00     0.091 H 
ATOM     73  C5A ACR d         -19.362  -8.256 -11.584  0.00  0.00    -0.027 C 
ATOM     74  H4  ACR d         -20.371  -7.757 -13.402  0.00  0.00     0.094 H 
ATOM     75  C7A ACR d         -18.817  -7.341 -10.768  0.00  0.00    -0.064 C 
ATOM     76  H7  ACR d         -17.802  -7.490 -10.403  0.00  0.00     0.080 H 
ATOM     77  H1  ACR d         -18.862  -5.269 -10.276  0.00  0.00     0.095 H 
BRANCH  68  78
ATOM     78  O2A ACR d         -21.381  -4.627 -11.100  0.00  0.00    -0.390 OA
ATOM     79  H8  ACR d         -21.045  -3.840 -11.514  0.00  0.00     0.210 HD
ENDBRANCH  68  78
BRANCH  69  80
ATOM     80  O3A ACR d         -22.662  -6.650 -12.594  0.00  0.00    -0.390 OA
ATOM     81  H9  ACR d         -22.414  -6.081 -13.313  0.00  0.00     0.210 HD
ENDBRANCH  69  80
BRANCH  71  82
ATOM     82  O4A ACR d         -21.399  -9.243 -12.394  0.00  0.00    -0.388 OA
ATOM     83  H10 ACR d         -22.244  -9.089 -11.989  0.00  0.00     0.210 HD
ENDBRANCH  71  82
BRANCH  73  84
ATOM     84  C6A ACR d         -18.688  -9.576 -11.795  0.00  0.00     0.039 C 
ATOM     85  H5  ACR d         -19.378 -10.307 -12.241  0.00  0.00     0.081 H 
ATOM     86  H6  ACR d         -18.292  -9.975 -10.850  0.00  0.00     0.081 H 
BRANCH  84  87
ATOM     87  O6A ACR d         -17.621  -9.248 -12.706  0.00  0.00    -0.397 OA
ATOM     88  H11 ACR d         -17.686  -9.797 -13.479  0.00  0.00     0.209 HD
ENDBRANCH  84  87
ENDBRANCH  73  84
ENDBRANCH  64  67
ENDBRANCH   4  64
TORSDOF 23
ENDMDL
MODEL 5
REMARK VINA RESULT:      -5.1      2.126      4.401
REMARK  23 active torsions:
REMARK  status: ('A' for Active; 'I' for Inactive)
REMARK    1  A    between atoms: N4B_18  and  C1A_1 
REMARK    2  A    between atoms: C2A_2  and  O2A_8 
REMARK    3  A    between atoms: C3A_3  and  O3A_9 
REMARK    4  A    between atoms: C4A_4  and  O4A_10 
REMARK    5  A    between atoms: C5A_5  and  C6A_6 
REMARK    6  A    between atoms: C6A_6  and  O6A_11 
REMARK    7  A    between atoms: O4C_30  and  C1B_12 
REMARK    8  A    between atoms: C2B_13  and  O2B_19 
REMARK    9  A    between atoms: C3B_14  and  O3B_20 
REMARK   10  A    between atoms: C4B_15  and  N4B_18 
REMARK   11  A    between atoms: C5B_16  and  C6B_17 
REMARK   12  A    between atoms: O4D_42  and  C1C_22 
REMARK   13  A    between atoms: C2C_23  and  O2C_28 
REMARK   14  A    between atoms: C3C_24  and  O3C_29 
REMARK   15  A    between atoms: C4C_25  and  O4C_30 
REMARK   16  A    between atoms: C5C_26  and  C6C_27 
REMARK   17  A    between atoms: C6C_27  and  O6C_32 
REMARK   18  A    between atoms: C1D_33  and  O1D_39 
REMARK   19  A    between atoms: C2D_34  and  O2D_40 
REMARK   20  A    between atoms: C3D_35  and  O3D_41 
REMARK   21  A    between atoms: C4D_36  and  O4D_42 
REMARK   22  A    between atoms: C5D_37  and  C6D_38 
REMARK   23  A    between atoms: C6D_38  and  O6D_44 
ROOT
ATOM      1  C1B ACR d         -19.762  -6.299  -5.007  0.00  0.00     0.159 C 
ATOM      2  C2B ACR d         -18.700  -5.493  -5.755  0.00  0.00     0.110 C 
ATOM      3  C3B ACR d         -18.948  -5.562  -7.270  0.00  0.00     0.094 C 
ATOM      4  C4B ACR d         -18.898  -7.015  -7.742  0.00  0.00     0.154 C 
ATOM      5  C5B ACR d         -19.964  -7.803  -6.952  0.00  0.00     0.068 C 
ATOM      6  O5B ACR d         -19.749  -7.631  -5.528  0.00  0.00    -0.351 OA
ATOM      7  H12 ACR d         -19.527  -6.320  -3.933  0.00  0.00     0.133 H 
ATOM      8  H13 ACR d         -17.704  -5.900  -5.528  0.00  0.00     0.094 H 
ATOM      9  H14 ACR d         -19.937  -5.136  -7.494  0.00  0.00     0.090 H 
ATOM     10  H15 ACR d         -17.921  -7.425  -7.447  0.00  0.00     0.092 H 
ATOM     11  H16 ACR d         -20.957  -7.413  -7.221  0.00  0.00     0.086 H 
ENDROOT
BRANCH   1  12
ATOM     12  O4C ACR d         -21.055  -5.689  -5.200  0.00  0.00    -0.348 OA
BRANCH  12  13
ATOM     13  C4C ACR d         -21.914  -5.646  -4.060  0.00  0.00     0.096 C 
ATOM     14  C3C ACR d         -22.353  -7.075  -3.738  0.00  0.00     0.092 C 
ATOM     15  C2C ACR d         -23.068  -7.203  -2.389  0.00  0.00     0.110 C 
ATOM     16  H26 ACR d         -21.446  -7.696  -3.686  0.00  0.00     0.091 H 
ATOM     17  C1C ACR d         -22.305  -6.511  -1.265  0.00  0.00     0.159 C 
ATOM     18  H25 ACR d         -24.084  -6.785  -2.461  0.00  0.00     0.094 H 
ATOM     19  O5C ACR d         -21.994  -5.166  -1.671  0.00  0.00    -0.348 OA
ATOM     20  H24 ACR d         -22.925  -6.488  -0.356  0.00  0.00     0.133 H 
ATOM     21  C5C ACR d         -21.187  -5.032  -2.859  0.00  0.00     0.089 C 
ATOM     22  H28 ACR d         -20.245  -5.580  -2.714  0.00  0.00     0.090 H 
ATOM     23  H27 ACR d         -22.798  -5.036  -4.293  0.00  0.00     0.091 H 
BRANCH  14  24
ATOM     24  O3C ACR d         -23.175  -7.577  -4.800  0.00  0.00    -0.390 OA
ATOM     25  H32 ACR d         -24.042  -7.197  -4.734  0.00  0.00     0.210 HD
ENDBRANCH  14  24
BRANCH  15  26
ATOM     26  O2C ACR d         -23.112  -8.593  -2.089  0.00  0.00    -0.388 OA
ATOM     27  H31 ACR d         -24.012  -8.896  -2.127  0.00  0.00     0.210 HD
ENDBRANCH  15  26
BRANCH  17  28
ATOM     28  O4D ACR d         -21.093  -7.229  -0.998  0.00  0.00    -0.348 OA
BRANCH  28  29
ATOM     29  C4D ACR d         -20.630  -7.286   0.358  0.00  0.00     0.096 C 
ATOM     30  C3D ACR d         -20.655  -8.780   0.698  0.00  0.00     0.092 C 
ATOM     31  C2D ACR d         -20.062  -9.104   2.075  0.00  0.00     0.110 C 
ATOM     32  H36 ACR d         -20.031  -9.292  -0.050  0.00  0.00     0.091 H 
ATOM     33  C1D ACR d         -18.710  -8.391   2.345  0.00  0.00     0.156 C 
ATOM     34  H35 ACR d         -20.771  -8.763   2.843  0.00  0.00     0.094 H 
ATOM     35  O5D ACR d         -18.675  -7.029   1.869  0.00  0.00    -0.349 OA
ATOM     36  H34 ACR d         -18.579  -8.359   3.436  0.00  0.00     0.133 H 
ATOM     37  C5D ACR d         -19.176  -6.788   0.533  0.00  0.00     0.089 C 
ATOM     38  H38 ACR d         -18.557  -7.369  -0.168  0.00  0.00     0.090 H 
ATOM     39  H37 ACR d         -21.299  -6.712   1.015  0.00  0.00     0.091 H 
BRANCH  30  40
ATOM     40  O3D ACR d         -21.993  -9.304   0.582  0.00  0.00    -0.390 OA
ATOM     41  H43 ACR d         -21.983 -10.074   0.026  0.00  0.00     0.210 HD
ENDBRANCH  30  40
BRANCH  31  42
ATOM     42  O2D ACR d         -19.939 -10.537   2.168  0.00  0.00    -0.388 OA
ATOM     43  H42 ACR d         -19.795 -10.898   1.301  0.00  0.00     0.210 HD
ENDBRANCH  31  42
BRANCH  33  44
ATOM     44  O1D ACR d         -17.602  -9.125   1.794  0.00  0.00    -0.369 OA
ATOM     45  H41 ACR d         -17.366  -8.755   0.952  0.00  0.00     0.212 HD
ENDBRANCH  33  44
BRANCH  37  46
ATOM     46  C6D ACR d         -18.971  -5.307   0.204  0.00  0.00     0.043 C 
ATOM     47  H39 ACR d         -18.761  -5.193  -0.870  0.00  0.00     0.078 H 
ATOM     48  H40 ACR d         -18.124  -4.914   0.787  0.00  0.00     0.078 H 
BRANCH  46  49
ATOM     49  O6D ACR d         -20.166  -4.579   0.540  0.00  0.00    -0.398 OA
ATOM     50  H44 ACR d         -20.013  -3.649   0.422  0.00  0.00     0.209 HD
ENDBRANCH  46  49
ENDBRANCH  37  46
ENDBRANCH  28  29
ENDBRANCH  17  28
BRANCH  21  51
ATOM     51  C6C ACR d         -20.858  -3.556  -3.061  0.00  0.00     0.043 C 
ATOM     52  H29 ACR d         -19.774  -3.439  -3.202  0.00  0.00     0.078 H 
ATOM     53  H30 ACR d         -21.176  -2.986  -2.175  0.00  0.00     0.078 H 
BRANCH  51  54
ATOM     54  O6C ACR d         -21.547  -3.063  -4.220  0.00  0.00    -0.398 OA
ATOM     55  H33 ACR d         -22.431  -3.411  -4.233  0.00  0.00     0.209 HD
ENDBRANCH  51  54
ENDBRANCH  21  51
ENDBRANCH  12  13
ENDBRANCH   1  12
BRANCH   2  56
ATOM     56  O2B ACR d         -18.776  -4.134  -5.329  0.00  0.00    -0.388 OA
ATOM     57  H22 ACR d         -18.801  -4.101  -4.380  0.00  0.00     0.210 HD
ENDBRANCH   2  56
BRANCH   3  58
ATOM     58  O3B ACR d         -17.947  -4.832  -7.972  0.00  0.00    -0.391 OA
ATOM     59  H23 ACR d         -17.089  -5.093  -7.661  0.00  0.00     0.210 HD
ENDBRANCH   3  58
BRANCH   5  60
ATOM     60  C6B ACR d         -19.924  -9.297  -7.255  0.00  0.00    -0.050 C 
ATOM     61  H17 ACR d         -20.930  -9.641  -7.539  0.00  0.00     0.031 H 
ATOM     62  H18 ACR d         -19.588  -9.844  -6.362  0.00  0.00     0.031 H 
ATOM     63  H19 ACR d         -19.226  -9.485  -8.084  0.00  0.00     0.031 H 
ENDBRANCH   5  60
BRANCH   4  64
ATOM     64  N4B ACR d         -18.956  -7.133  -9.215  0.00  0.00    -0.056 N 
ATOM     65  H20 ACR d         -19.253  -6.238  -9.574  0.00  0.00     0.278 HD
ATOM     66  H21 ACR d         -18.022  -7.330  -9.536  0.00  0.00     0.278 HD
BRANCH  64  67
ATOM     67  C1A ACR d         -19.851  -8.164  -9.807  0.00  0.00     0.146 C 
ATOM     68  C2A ACR d         -19.235  -8.999 -10.948  0.00  0.00     0.093 C 
ATOM     69  C3A ACR d         -19.086  -8.133 -12.199  0.00  0.00     0.091 C 
ATOM     70  H2  ACR d         -19.899  -9.848 -11.169  0.00  0.00     0.090 H 
ATOM     71  C4A ACR d         -20.470  -7.797 -12.719  0.00  0.00     0.086 C 
ATOM     72  H3  ACR d         -18.607  -7.194 -11.884  0.00  0.00     0.091 H 
ATOM     73  C5A ACR d         -21.380  -7.326 -11.604  0.00  0.00    -0.027 C 
ATOM     74  H4  ACR d         -20.908  -8.697 -13.176  0.00  0.00     0.094 H 
ATOM     75  C7A ACR d         -21.177  -7.596 -10.305  0.00  0.00    -0.064 C 
ATOM     76  H7  ACR d         -21.976  -7.404  -9.590  0.00  0.00     0.080 H 
ATOM     77  H1  ACR d         -20.083  -8.863  -8.990  0.00  0.00     0.095 H 
BRANCH  68  78
ATOM     78  O2A ACR d         -17.956  -9.493 -10.575  0.00  0.00    -0.390 OA
ATOM     79  H8  ACR d         -17.674 -10.146 -11.205  0.00  0.00     0.210 HD
ENDBRANCH  68  78
BRANCH  69  80
ATOM     80  O3A ACR d         -18.240  -8.692 -13.266  0.00  0.00    -0.390 OA
ATOM     81  H9  ACR d         -17.826  -7.983 -13.745  0.00  0.00     0.210 HD
ENDBRANCH  69  80
BRANCH  71  82
ATOM     82  O4A ACR d         -20.358  -6.775 -13.709  0.00  0.00    -0.388 OA
ATOM     83  H10 ACR d         -19.640  -6.194 -13.483  0.00  0.00     0.210 HD
ENDBRANCH  71  82
BRANCH  73  84
ATOM     84  C6A ACR d         -22.586  -6.551 -12.034  0.00  0.00     0.039 C 
ATOM     85  H5  ACR d         -23.444  -6.756 -11.377  0.00  0.00     0.081 H 
ATOM     86  H6  ACR d         -22.858  -6.784 -13.074  0.00  0.00     0.081 H 
BRANCH  84  87
ATOM     87  O6A ACR d         -22.150  -5.184 -11.906  0.00  0.00    -0.397 OA
ATOM     88  H11 ACR d         -22.830  -4.675 -11.479  0.00  0.00     0.209 HD
ENDBRANCH  84  87
ENDBRANCH  73  84
ENDBRANCH  64  67
ENDBRANCH   4  64
TORSDOF 23
ENDMDL
MODEL 6
REMARK VINA RESULT:      -5.0      2.183      4.406
REMARK  23 active torsions:
REMARK  status: ('A' for Active; 'I' for Inactive)
REMARK    1  A    between atoms: N4B_18  and  C1A_1 
REMARK    2  A    between atoms: C2A_2  and  O2A_8 
REMARK    3  A    between atoms: C3A_3  and  O3A_9 
REMARK    4  A    between atoms: C4A_4  and  O4A_10 
REMARK    5  A    between atoms: C5A_5  and  C6A_6 
REMARK    6  A    between atoms: C6A_6  and  O6A_11 
REMARK    7  A    between atoms: O4C_30  and  C1B_12 
REMARK    8  A    between atoms: C2B_13  and  O2B_19 
REMARK    9  A    between atoms: C3B_14  and  O3B_20 
REMARK   10  A    between atoms: C4B_15  and  N4B_18 
REMARK   11  A    between atoms: C5B_16  and  C6B_17 
REMARK   12  A    between atoms: O4D_42  and  C1C_22 
REMARK   13  A    between atoms: C2C_23  and  O2C_28 
REMARK   14  A    between atoms: C3C_24  and  O3C_29 
REMARK   15  A    between atoms: C4C_25  and  O4C_30 
REMARK   16  A    between atoms: C5C_26  and  C6C_27 
REMARK   17  A    between atoms: C6C_27  and  O6C_32 
REMARK   18  A    between atoms: C1D_33  and  O1D_39 
REMARK   19  A    between atoms: C2D_34  and  O2D_40 
REMARK   20  A    between atoms: C3D_35  and  O3D_41 
REMARK   21  A    between atoms: C4D_36  and  O4D_42 
REMARK   22  A    between atoms: C5D_37  and  C6D_38 
REMARK   23  A    between atoms: C6D_38  and  O6D_44 
ROOT
ATOM      1  C1B ACR d         -19.455  -5.774  -4.484  0.00  0.00     0.159 C 
ATOM      2  C2B ACR d         -18.556  -5.220  -5.588  0.00  0.00     0.110 C 
ATOM      3  C3B ACR d         -19.302  -5.219  -6.933  0.00  0.00     0.094 C 
ATOM      4  C4B ACR d         -19.723  -6.643  -7.297  0.00  0.00     0.154 C 
ATOM      5  C5B ACR d         -20.608  -7.180  -6.152  0.00  0.00     0.068 C 
ATOM      6  O5B ACR d         -19.900  -7.072  -4.890  0.00  0.00    -0.351 OA
ATOM      7  H12 ACR d         -18.887  -5.856  -3.546  0.00  0.00     0.133 H 
ATOM      8  H13 ACR d         -17.652  -5.840  -5.672  0.00  0.00     0.094 H 
ATOM      9  H14 ACR d         -20.194  -4.582  -6.850  0.00  0.00     0.090 H 
ATOM     10  H15 ACR d         -18.814  -7.263  -7.310  0.00  0.00     0.092 H 
ATOM     11  H16 ACR d         -21.526  -6.576  -6.109  0.00  0.00     0.086 H 
ENDROOT
BRANCH   1  12
ATOM     12  O4C ACR d         -20.577  -4.890  -4.285  0.00  0.00    -0.348 OA
BRANCH  12  13
ATOM     13  C4C ACR d         -21.156  -4.881  -2.980  0.00  0.00     0.096 C 
ATOM     14  C3C ACR d         -21.628  -6.299  -2.656  0.00  0.00     0.092 C 
ATOM     15  C2C ACR d         -22.036  -6.485  -1.191  0.00  0.00     0.110 C 
ATOM     16  H26 ACR d         -20.787  -6.980  -2.850  0.00  0.00     0.091 H 
ATOM     17  C1C ACR d         -20.989  -5.935  -0.228  0.00  0.00     0.159 C 
ATOM     18  H25 ACR d         -23.004  -5.997  -1.005  0.00  0.00     0.094 H 
ATOM     19  O5C ACR d         -20.666  -4.587  -0.609  0.00  0.00    -0.348 OA
ATOM     20  H24 ACR d         -21.388  -5.944   0.797  0.00  0.00     0.133 H 
ATOM     21  C5C ACR d         -20.134  -4.412  -1.939  0.00  0.00     0.089 C 
ATOM     22  H28 ACR d         -19.231  -5.031  -2.045  0.00  0.00     0.090 H 
ATOM     23  H27 ACR d         -22.017  -4.197  -2.969  0.00  0.00     0.091 H 
BRANCH  14  24
ATOM     24  O3C ACR d         -22.703  -6.660  -3.534  0.00  0.00    -0.390 OA
ATOM     25  H32 ACR d         -23.115  -7.454  -3.216  0.00  0.00     0.210 HD
ENDBRANCH  14  24
BRANCH  15  26
ATOM     26  O2C ACR d         -22.125  -7.889  -0.976  0.00  0.00    -0.388 OA
ATOM     27  H31 ACR d         -23.033  -8.162  -1.047  0.00  0.00     0.210 HD
ENDBRANCH  15  26
BRANCH  17  28
ATOM     28  O4D ACR d         -19.811  -6.750  -0.288  0.00  0.00    -0.348 OA
BRANCH  28  29
ATOM     29  C4D ACR d         -19.078  -6.964   0.926  0.00  0.00     0.096 C 
ATOM     30  C3D ACR d         -19.118  -8.483   1.124  0.00  0.00     0.092 C 
ATOM     31  C2D ACR d         -18.270  -8.968   2.306  0.00  0.00     0.110 C 
ATOM     32  H36 ACR d         -18.696  -8.939   0.216  0.00  0.00     0.091 H 
ATOM     33  C1D ACR d         -16.853  -8.338   2.346  0.00  0.00     0.156 C 
ATOM     34  H35 ACR d         -18.783  -8.682   3.237  0.00  0.00     0.094 H 
ATOM     35  O5D ACR d         -16.839  -6.936   2.001  0.00  0.00    -0.349 OA
ATOM     36  H34 ACR d         -16.495  -8.424   3.382  0.00  0.00     0.133 H 
ATOM     37  C5D ACR d         -17.593  -6.541   0.831  0.00  0.00     0.089 C 
ATOM     38  H38 ACR d         -17.170  -7.070  -0.036  0.00  0.00     0.090 H 
ATOM     39  H37 ACR d         -19.560  -6.436   1.761  0.00  0.00     0.091 H 
BRANCH  30  40
ATOM     40  O3D ACR d         -20.480  -8.942   1.249  0.00  0.00    -0.390 OA
ATOM     41  H43 ACR d         -20.952  -8.752   0.447  0.00  0.00     0.210 HD
ENDBRANCH  30  40
BRANCH  31  42
ATOM     42  O2D ACR d         -18.215 -10.407   2.238  0.00  0.00    -0.388 OA
ATOM     43  H42 ACR d         -18.027 -10.757   3.102  0.00  0.00     0.210 HD
ENDBRANCH  31  42
BRANCH  33  44
ATOM     44  O1D ACR d         -15.929  -9.052   1.506  0.00  0.00    -0.369 OA
ATOM     45  H41 ACR d         -15.778  -8.556   0.709  0.00  0.00     0.212 HD
ENDBRANCH  33  44
BRANCH  37  46
ATOM     46  C6D ACR d         -17.375  -5.042   0.604  0.00  0.00     0.043 C 
ATOM     47  H39 ACR d         -16.642  -4.662   1.332  0.00  0.00     0.078 H 
ATOM     48  H40 ACR d         -18.329  -4.508   0.731  0.00  0.00     0.078 H 
BRANCH  46  49
ATOM     49  O6D ACR d         -16.881  -4.835  -0.731  0.00  0.00    -0.398 OA
ATOM     50  H44 ACR d         -15.931  -4.846  -0.721  0.00  0.00     0.209 HD
ENDBRANCH  46  49
ENDBRANCH  37  46
ENDBRANCH  28  29
ENDBRANCH  17  28
BRANCH  21  51
ATOM     51  C6C ACR d         -19.738  -2.950  -2.118  0.00  0.00     0.043 C 
ATOM     52  H29 ACR d         -19.742  -2.448  -1.140  0.00  0.00     0.078 H 
ATOM     53  H30 ACR d         -20.458  -2.455  -2.788  0.00  0.00     0.078 H 
BRANCH  51  54
ATOM     54  O6C ACR d         -18.423  -2.873  -2.689  0.00  0.00    -0.398 OA
ATOM     55  H33 ACR d         -18.096  -1.985  -2.610  0.00  0.00     0.209 HD
ENDBRANCH  51  54
ENDBRANCH  21  51
ENDBRANCH  12  13
ENDBRANCH   1  12
BRANCH   2  56
ATOM     56  O2B ACR d         -18.195  -3.882  -5.253  0.00  0.00    -0.388 OA
ATOM     57  H22 ACR d         -18.926  -3.456  -4.820  0.00  0.00     0.210 HD
ENDBRANCH   2  56
BRANCH   3  58
ATOM     58  O3B ACR d         -18.460  -4.725  -7.969  0.00  0.00    -0.391 OA
ATOM     59  H23 ACR d         -18.134  -3.866  -7.728  0.00  0.00     0.210 HD
ENDBRANCH   3  58
BRANCH   5  60
ATOM     60  C6B ACR d         -20.990  -8.643  -6.351  0.00  0.00    -0.050 C 
ATOM     61  H17 ACR d         -20.121  -9.282  -6.133  0.00  0.00     0.031 H 
ATOM     62  H18 ACR d         -21.308  -8.800  -7.392  0.00  0.00     0.031 H 
ATOM     63  H19 ACR d         -21.815  -8.902  -5.671  0.00  0.00     0.031 H 
ENDBRANCH   5  60
BRANCH   4  64
ATOM     64  N4B ACR d         -20.291  -6.733  -8.659  0.00  0.00    -0.056 N 
ATOM     65  H20 ACR d         -20.589  -7.687  -8.796  0.00  0.00     0.278 HD
ATOM     66  H21 ACR d         -21.092  -6.123  -8.689  0.00  0.00     0.278 HD
BRANCH  64  67
ATOM     67  C1A ACR d         -19.421  -6.374  -9.812  0.00  0.00     0.146 C 
ATOM     68  C2A ACR d         -20.137  -5.681 -10.990  0.00  0.00     0.093 C 
ATOM     69  C3A ACR d         -21.021  -6.690 -11.723  0.00  0.00     0.091 C 
ATOM     70  H2  ACR d         -19.381  -5.286 -11.685  0.00  0.00     0.090 H 
ATOM     71  C4A ACR d         -20.126  -7.707 -12.406  0.00  0.00     0.086 C 
ATOM     72  H3  ACR d         -21.608  -7.219 -10.957  0.00  0.00     0.091 H 
ATOM     73  C5A ACR d         -19.053  -8.216 -11.467  0.00  0.00    -0.027 C 
ATOM     74  H4  ACR d         -19.643  -7.232 -13.272  0.00  0.00     0.094 H 
ATOM     75  C7A ACR d         -18.642  -7.561 -10.370  0.00  0.00    -0.064 C 
ATOM     76  H7  ACR d         -17.732  -7.884  -9.867  0.00  0.00     0.080 H 
ATOM     77  H1  ACR d         -18.686  -5.656  -9.420  0.00  0.00     0.095 H 
BRANCH  68  78
ATOM     78  O2A ACR d         -20.948  -4.611 -10.526  0.00  0.00    -0.390 OA
ATOM     79  H8  ACR d         -21.811  -4.941 -10.307  0.00  0.00     0.210 HD
ENDBRANCH  68  78
BRANCH  69  80
ATOM     80  O3A ACR d         -21.993  -6.120 -12.669  0.00  0.00    -0.390 OA
ATOM     81  H9  ACR d         -22.790  -5.893 -12.204  0.00  0.00     0.210 HD
ENDBRANCH  69  80
BRANCH  71  82
ATOM     82  O4A ACR d         -20.926  -8.800 -12.855  0.00  0.00    -0.388 OA
ATOM     83  H10 ACR d         -20.708  -9.002 -13.758  0.00  0.00     0.210 HD
ENDBRANCH  71  82
BRANCH  73  84
ATOM     84  C6A ACR d         -18.415  -9.514 -11.854  0.00  0.00     0.039 C 
ATOM     85  H5  ACR d         -19.173 -10.260 -12.135  0.00  0.00     0.081 H 
ATOM     86  H6  ACR d         -17.796  -9.911 -11.037  0.00  0.00     0.081 H 
BRANCH  84  87
ATOM     87  O6A ACR d         -17.605  -9.147 -12.988  0.00  0.00    -0.397 OA
ATOM     88  H11 ACR d         -18.044  -9.410 -13.788  0.00  0.00     0.209 HD
ENDBRANCH  84  87
ENDBRANCH  73  84
ENDBRANCH  64  67
ENDBRANCH   4  64
TORSDOF 23
ENDMDL
MODEL 7
REMARK VINA RESULT:      -4.9      2.041      3.609
REMARK  23 active torsions:
REMARK  status: ('A' for Active; 'I' for Inactive)
REMARK    1  A    between atoms: N4B_18  and  C1A_1 
REMARK    2  A    between atoms: C2A_2  and  O2A_8 
REMARK    3  A    between atoms: C3A_3  and  O3A_9 
REMARK    4  A    between atoms: C4A_4  and  O4A_10 
REMARK    5  A    between atoms: C5A_5  and  C6A_6 
REMARK    6  A    between atoms: C6A_6  and  O6A_11 
REMARK    7  A    between atoms: O4C_30  and  C1B_12 
REMARK    8  A    between atoms: C2B_13  and  O2B_19 
REMARK    9  A    between atoms: C3B_14  and  O3B_20 
REMARK   10  A    between atoms: C4B_15  and  N4B_18 
REMARK   11  A    between atoms: C5B_16  and  C6B_17 
REMARK   12  A    between atoms: O4D_42  and  C1C_22 
REMARK   13  A    between atoms: C2C_23  and  O2C_28 
REMARK   14  A    between atoms: C3C_24  and  O3C_29 
REMARK   15  A    between atoms: C4C_25  and  O4C_30 
REMARK   16  A    between atoms: C5C_26  and  C6C_27 
REMARK   17  A    between atoms: C6C_27  and  O6C_32 
REMARK   18  A    between atoms: C1D_33  and  O1D_39 
REMARK   19  A    between atoms: C2D_34  and  O2D_40 
REMARK   20  A    between atoms: C3D_35  and  O3D_41 
REMARK   21  A    between atoms: C4D_36  and  O4D_42 
REMARK   22  A    between atoms: C5D_37  and  C6D_38 
REMARK   23  A    between atoms: C6D_38  and  O6D_44 
ROOT
ATOM      1  C1B ACR d         -19.757  -6.345  -5.033  0.00  0.00     0.159 C 
ATOM      2  C2B ACR d         -18.680  -5.542  -5.761  0.00  0.00     0.110 C 
ATOM      3  C3B ACR d         -18.904  -5.604  -7.281  0.00  0.00     0.094 C 
ATOM      4  C4B ACR d         -18.852  -7.056  -7.756  0.00  0.00     0.154 C 
ATOM      5  C5B ACR d         -19.933  -7.843  -6.986  0.00  0.00     0.068 C 
ATOM      6  O5B ACR d         -19.740  -7.676  -5.558  0.00  0.00    -0.351 OA
ATOM      7  H12 ACR d         -19.539  -6.371  -3.956  0.00  0.00     0.133 H 
ATOM      8  H13 ACR d         -17.689  -5.952  -5.520  0.00  0.00     0.094 H 
ATOM      9  H14 ACR d         -19.888  -5.174  -7.519  0.00  0.00     0.090 H 
ATOM     10  H15 ACR d         -17.881  -7.470  -7.448  0.00  0.00     0.092 H 
ATOM     11  H16 ACR d         -20.920  -7.448  -7.270  0.00  0.00     0.086 H 
ENDROOT
BRANCH   1  12
ATOM     12  O4C ACR d         -21.044  -5.731  -5.244  0.00  0.00    -0.348 OA
BRANCH  12  13
ATOM     13  C4C ACR d         -21.905  -5.651  -4.108  0.00  0.00     0.096 C 
ATOM     14  C3C ACR d         -22.323  -7.071  -3.724  0.00  0.00     0.092 C 
ATOM     15  C2C ACR d         -23.037  -7.151  -2.371  0.00  0.00     0.110 C 
ATOM     16  H26 ACR d         -21.407  -7.676  -3.645  0.00  0.00     0.091 H 
ATOM     17  C1C ACR d         -22.286  -6.399  -1.278  0.00  0.00     0.159 C 
ATOM     18  H25 ACR d         -24.059  -6.752  -2.461  0.00  0.00     0.094 H 
ATOM     19  O5C ACR d         -21.995  -5.069  -1.742  0.00  0.00    -0.348 OA
ATOM     20  H24 ACR d         -22.907  -6.345  -0.371  0.00  0.00     0.133 H 
ATOM     21  C5C ACR d         -21.188  -4.974  -2.934  0.00  0.00     0.089 C 
ATOM     22  H28 ACR d         -20.238  -5.501  -2.765  0.00  0.00     0.090 H 
ATOM     23  H27 ACR d         -22.798  -5.064  -4.368  0.00  0.00     0.091 H 
BRANCH  14  24
ATOM     24  O3C ACR d         -23.136  -7.631  -4.763  0.00  0.00    -0.390 OA
ATOM     25  H32 ACR d         -23.984  -7.866  -4.408  0.00  0.00     0.210 HD
ENDBRANCH  14  24
BRANCH  15  26
ATOM     26  O2C ACR d         -23.060  -8.527  -2.010  0.00  0.00    -0.388 OA
ATOM     27  H31 ACR d         -23.932  -8.877  -2.158  0.00  0.00     0.210 HD
ENDBRANCH  15  26
BRANCH  17  28
ATOM     28  O4D ACR d         -21.064  -7.086  -0.980  0.00  0.00    -0.348 OA
BRANCH  28  29
ATOM     29  C4D ACR d         -20.605  -7.084   0.379  0.00  0.00     0.096 C 
ATOM     30  C3D ACR d         -19.844  -5.762   0.515  0.00  0.00     0.092 C 
ATOM     31  C2D ACR d         -19.370  -5.472   1.944  0.00  0.00     0.110 C 
ATOM     32  H36 ACR d         -20.541  -4.957   0.238  0.00  0.00     0.091 H 
ATOM     33  C1D ACR d         -20.467  -5.712   3.015  0.00  0.00     0.156 C 
ATOM     34  H35 ACR d         -18.534  -6.150   2.173  0.00  0.00     0.094 H 
ATOM     35  O5D ACR d         -21.265  -6.888   2.766  0.00  0.00    -0.349 OA
ATOM     36  H34 ACR d         -19.948  -5.866   3.974  0.00  0.00     0.133 H 
ATOM     37  C5D ACR d         -21.752  -7.075   1.416  0.00  0.00     0.089 C 
ATOM     38  H38 ACR d         -22.394  -6.217   1.169  0.00  0.00     0.090 H 
ATOM     39  H37 ACR d         -19.948  -7.948   0.562  0.00  0.00     0.091 H 
BRANCH  30  40
ATOM     40  O3D ACR d         -18.737  -5.716  -0.409  0.00  0.00    -0.390 OA
ATOM     41  H43 ACR d         -19.070  -5.698  -1.299  0.00  0.00     0.210 HD
ENDBRANCH  30  40
BRANCH  31  42
ATOM     42  O2D ACR d         -18.881  -4.116   1.973  0.00  0.00    -0.388 OA
ATOM     43  H42 ACR d         -19.539  -3.536   1.610  0.00  0.00     0.210 HD
ENDBRANCH  31  42
BRANCH  33  44
ATOM     44  O1D ACR d         -21.325  -4.567   3.164  0.00  0.00    -0.369 OA
ATOM     45  H41 ACR d         -21.764  -4.609   4.006  0.00  0.00     0.212 HD
ENDBRANCH  33  44
BRANCH  37  46
ATOM     46  C6D ACR d         -22.635  -8.327   1.395  0.00  0.00     0.043 C 
ATOM     47  H39 ACR d         -23.532  -8.135   0.788  0.00  0.00     0.078 H 
ATOM     48  H40 ACR d         -22.934  -8.584   2.422  0.00  0.00     0.078 H 
BRANCH  46  49
ATOM     49  O6D ACR d         -21.891  -9.418   0.823  0.00  0.00    -0.398 OA
ATOM     50  H44 ACR d         -21.411  -9.867   1.509  0.00  0.00     0.209 HD
ENDBRANCH  46  49
ENDBRANCH  37  46
ENDBRANCH  28  29
ENDBRANCH  17  28
BRANCH  21  51
ATOM     51  C6C ACR d         -20.881  -3.504  -3.200  0.00  0.00     0.043 C 
ATOM     52  H29 ACR d         -19.802  -3.381  -3.372  0.00  0.00     0.078 H 
ATOM     53  H30 ACR d         -21.185  -2.903  -2.329  0.00  0.00     0.078 H 
BRANCH  51  54
ATOM     54  O6C ACR d         -21.603  -3.063  -4.360  0.00  0.00    -0.398 OA
ATOM     55  H33 ACR d         -22.418  -3.544  -4.426  0.00  0.00     0.209 HD
ENDBRANCH  51  54
ENDBRANCH  21  51
ENDBRANCH  12  13
ENDBRANCH   1  12
BRANCH   2  56
ATOM     56  O2B ACR d         -18.758  -4.183  -5.333  0.00  0.00    -0.388 OA
ATOM     57  H22 ACR d         -17.914  -3.910  -4.993  0.00  0.00     0.210 HD
ENDBRANCH   2  56
BRANCH   3  58
ATOM     58  O3B ACR d         -17.890  -4.875  -7.964  0.00  0.00    -0.391 OA
ATOM     59  H23 ACR d         -17.247  -4.566  -7.338  0.00  0.00     0.210 HD
ENDBRANCH   3  58
BRANCH   5  60
ATOM     60  C6B ACR d         -19.893  -9.336  -7.293  0.00  0.00    -0.050 C 
ATOM     61  H17 ACR d         -20.305  -9.897  -6.441  0.00  0.00     0.031 H 
ATOM     62  H18 ACR d         -18.853  -9.647  -7.469  0.00  0.00     0.031 H 
ATOM     63  H19 ACR d         -20.495  -9.542  -8.191  0.00  0.00     0.031 H 
ENDBRANCH   5  60
BRANCH   4  64
ATOM     64  N4B ACR d         -18.887  -7.169  -9.231  0.00  0.00    -0.056 N 
ATOM     65  H20 ACR d         -19.182  -6.274  -9.591  0.00  0.00     0.278 HD
ATOM     66  H21 ACR d         -17.947  -7.362  -9.538  0.00  0.00     0.278 HD
BRANCH  64  67
ATOM     67  C1A ACR d         -19.769  -8.201  -9.839  0.00  0.00     0.146 C 
ATOM     68  C2A ACR d         -19.146  -9.003 -11.000  0.00  0.00     0.093 C 
ATOM     69  C3A ACR d         -19.016  -8.110 -12.234  0.00  0.00     0.091 C 
ATOM     70  H2  ACR d         -19.798  -9.857 -11.236  0.00  0.00     0.090 H 
ATOM     71  C4A ACR d         -20.408  -7.784 -12.741  0.00  0.00     0.086 C 
ATOM     72  H3  ACR d         -18.550  -7.170 -11.902  0.00  0.00     0.091 H 
ATOM     73  C5A ACR d         -21.318  -7.350 -11.612  0.00  0.00    -0.027 C 
ATOM     74  H4  ACR d         -20.833  -8.681 -13.214  0.00  0.00     0.094 H 
ATOM     75  C7A ACR d         -21.106  -7.643 -10.320  0.00  0.00    -0.064 C 
ATOM     76  H7  ACR d         -21.904  -7.478  -9.598  0.00  0.00     0.080 H 
ATOM     77  H1  ACR d         -19.986  -8.921  -9.036  0.00  0.00     0.095 H 
BRANCH  68  78
ATOM     78  O2A ACR d         -17.858  -9.485 -10.643  0.00  0.00    -0.390 OA
ATOM     79  H8  ACR d         -17.258  -9.349 -11.367  0.00  0.00     0.210 HD
ENDBRANCH  68  78
BRANCH  69  80
ATOM     80  O3A ACR d         -18.167  -8.634 -13.316  0.00  0.00    -0.390 OA
ATOM     81  H9  ACR d         -18.712  -8.883 -14.053  0.00  0.00     0.210 HD
ENDBRANCH  69  80
BRANCH  71  82
ATOM     82  O4A ACR d         -20.315  -6.740 -13.710  0.00  0.00    -0.388 OA
ATOM     83  H10 ACR d         -19.441  -6.369 -13.692  0.00  0.00     0.210 HD
ENDBRANCH  71  82
BRANCH  73  84
ATOM     84  C6A ACR d         -22.539  -6.584 -12.021  0.00  0.00     0.039 C 
ATOM     85  H5  ACR d         -23.380  -6.788 -11.343  0.00  0.00     0.081 H 
ATOM     86  H6  ACR d         -22.832  -6.827 -13.052  0.00  0.00     0.081 H 
BRANCH  84  87
ATOM     87  O6A ACR d         -22.107  -5.214 -11.914  0.00  0.00    -0.397 OA
ATOM     88  H11 ACR d         -22.495  -4.705 -12.616  0.00  0.00     0.209 HD
ENDBRANCH  84  87
ENDBRANCH  73  84
ENDBRANCH  64  67
ENDBRANCH   4  64
TORSDOF 23
ENDMDL
MODEL 8
REMARK VINA RESULT:      -4.7      2.474      4.451
REMARK  23 active torsions:
REMARK  status: ('A' for Active; 'I' for Inactive)
REMARK    1  A    between atoms: N4B_18  and  C1A_1 
REMARK    2  A    between atoms: C2A_2  and  O2A_8 
REMARK    3  A    between atoms: C3A_3  and  O3A_9 
REMARK    4  A    between atoms: C4A_4  and  O4A_10 
REMARK    5  A    between atoms: C5A_5  and  C6A_6 
REMARK    6  A    between atoms: C6A_6  and  O6A_11 
REMARK    7  A    between atoms: O4C_30  and  C1B_12 
REMARK    8  A    between atoms: C2B_13  and  O2B_19 
REMARK    9  A    between atoms: C3B_14  and  O3B_20 
REMARK   10  A    between atoms: C4B_15  and  N4B_18 
REMARK   11  A    between atoms: C5B_16  and  C6B_17 
REMARK   12  A    between atoms: O4D_42  and  C1C_22 
REMARK   13  A    between atoms: C2C_23  and  O2C_28 
REMARK   14  A    between atoms: C3C_24  and  O3C_29 
REMARK   15  A    between atoms: C4C_25  and  O4C_30 
REMARK   16  A    between atoms: C5C_26  and  C6C_27 
REMARK   17  A    between atoms: C6C_27  and  O6C_32 
REMARK   18  A    between atoms: C1D_33  and  O1D_39 
REMARK   19  A    between atoms: C2D_34  and  O2D_40 
REMARK   20  A    between atoms: C3D_35  and  O3D_41 
REMARK   21  A    between atoms: C4D_36  and  O4D_42 
REMARK   22  A    between atoms: C5D_37  and  C6D_38 
REMARK   23  A    between atoms: C6D_38  and  O6D_44 
ROOT
ATOM      1  C1B ACR d         -18.318  -5.624  -4.316  0.00  0.00     0.159 C 
ATOM      2  C2B ACR d         -17.235  -5.830  -5.374  0.00  0.00     0.110 C 
ATOM      3  C3B ACR d         -17.788  -5.514  -6.773  0.00  0.00     0.094 C 
ATOM      4  C4B ACR d         -18.972  -6.429  -7.085  0.00  0.00     0.154 C 
ATOM      5  C5B ACR d         -20.036  -6.213  -5.987  0.00  0.00     0.068 C 
ATOM      6  O5B ACR d         -19.444  -6.428  -4.680  0.00  0.00    -0.351 OA
ATOM      7  H12 ACR d         -17.943  -5.938  -3.332  0.00  0.00     0.133 H 
ATOM      8  H13 ACR d         -16.887  -6.873  -5.345  0.00  0.00     0.094 H 
ATOM      9  H14 ACR d         -18.115  -4.464  -6.802  0.00  0.00     0.090 H 
ATOM     10  H15 ACR d         -18.622  -7.467  -6.986  0.00  0.00     0.092 H 
ATOM     11  H16 ACR d         -20.403  -5.179  -6.056  0.00  0.00     0.086 H 
ENDROOT
BRANCH   1  12
ATOM     12  O4C ACR d         -18.683  -4.230  -4.264  0.00  0.00    -0.348 OA
BRANCH  12  13
ATOM     13  C4C ACR d         -18.954  -3.691  -2.970  0.00  0.00     0.096 C 
ATOM     14  C3C ACR d         -20.353  -4.140  -2.547  0.00  0.00     0.092 C 
ATOM     15  C2C ACR d         -20.669  -3.847  -1.077  0.00  0.00     0.110 C 
ATOM     16  H26 ACR d         -20.406  -5.230  -2.681  0.00  0.00     0.091 H 
ATOM     17  C1C ACR d         -19.552  -4.308  -0.146  0.00  0.00     0.159 C 
ATOM     18  H25 ACR d         -20.847  -2.770  -0.938  0.00  0.00     0.094 H 
ATOM     19  O5C ACR d         -18.301  -3.784  -0.622  0.00  0.00    -0.348 OA
ATOM     20  H24 ACR d         -19.743  -3.939   0.873  0.00  0.00     0.133 H 
ATOM     21  C5C ACR d         -17.913  -4.177  -1.955  0.00  0.00     0.089 C 
ATOM     22  H28 ACR d         -17.874  -5.275  -2.006  0.00  0.00     0.090 H 
ATOM     23  H27 ACR d         -18.920  -2.593  -3.018  0.00  0.00     0.091 H 
BRANCH  14  24
ATOM     24  O3C ACR d         -21.330  -3.539  -3.407  0.00  0.00    -0.390 OA
ATOM     25  H32 ACR d         -21.021  -2.687  -3.689  0.00  0.00     0.210 HD
ENDBRANCH  14  24
BRANCH  15  26
ATOM     26  O2C ACR d         -21.833  -4.599  -0.759  0.00  0.00    -0.388 OA
ATOM     27  H31 ACR d         -22.259  -4.876  -1.563  0.00  0.00     0.210 HD
ENDBRANCH  15  26
BRANCH  17  28
ATOM     28  O4D ACR d         -19.504  -5.741  -0.133  0.00  0.00    -0.348 OA
BRANCH  28  29
ATOM     29  C4D ACR d         -19.166  -6.392   1.100  0.00  0.00     0.096 C 
ATOM     30  C3D ACR d         -20.411  -7.219   1.439  0.00  0.00     0.092 C 
ATOM     31  C2D ACR d         -20.230  -8.121   2.666  0.00  0.00     0.110 C 
ATOM     32  H36 ACR d         -20.604  -7.878   0.580  0.00  0.00     0.091 H 
ATOM     33  C1D ACR d         -18.897  -8.915   2.653  0.00  0.00     0.156 C 
ATOM     34  H35 ACR d         -20.225  -7.484   3.563  0.00  0.00     0.094 H 
ATOM     35  O5D ACR d         -17.773  -8.142   2.180  0.00  0.00    -0.349 OA
ATOM     36  H34 ACR d         -18.684  -9.197   3.696  0.00  0.00     0.133 H 
ATOM     37  C5D ACR d         -17.972  -7.368   0.974  0.00  0.00     0.089 C 
ATOM     38  H38 ACR d         -18.222  -8.067   0.163  0.00  0.00     0.090 H 
ATOM     39  H37 ACR d         -18.953  -5.646   1.880  0.00  0.00     0.091 H 
BRANCH  30  40
ATOM     40  O3D ACR d         -21.560  -6.363   1.599  0.00  0.00    -0.390 OA
ATOM     41  H43 ACR d         -22.123  -6.446   0.838  0.00  0.00     0.210 HD
ENDBRANCH  30  40
BRANCH  31  42
ATOM     42  O2D ACR d         -21.374  -8.997   2.732  0.00  0.00    -0.388 OA
ATOM     43  H42 ACR d         -21.376  -9.570   1.975  0.00  0.00     0.210 HD
ENDBRANCH  31  42
BRANCH  33  44
ATOM     44  O1D ACR d         -19.006 -10.128   1.889  0.00  0.00    -0.369 OA
ATOM     45  H41 ACR d         -19.884 -10.199   1.532  0.00  0.00     0.212 HD
ENDBRANCH  33  44
BRANCH  37  46
ATOM     46  C6D ACR d         -16.644  -6.699   0.610  0.00  0.00     0.043 C 
ATOM     47  H39 ACR d         -16.550  -6.638  -0.485  0.00  0.00     0.078 H 
ATOM     48  H40 ACR d         -15.810  -7.289   1.018  0.00  0.00     0.078 H 
BRANCH  46  49
ATOM     49  O6D ACR d         -16.614  -5.373   1.169  0.00  0.00    -0.398 OA
ATOM     50  H44 ACR d         -15.914  -5.316   1.808  0.00  0.00     0.209 HD
ENDBRANCH  46  49
ENDBRANCH  37  46
ENDBRANCH  28  29
ENDBRANCH  17  28
BRANCH  21  51
ATOM     51  C6C ACR d         -16.516  -3.634  -2.237  0.00  0.00     0.043 C 
ATOM     52  H29 ACR d         -15.843  -4.466  -2.487  0.00  0.00     0.078 H 
ATOM     53  H30 ACR d         -16.138  -3.113  -1.344  0.00  0.00     0.078 H 
BRANCH  51  54
ATOM     54  O6C ACR d         -16.569  -2.715  -3.339  0.00  0.00    -0.398 OA
ATOM     55  H33 ACR d         -17.476  -2.516  -3.540  0.00  0.00     0.209 HD
ENDBRANCH  51  54
ENDBRANCH  21  51
ENDBRANCH  12  13
ENDBRANCH   1  12
BRANCH   2  56
ATOM     56  O2B ACR d         -16.148  -4.950  -5.090  0.00  0.00    -0.388 OA
ATOM     57  H22 ACR d         -16.488  -4.093  -4.859  0.00  0.00     0.210 HD
ENDBRANCH   2  56
BRANCH   3  58
ATOM     58  O3B ACR d         -16.788  -5.726  -7.764  0.00  0.00    -0.391 OA
ATOM     59  H23 ACR d         -16.443  -4.888  -8.049  0.00  0.00     0.210 HD
ENDBRANCH   3  58
BRANCH   5  60
ATOM     60  C6B ACR d         -21.217  -7.167  -6.129  0.00  0.00    -0.050 C 
ATOM     61  H17 ACR d         -21.381  -7.391  -7.194  0.00  0.00     0.031 H 
ATOM     62  H18 ACR d         -22.119  -6.697  -5.710  0.00  0.00     0.031 H 
ATOM     63  H19 ACR d         -21.003  -8.100  -5.588  0.00  0.00     0.031 H 
ENDBRANCH   5  60
BRANCH   4  64
ATOM     64  N4B ACR d         -19.438  -6.293  -8.482  0.00  0.00    -0.056 N 
ATOM     65  H20 ACR d         -19.901  -5.400  -8.556  0.00  0.00     0.278 HD
ATOM     66  H21 ACR d         -18.620  -6.297  -9.071  0.00  0.00     0.278 HD
BRANCH  64  67
ATOM     67  C1A ACR d         -20.372  -7.319  -9.018  0.00  0.00     0.146 C 
ATOM     68  C2A ACR d         -19.719  -8.650  -9.443  0.00  0.00     0.093 C 
ATOM     69  C3A ACR d         -18.907  -8.443 -10.722  0.00  0.00     0.091 C 
ATOM     70  H2  ACR d         -20.509  -9.393  -9.630  0.00  0.00     0.090 H 
ATOM     71  C4A ACR d         -19.867  -8.145 -11.858  0.00  0.00     0.086 C 
ATOM     72  H3  ACR d         -18.284  -7.550 -10.565  0.00  0.00     0.091 H 
ATOM     73  C5A ACR d         -20.888  -7.101 -11.458  0.00  0.00    -0.027 C 
ATOM     74  H4  ACR d         -20.395  -9.071 -12.130  0.00  0.00     0.094 H 
ATOM     75  C7A ACR d         -21.213  -6.815 -10.188  0.00  0.00    -0.064 C 
ATOM     76  H7  ACR d         -22.095  -6.210  -9.986  0.00  0.00     0.080 H 
ATOM     77  H1  ACR d         -21.064  -7.552  -8.195  0.00  0.00     0.095 H 
BRANCH  68  78
ATOM     78  O2A ACR d         -18.856  -9.135  -8.424  0.00  0.00    -0.390 OA
ATOM     79  H8  ACR d         -18.407  -8.403  -8.016  0.00  0.00     0.210 HD
ENDBRANCH  68  78
BRANCH  69  80
ATOM     80  O3A ACR d         -17.986  -9.533 -11.079  0.00  0.00    -0.390 OA
ATOM     81  H9  ACR d         -18.255 -10.331 -10.636  0.00  0.00     0.210 HD
ENDBRANCH  69  80
BRANCH  71  82
ATOM     82  O4A ACR d         -19.123  -7.679 -12.983  0.00  0.00    -0.388 OA
ATOM     83  H10 ACR d         -19.542  -7.974 -13.783  0.00  0.00     0.210 HD
ENDBRANCH  71  82
BRANCH  73  84
ATOM     84  C6A ACR d         -21.580  -6.403 -12.588  0.00  0.00     0.039 C 
ATOM     85  H5  ACR d         -21.344  -6.879 -13.551  0.00  0.00     0.081 H 
ATOM     86  H6  ACR d         -21.301  -5.340 -12.627  0.00  0.00     0.081 H 
BRANCH  84  87
ATOM     87  O6A ACR d         -22.973  -6.563 -12.259  0.00  0.00    -0.397 OA
ATOM     88  H11 ACR d         -23.229  -5.893 -11.636  0.00  0.00     0.209 HD
ENDBRANCH  84  87
ENDBRANCH  73  84
ENDBRANCH  64  67
ENDBRANCH   4  64
TORSDOF 23
ENDMDL
MODEL 9
REMARK VINA RESULT:      -4.5      1.834      3.345
REMARK  23 active torsions:
REMARK  status: ('A' for Active; 'I' for Inactive)
REMARK    1  A    between atoms: N4B_18  and  C1A_1 
REMARK    2  A    between atoms: C2A_2  and  O2A_8 
REMARK    3  A    between atoms: C3A_3  and  O3A_9 
REMARK    4  A    between atoms: C4A_4  and  O4A_10 
REMARK    5  A    between atoms: C5A_5  and  C6A_6 
REMARK    6  A    between atoms: C6A_6  and  O6A_11 
REMARK    7  A    between atoms: O4C_30  and  C1B_12 
REMARK    8  A    between atoms: C2B_13  and  O2B_19 
REMARK    9  A    between atoms: C3B_14  and  O3B_20 
REMARK   10  A    between atoms: C4B_15  and  N4B_18 
REMARK   11  A    between atoms: C5B_16  and  C6B_17 
REMARK   12  A    between atoms: O4D_42  and  C1C_22 
REMARK   13  A    between atoms: C2C_23  and  O2C_28 
REMARK   14  A    between atoms: C3C_24  and  O3C_29 
REMARK   15  A    between atoms: C4C_25  and  O4C_30 
REMARK   16  A    between atoms: C5C_26  and  C6C_27 
REMARK   17  A    between atoms: C6C_27  and  O6C_32 
REMARK   18  A    between atoms: C1D_33  and  O1D_39 
REMARK   19  A    between atoms: C2D_34  and  O2D_40 
REMARK   20  A    between atoms: C3D_35  and  O3D_41 
REMARK   21  A    between atoms: C4D_36  and  O4D_42 
REMARK   22  A    between atoms: C5D_37  and  C6D_38 
REMARK   23  A    between atoms: C6D_38  and  O6D_44 
ROOT
ATOM      1  C1B ACR d         -18.770  -7.274  -3.663  0.00  0.00     0.159 C 
ATOM      2  C2B ACR d         -18.337  -8.548  -4.387  0.00  0.00     0.110 C 
ATOM      3  C3B ACR d         -18.512  -8.385  -5.905  0.00  0.00     0.094 C 
ATOM      4  C4B ACR d         -19.978  -8.097  -6.233  0.00  0.00     0.154 C 
ATOM      5  C5B ACR d         -20.389  -6.820  -5.469  0.00  0.00     0.068 C 
ATOM      6  O5B ACR d         -20.116  -6.984  -4.054  0.00  0.00    -0.351 OA
ATOM      7  H12 ACR d         -18.727  -7.430  -2.575  0.00  0.00     0.133 H 
ATOM      8  H13 ACR d         -18.945  -9.395  -4.037  0.00  0.00     0.094 H 
ATOM      9  H14 ACR d         -17.886  -7.550  -6.253  0.00  0.00     0.090 H 
ATOM     10  H15 ACR d         -20.577  -8.920  -5.817  0.00  0.00     0.092 H 
ATOM     11  H16 ACR d         -19.801  -5.976  -5.859  0.00  0.00     0.086 H 
ENDROOT
BRANCH   1  12
ATOM     12  O4C ACR d         -17.890  -6.190  -4.023  0.00  0.00    -0.348 OA
BRANCH  12  13
ATOM     13  C4C ACR d         -17.918  -5.040  -3.178  0.00  0.00     0.096 C 
ATOM     14  C3C ACR d         -19.291  -4.381  -3.311  0.00  0.00     0.092 C 
ATOM     15  C2C ACR d         -19.546  -3.288  -2.269  0.00  0.00     0.110 C 
ATOM     16  H26 ACR d         -20.050  -5.163  -3.156  0.00  0.00     0.091 H 
ATOM     17  C1C ACR d         -19.204  -3.748  -0.856  0.00  0.00     0.159 C 
ATOM     18  H25 ACR d         -18.963  -2.388  -2.518  0.00  0.00     0.094 H 
ATOM     19  O5C ACR d         -17.876  -4.302  -0.854  0.00  0.00    -0.348 OA
ATOM     20  H24 ACR d         -19.248  -2.892  -0.167  0.00  0.00     0.133 H 
ATOM     21  C5C ACR d         -17.659  -5.436  -1.720  0.00  0.00     0.089 C 
ATOM     22  H28 ACR d         -18.370  -6.231  -1.451  0.00  0.00     0.090 H 
ATOM     23  H27 ACR d         -17.139  -4.333  -3.500  0.00  0.00     0.091 H 
BRANCH  14  24
ATOM     24  O3C ACR d         -19.450  -3.866  -4.640  0.00  0.00    -0.390 OA
ATOM     25  H32 ACR d         -19.697  -2.950  -4.595  0.00  0.00     0.210 HD
ENDBRANCH  14  24
BRANCH  15  26
ATOM     26  O2C ACR d         -20.942  -3.015  -2.308  0.00  0.00    -0.388 OA
ATOM     27  H31 ACR d         -21.154  -2.363  -1.649  0.00  0.00     0.210 HD
ENDBRANCH  15  26
BRANCH  17  28
ATOM     28  O4D ACR d         -20.145  -4.746  -0.439  0.00  0.00    -0.348 OA
BRANCH  28  29
ATOM     29  C4D ACR d         -21.252  -4.329   0.372  0.00  0.00     0.096 C 
ATOM     30  C3D ACR d         -22.345  -5.360   0.072  0.00  0.00     0.092 C 
ATOM     31  C2D ACR d         -23.597  -5.195   0.941  0.00  0.00     0.110 C 
ATOM     32  H36 ACR d         -21.924  -6.351   0.298  0.00  0.00     0.091 H 
ATOM     33  C1D ACR d         -23.279  -4.994   2.447  0.00  0.00     0.156 C 
ATOM     34  H35 ACR d         -24.138  -4.300   0.599  0.00  0.00     0.094 H 
ATOM     35  O5D ACR d         -22.143  -4.136   2.683  0.00  0.00    -0.349 OA
ATOM     36  H34 ACR d         -24.156  -4.507   2.896  0.00  0.00     0.133 H 
ATOM     37  C5D ACR d         -20.958  -4.383   1.890  0.00  0.00     0.089 C 
ATOM     38  H38 ACR d         -20.615  -5.405   2.108  0.00  0.00     0.090 H 
ATOM     39  H37 ACR d         -21.569  -3.313   0.093  0.00  0.00     0.091 H 
BRANCH  30  40
ATOM     40  O3D ACR d         -22.688  -5.341  -1.328  0.00  0.00    -0.390 OA
ATOM     41  H43 ACR d         -22.004  -5.773  -1.826  0.00  0.00     0.210 HD
ENDBRANCH  30  40
BRANCH  31  42
ATOM     42  O2D ACR d         -24.434  -6.348   0.720  0.00  0.00    -0.388 OA
ATOM     43  H42 ACR d         -25.099  -6.136   0.075  0.00  0.00     0.210 HD
ENDBRANCH  31  42
BRANCH  33  44
ATOM     44  O1D ACR d         -23.085  -6.250   3.122  0.00  0.00    -0.369 OA
ATOM     45  H41 ACR d         -23.283  -6.963   2.526  0.00  0.00     0.212 HD
ENDBRANCH  33  44
BRANCH  37  46
ATOM     46  C6D ACR d         -19.860  -3.423   2.357  0.00  0.00     0.043 C 
ATOM     47  H39 ACR d         -20.029  -3.154   3.410  0.00  0.00     0.078 H 
ATOM     48  H40 ACR d         -19.880  -2.512   1.739  0.00  0.00     0.078 H 
BRANCH  46  49
ATOM     49  O6D ACR d         -18.581  -4.068   2.223  0.00  0.00    -0.398 OA
ATOM     50  H44 ACR d         -18.559  -4.560   1.410  0.00  0.00     0.209 HD
ENDBRANCH  46  49
ENDBRANCH  37  46
ENDBRANCH  28  29
ENDBRANCH  17  28
BRANCH  21  51
ATOM     51  C6C ACR d         -16.245  -5.959  -1.493  0.00  0.00     0.043 C 
ATOM     52  H29 ACR d         -15.945  -5.763  -0.453  0.00  0.00     0.078 H 
ATOM     53  H30 ACR d         -15.551  -5.448  -2.178  0.00  0.00     0.078 H 
BRANCH  51  54
ATOM     54  O6C ACR d         -16.208  -7.372  -1.742  0.00  0.00    -0.398 OA
ATOM     55  H33 ACR d         -16.436  -7.539  -2.648  0.00  0.00     0.209 HD
ENDBRANCH  51  54
ENDBRANCH  21  51
ENDBRANCH  12  13
ENDBRANCH   1  12
BRANCH   2  56
ATOM     56  O2B ACR d         -16.961  -8.790  -4.098  0.00  0.00    -0.388 OA
ATOM     57  H22 ACR d         -16.710  -8.301  -3.323  0.00  0.00     0.210 HD
ENDBRANCH   2  56
BRANCH   3  58
ATOM     58  O3B ACR d         -18.131  -9.578  -6.582  0.00  0.00    -0.391 OA
ATOM     59  H23 ACR d         -17.184  -9.648  -6.588  0.00  0.00     0.210 HD
ENDBRANCH   3  58
BRANCH   5  60
ATOM     60  C6B ACR d         -21.872  -6.502  -5.627  0.00  0.00    -0.050 C 
ATOM     61  H17 ACR d         -22.440  -6.994  -4.823  0.00  0.00     0.031 H 
ATOM     62  H18 ACR d         -22.223  -6.869  -6.602  0.00  0.00     0.031 H 
ATOM     63  H19 ACR d         -22.022  -5.414  -5.567  0.00  0.00     0.031 H 
ENDBRANCH   5  60
BRANCH   4  64
ATOM     64  N4B ACR d         -20.241  -8.101  -7.688  0.00  0.00    -0.056 N 
ATOM     65  H20 ACR d         -20.527  -9.036  -7.937  0.00  0.00     0.278 HD
ATOM     66  H21 ACR d         -21.002  -7.462  -7.855  0.00  0.00     0.278 HD
BRANCH  64  67
ATOM     67  C1A ACR d         -19.136  -7.719  -8.608  0.00  0.00     0.146 C 
ATOM     68  C2A ACR d         -19.247  -6.311  -9.227  0.00  0.00     0.093 C 
ATOM     69  C3A ACR d         -20.373  -6.288 -10.261  0.00  0.00     0.091 C 
ATOM     70  H2  ACR d         -18.295  -6.060  -9.719  0.00  0.00     0.090 H 
ATOM     71  C4A ACR d         -19.964  -7.157 -11.436  0.00  0.00     0.086 C 
ATOM     72  H3  ACR d         -21.251  -6.753  -9.789  0.00  0.00     0.091 H 
ATOM     73  C5A ACR d         -19.418  -8.491 -10.973  0.00  0.00    -0.027 C 
ATOM     74  H4  ACR d         -19.185  -6.635 -12.010  0.00  0.00     0.094 H 
ATOM     75  C7A ACR d         -18.927  -8.716  -9.744  0.00  0.00    -0.064 C 
ATOM     76  H7  ACR d         -18.366  -9.629  -9.554  0.00  0.00     0.080 H 
ATOM     77  H1  ACR d         -18.222  -7.726  -7.995  0.00  0.00     0.095 H 
BRANCH  68  78
ATOM     78  O2A ACR d         -19.523  -5.341  -8.226  0.00  0.00    -0.390 OA
ATOM     79  H8  ACR d         -19.372  -5.722  -7.368  0.00  0.00     0.210 HD
ENDBRANCH  68  78
BRANCH  69  80
ATOM     80  O3A ACR d         -20.801  -4.954 -10.712  0.00  0.00    -0.390 OA
ATOM     81  H9  ACR d         -20.303  -4.707 -11.482  0.00  0.00     0.210 HD
ENDBRANCH  69  80
BRANCH  71  82
ATOM     82  O4A ACR d         -21.101  -7.369 -12.272  0.00  0.00    -0.388 OA
ATOM     83  H10 ACR d         -21.663  -6.604 -12.243  0.00  0.00     0.210 HD
ENDBRANCH  71  82
BRANCH  73  84
ATOM     84  C6A ACR d         -19.411  -9.581 -11.999  0.00  0.00     0.039 C 
ATOM     85  H5  ACR d         -20.197  -9.422 -12.751  0.00  0.00     0.081 H 
ATOM     86  H6  ACR d         -19.545 -10.566 -11.531  0.00  0.00     0.081 H 
BRANCH  84  87
ATOM     87  O6A ACR d         -18.101  -9.459 -12.586  0.00  0.00    -0.397 OA
ATOM     88  H11 ACR d         -18.180  -9.440 -13.533  0.00  0.00     0.209 HD
ENDBRANCH  84  87
ENDBRANCH  73  84
ENDBRANCH  64  67
ENDBRANCH   4  64
TORSDOF 23
ENDMDL
