MODEL 1
REMARK VINA RESULT:      -9.9      0.000      0.000
REMARK  5 active torsions:
REMARK  status: ('A' for Active; 'I' for Inactive)
REMARK    1  A    between atoms: O1_1  and  C1_2 
REMARK    2  A    between atoms: C1_2  and  C2_3 
REMARK    3  A    between atoms: C6_8  and  S1_13 
REMARK    4  A    between atoms: S1_13  and  N2_16 
REMARK    5  A    between atoms: N2_16  and  C11_17 
ROOT
ATOM      1  C2  F83 d          28.871  45.022  20.396  0.00  0.00     0.126 C 
ATOM      2  N1  F83 d          29.321  43.632  20.232  0.00  0.00    -0.065 N 
ATOM      3  C3  F83 d          28.585  42.983  19.137  0.00  0.00     0.106 C 
ATOM      4  C4  F83 d          28.645  43.820  17.853  0.00  0.00    -0.025 A 
ATOM      5  C5  F83 d          28.295  43.231  16.644  0.00  0.00    -0.052 A 
ATOM      6  C6  F83 d          28.293  43.985  15.474  0.00  0.00     0.080 A 
ATOM      7  C7  F83 d          28.644  45.330  15.514  0.00  0.00    -0.060 A 
ATOM      8  C8  F83 d          28.999  45.921  16.722  0.00  0.00    -0.075 A 
ATOM      9  C9  F83 d          29.001  45.168  17.894  0.00  0.00    -0.048 A 
ATOM     10  C10 F83 d          29.396  45.836  19.211  0.00  0.00    -0.012 C 
ATOM     11  H4  F83 d          27.772  45.056  20.412  0.00  0.00     0.088 H 
ATOM     12  H5  F83 d          29.157  43.126  21.088  0.00  0.00     0.278 HD
ATOM     13  H6  F83 d          30.306  43.624  20.020  0.00  0.00     0.278 HD
ATOM     14  H7  F83 d          27.533  42.860  19.436  0.00  0.00     0.083 H 
ATOM     15  H8  F83 d          29.029  41.995  18.942  0.00  0.00     0.083 H 
ATOM     16  H9  F83 d          28.023  42.183  16.612  0.00  0.00     0.086 H 
ATOM     17  H10 F83 d          28.643  45.918  14.602  0.00  0.00     0.085 H 
ATOM     18  H11 F83 d          29.274  46.969  16.752  0.00  0.00     0.084 H 
ATOM     19  H12 F83 d          30.493  45.900  19.271  0.00  0.00     0.043 H 
ATOM     20  H13 F83 d          28.967  46.849  19.247  0.00  0.00     0.043 H 
ENDROOT
BRANCH   6  21
ATOM     21  S1  F83 d          27.837  43.244  13.956  0.00  0.00     0.263 S 
ATOM     22  O2  F83 d          27.889  41.816  14.077  0.00  0.00    -0.200 OA
ATOM     23  O3  F83 d          28.788  43.680  12.881  0.00  0.00    -0.200 OA
BRANCH  21  24
ATOM     24  N2  F83 d          26.334  43.724  13.552  0.00  0.00    -0.281 N 
ATOM     25  H14 F83 d          25.560  43.317  14.037  0.00  0.00     0.179 HD
BRANCH  24  26
ATOM     26  C11 F83 d          26.057  44.726  12.512  0.00  0.00     0.042 A 
ATOM     27  C12 F83 d          26.522  44.559  11.210  0.00  0.00    -0.055 A 
ATOM     28  C13 F83 d          26.181  45.483  10.225  0.00  0.00    -0.060 A 
ATOM     29  H15 F83 d          27.151  43.711  10.964  0.00  0.00     0.087 H 
ATOM     30  C14 F83 d          25.373  46.576  10.536  0.00  0.00     0.034 A 
ATOM     31  H16 F83 d          26.545  45.351   9.212  0.00  0.00     0.086 H 
ATOM     32  C15 F83 d          24.916  46.745  11.838  0.00  0.00    -0.060 A 
ATOM     33 CL1  F83 d          24.916  47.710   9.313  0.00  0.00    -0.084 Cl
ATOM     34  C16 F83 d          25.259  45.822  12.826  0.00  0.00    -0.055 A 
ATOM     35  H17 F83 d          24.291  47.596  12.086  0.00  0.00     0.086 H 
ATOM     36  H18 F83 d          24.903  45.959  13.840  0.00  0.00     0.087 H 
ENDBRANCH  24  26
ENDBRANCH  21  24
ENDBRANCH   6  21
BRANCH   1  37
ATOM     37  C1  F83 d          29.414  45.600  21.704  0.00  0.00     0.044 C 
ATOM     38  H2  F83 d          30.393  45.152  21.928  0.00  0.00     0.077 H 
ATOM     39  H3  F83 d          29.522  46.690  21.609  0.00  0.00     0.077 H 
BRANCH  37  40
ATOM     40  O1  F83 d          28.494  45.297  22.757  0.00  0.00    -0.399 OA
ATOM     41  H1  F83 d          27.912  44.601  22.478  0.00  0.00     0.209 HD
ENDBRANCH  37  40
ENDBRANCH   1  37
TORSDOF 5
ENDMDL
MODEL 2
REMARK VINA RESULT:      -7.8      3.661      8.242
REMARK  5 active torsions:
REMARK  status: ('A' for Active; 'I' for Inactive)
REMARK    1  A    between atoms: O1_1  and  C1_2 
REMARK    2  A    between atoms: C1_2  and  C2_3 
REMARK    3  A    between atoms: C6_8  and  S1_13 
REMARK    4  A    between atoms: S1_13  and  N2_16 
REMARK    5  A    between atoms: N2_16  and  C11_17 
ROOT
ATOM      1  C2  F83 d          25.218  45.739  10.681  0.00  0.00     0.126 C 
ATOM      2  N1  F83 d          25.266  46.772  11.726  0.00  0.00    -0.065 N 
ATOM      3  C3  F83 d          25.280  46.151  13.058  0.00  0.00     0.106 C 
ATOM      4  C4  F83 d          26.384  45.092  13.168  0.00  0.00    -0.025 A 
ATOM      5  C5  F83 d          26.762  44.635  14.425  0.00  0.00    -0.052 A 
ATOM      6  C6  F83 d          27.726  43.638  14.547  0.00  0.00     0.080 A 
ATOM      7  C7  F83 d          28.315  43.099  13.407  0.00  0.00    -0.060 A 
ATOM      8  C8  F83 d          27.941  43.557  12.147  0.00  0.00    -0.075 A 
ATOM      9  C9  F83 d          26.976  44.555  12.025  0.00  0.00    -0.048 A 
ATOM     10  C10 F83 d          26.582  45.046  10.632  0.00  0.00    -0.012 C 
ATOM     11  H4  F83 d          24.437  45.004  10.924  0.00  0.00     0.088 H 
ATOM     12  H5  F83 d          24.456  47.366  11.645  0.00  0.00     0.278 HD
ATOM     13  H6  F83 d          26.101  47.324  11.609  0.00  0.00     0.278 HD
ATOM     14  H7  F83 d          24.306  45.673  13.241  0.00  0.00     0.083 H 
ATOM     15  H8  F83 d          25.454  46.930  13.816  0.00  0.00     0.083 H 
ATOM     16  H9  F83 d          26.306  45.056  15.313  0.00  0.00     0.086 H 
ATOM     17  H10 F83 d          29.065  42.322  13.501  0.00  0.00     0.085 H 
ATOM     18  H11 F83 d          28.401  43.137  11.261  0.00  0.00     0.084 H 
ATOM     19  H12 F83 d          27.338  45.758  10.270  0.00  0.00     0.043 H 
ATOM     20  H13 F83 d          26.529  44.187   9.946  0.00  0.00     0.043 H 
ENDROOT
BRANCH   6  21
ATOM     21  S1  F83 d          28.187  43.055  16.130  0.00  0.00     0.263 S 
ATOM     22  O2  F83 d          28.891  41.812  16.004  0.00  0.00    -0.200 OA
ATOM     23  O3  F83 d          26.957  42.840  16.961  0.00  0.00    -0.200 OA
BRANCH  21  24
ATOM     24  N2  F83 d          29.125  44.168  16.861  0.00  0.00    -0.281 N 
ATOM     25  H14 F83 d          29.806  44.649  16.310  0.00  0.00     0.179 HD
BRANCH  24  26
ATOM     26  C11 F83 d          29.022  44.500  18.289  0.00  0.00     0.042 A 
ATOM     27  C12 F83 d          29.593  45.663  18.800  0.00  0.00    -0.055 A 
ATOM     28  C13 F83 d          29.416  45.995  20.142  0.00  0.00    -0.060 A 
ATOM     29  H15 F83 d          30.177  46.310  18.155  0.00  0.00     0.087 H 
ATOM     30  C14 F83 d          28.667  45.168  20.977  0.00  0.00     0.034 A 
ATOM     31  H16 F83 d          29.862  46.901  20.537  0.00  0.00     0.086 H 
ATOM     32  C15 F83 d          28.104  44.003  20.467  0.00  0.00    -0.060 A 
ATOM     33 CL1  F83 d          28.412  45.587  22.636  0.00  0.00    -0.084 Cl
ATOM     34  C16 F83 d          28.284  43.668  19.125  0.00  0.00    -0.055 A 
ATOM     35  H17 F83 d          27.525  43.353  21.114  0.00  0.00     0.086 H 
ATOM     36  H18 F83 d          27.847  42.758  18.731  0.00  0.00     0.087 H 
ENDBRANCH  24  26
ENDBRANCH  21  24
ENDBRANCH   6  21
BRANCH   1  37
ATOM     37  C1  F83 d          24.910  46.375   9.325  0.00  0.00     0.044 C 
ATOM     38  H2  F83 d          25.670  46.068   8.591  0.00  0.00     0.077 H 
ATOM     39  H3  F83 d          23.917  46.050   8.982  0.00  0.00     0.077 H 
BRANCH  37  40
ATOM     40  O1  F83 d          24.927  47.798   9.470  0.00  0.00    -0.399 OA
ATOM     41  H1  F83 d          24.143  48.079   9.927  0.00  0.00     0.209 HD
ENDBRANCH  37  40
ENDBRANCH   1  37
TORSDOF 5
ENDMDL
