MODEL 1
REMARK VINA RESULT:      -9.9      0.000      0.000
REMARK  11 active torsions:
REMARK  status: ('A' for Active; 'I' for Inactive)
REMARK    1  A    between atoms: N10_10  and  C1_1 
REMARK    2  A    between atoms: C2_2  and  O3_3 
REMARK    3  A    between atoms: C4_4  and  O5_5 
REMARK    4  A    between atoms: C6_6  and  C14_14 
REMARK    5  A    between atoms: C35_35  and  C7_7 
REMARK    6  A    between atoms: C15_15  and  C16_16 
REMARK    7  A    between atoms: C16_16  and  N17_17 
REMARK       I    between atoms: N17_17  and  C18_18 
REMARK    8  A    between atoms: C18_18  and  C20_20 
REMARK    9  A    between atoms: C22_22  and  C24_24 
REMARK   10  A    between atoms: C31_31  and  O32_32 
REMARK   11  A    between atoms: C33_33  and  O34_34 
ROOT
ATOM      1  C14 MOL d          -2.498  18.813  14.019  0.00  0.00    -0.075 C 
ATOM      2  C15 MOL d          -1.420  18.104  14.240  0.00  0.00    -0.087 C 
ATOM      3  H11 MOL d          -3.363  18.373  13.524  0.00  0.00     0.080 H 
ATOM      4  H12 MOL d          -0.584  18.556  14.773  0.00  0.00     0.079 H 
ENDROOT
BRANCH   2   5
ATOM      5  C16 MOL d          -1.316  16.701  13.781  0.00  0.00     0.010 C 
ATOM      6  H13 MOL d          -0.563  16.145  14.359  0.00  0.00     0.070 H 
ATOM      7  H14 MOL d          -1.070  16.646  12.710  0.00  0.00     0.070 H 
BRANCH   5   8
ATOM      8  N17 MOL d          -2.666  16.205  14.045  0.00  0.00    -0.353 N 
ATOM      9  C18 MOL d          -2.721  14.861  14.283  0.00  0.00     0.254 C 
ATOM     10  O19 MOL d          -1.707  14.163  14.183  0.00  0.00    -0.268 OA
ATOM     11  H15 MOL d          -3.473  16.795  14.051  0.00  0.00     0.163 HD
BRANCH   9  12
ATOM     12  C20 MOL d          -4.048  14.270  14.467  0.00  0.00     0.068 A 
ATOM     13  C21 MOL d          -4.551  13.478  13.416  0.00  0.00    -0.054 A 
ATOM     14  C22 MOL d          -5.791  12.849  13.529  0.00  0.00    -0.022 A 
ATOM     15  H16 MOL d          -3.969  13.356  12.510  0.00  0.00     0.086 H 
ATOM     16  C23 MOL d          -6.591  12.991  14.680  0.00  0.00    -0.037 A 
ATOM     17  C33 MOL d          -6.066  13.785  15.706  0.00  0.00     0.100 A 
ATOM     18  H17 MOL d          -7.560  12.512  14.766  0.00  0.00     0.089 H 
ATOM     19  C31 MOL d          -4.802  14.371  15.633  0.00  0.00     0.114 A 
BRANCH  14  20
ATOM     20  C24 MOL d          -6.263  12.034  12.368  0.00  0.00    -0.026 A 
ATOM     21  C25 MOL d          -7.418  12.427  11.722  0.00  0.00    -0.069 A 
ATOM     22  C26 MOL d          -7.845  11.636  10.659  0.00  0.00    -0.045 A 
ATOM     23  H18 MOL d          -7.966  13.310  12.028  0.00  0.00     0.085 H 
ATOM     24  C29 MOL d          -7.057  10.533  10.332  0.00  0.00     0.116 A 
ATOM     25  H19 MOL d          -8.750  11.867  10.111  0.00  0.00     0.088 H 
ATOM     26  C28 MOL d          -5.928  10.108  10.984  0.00  0.00    -0.045 A 
ATOM     27  F30 MOL d          -7.421   9.669   9.297  0.00  0.00    -0.206 F 
ATOM     28  C27 MOL d          -5.504  10.934  12.033  0.00  0.00    -0.069 A 
ATOM     29  H21 MOL d          -5.402   9.201  10.708  0.00  0.00     0.088 H 
ATOM     30  H20 MOL d          -4.592  10.712  12.574  0.00  0.00     0.085 H 
ENDBRANCH  14  20
BRANCH  17  31
ATOM     31  O34 MOL d          -6.844  13.940  16.859  0.00  0.00    -0.358 OA
ATOM     32  H23 MOL d          -7.055  13.084  17.213  0.00  0.00     0.217 HD
ENDBRANCH  17  31
BRANCH  19  33
ATOM     33  O32 MOL d          -4.420  15.136  16.689  0.00  0.00    -0.357 OA
ATOM     34  H22 MOL d          -3.885  14.616  17.278  0.00  0.00     0.217 HD
ENDBRANCH  19  33
ENDBRANCH   9  12
ENDBRANCH   5   8
ENDBRANCH   2   5
BRANCH   1  35
ATOM     35  C6  MOL d          -2.515  20.248  14.464  0.00  0.00     0.084 C 
ATOM     36  C4  MOL d          -3.311  20.307  15.758  0.00  0.00     0.092 C 
ATOM     37  C2  MOL d          -4.714  20.438  15.160  0.00  0.00     0.105 C 
ATOM     38  H4  MOL d          -3.202  19.416  16.395  0.00  0.00     0.091 H 
ATOM     39  C1  MOL d          -4.471  21.396  13.985  0.00  0.00     0.140 C 
ATOM     40  H2  MOL d          -5.092  19.461  14.824  0.00  0.00     0.093 H 
ATOM     41  O13 MOL d          -3.178  21.083  13.456  0.00  0.00    -0.352 OA
ATOM     42  H1  MOL d          -4.493  22.436  14.345  0.00  0.00     0.123 H 
ATOM     43  H6  MOL d          -1.489  20.607  14.629  0.00  0.00     0.093 H 
BRANCH  36  44
ATOM     44  O5  MOL d          -2.883  21.491  16.445  0.00  0.00    -0.390 OA
ATOM     45  H5  MOL d          -2.101  21.298  16.948  0.00  0.00     0.210 HD
ENDBRANCH  36  44
BRANCH  37  46
ATOM     46  O3  MOL d          -5.660  21.040  16.057  0.00  0.00    -0.388 OA
ATOM     47  H3  MOL d          -5.213  21.312  16.850  0.00  0.00     0.210 HD
ENDBRANCH  37  46
BRANCH  39  48
ATOM     48  N10 MOL d          -5.477  21.230  12.919  0.00  0.00    -0.294 N 
ATOM     49  C9  MOL d          -6.110  20.019  12.541  0.00  0.00     0.070 A 
ATOM     50  N8  MOL d          -6.868  20.184  11.505  0.00  0.00    -0.238 NA
ATOM     51  H10 MOL d          -5.976  19.069  13.058  0.00  0.00     0.144 H 
ATOM     52  C12 MOL d          -6.739  21.480  11.138  0.00  0.00     0.128 A 
ATOM     53  C11 MOL d          -5.908  22.170  12.002  0.00  0.00     0.165 A 
ATOM     54  C35 MOL d          -7.354  22.217  10.110  0.00  0.00     0.064 A 
ATOM     55  N40 MOL d          -5.566  23.467  11.897  0.00  0.00    -0.222 NA
ATOM     56  C39 MOL d          -6.169  24.112  10.898  0.00  0.00     0.089 A 
ATOM     57  N38 MOL d          -7.037  23.516  10.016  0.00  0.00    -0.244 NA
ATOM     58  H24 MOL d          -5.962  25.168  10.774  0.00  0.00     0.146 H 
BRANCH  54  59
ATOM     59  C7  MOL d          -8.366  21.631   9.146  0.00  0.00    -0.033 C 
ATOM     60  H7  MOL d          -9.382  21.807   9.530  0.00  0.00     0.035 H 
ATOM     61  H8  MOL d          -8.194  20.549   9.047  0.00  0.00     0.035 H 
ATOM     62  H9  MOL d          -8.257  22.112   8.163  0.00  0.00     0.035 H 
ENDBRANCH  54  59
ENDBRANCH  39  48
ENDBRANCH   1  35
TORSDOF 11
ENDMDL
MODEL 2
REMARK VINA RESULT:      -8.6      4.564      6.760
REMARK  11 active torsions:
REMARK  status: ('A' for Active; 'I' for Inactive)
REMARK    1  A    between atoms: N10_10  and  C1_1 
REMARK    2  A    between atoms: C2_2  and  O3_3 
REMARK    3  A    between atoms: C4_4  and  O5_5 
REMARK    4  A    between atoms: C6_6  and  C14_14 
REMARK    5  A    between atoms: C35_35  and  C7_7 
REMARK    6  A    between atoms: C15_15  and  C16_16 
REMARK    7  A    between atoms: C16_16  and  N17_17 
REMARK       I    between atoms: N17_17  and  C18_18 
REMARK    8  A    between atoms: C18_18  and  C20_20 
REMARK    9  A    between atoms: C22_22  and  C24_24 
REMARK   10  A    between atoms: C31_31  and  O32_32 
REMARK   11  A    between atoms: C33_33  and  O34_34 
ROOT
ATOM      1  C14 MOL d          -3.892  18.523  13.419  0.00  0.00    -0.075 C 
ATOM      2  C15 MOL d          -3.230  17.637  14.118  0.00  0.00    -0.087 C 
ATOM      3  H11 MOL d          -4.627  18.212  12.678  0.00  0.00     0.080 H 
ATOM      4  H12 MOL d          -2.529  17.974  14.881  0.00  0.00     0.079 H 
ENDROOT
BRANCH   2   5
ATOM      5  C16 MOL d          -3.415  16.186  13.892  0.00  0.00     0.010 C 
ATOM      6  H13 MOL d          -3.744  15.979  12.863  0.00  0.00     0.070 H 
ATOM      7  H14 MOL d          -4.140  15.759  14.602  0.00  0.00     0.070 H 
BRANCH   5   8
ATOM      8  N17 MOL d          -2.067  15.677  14.136  0.00  0.00    -0.353 N 
ATOM      9  C18 MOL d          -2.001  14.315  14.223  0.00  0.00     0.254 C 
ATOM     10  O19 MOL d          -3.029  13.632  14.182  0.00  0.00    -0.268 OA
ATOM     11  H15 MOL d          -1.267  16.270  14.229  0.00  0.00     0.163 HD
BRANCH   9  12
ATOM     12  C20 MOL d          -0.700  13.730  14.556  0.00  0.00     0.068 A 
ATOM     13  C21 MOL d          -0.699  12.599  15.395  0.00  0.00    -0.054 A 
ATOM     14  C22 MOL d           0.496  11.961  15.728  0.00  0.00    -0.022 A 
ATOM     15  H16 MOL d          -1.636  12.221  15.788  0.00  0.00     0.086 H 
ATOM     16  C23 MOL d           1.740  12.425  15.257  0.00  0.00    -0.037 A 
ATOM     17  C33 MOL d           1.707  13.551  14.426  0.00  0.00     0.100 A 
ATOM     18  H17 MOL d           2.671  11.937  15.522  0.00  0.00     0.089 H 
ATOM     19  C31 MOL d           0.516  14.164  14.035  0.00  0.00     0.114 A 
BRANCH  14  20
ATOM     20  C24 MOL d           0.419  10.774  16.633  0.00  0.00    -0.026 A 
ATOM     21  C25 MOL d           0.991   9.592  16.209  0.00  0.00    -0.069 A 
ATOM     22  C26 MOL d           0.884   8.498  17.064  0.00  0.00    -0.045 A 
ATOM     23  H18 MOL d           1.501   9.518  15.255  0.00  0.00     0.085 H 
ATOM     24  C29 MOL d           0.229   8.702  18.277  0.00  0.00     0.116 A 
ATOM     25  H19 MOL d           1.293   7.531  16.797  0.00  0.00     0.088 H 
ATOM     26  C28 MOL d          -0.376   9.858  18.699  0.00  0.00    -0.045 A 
ATOM     27  F30 MOL d           0.052   7.656  19.186  0.00  0.00    -0.206 F 
ATOM     28  C27 MOL d          -0.233  10.951  17.834  0.00  0.00    -0.069 A 
ATOM     29  H21 MOL d          -0.923   9.921  19.633  0.00  0.00     0.088 H 
ATOM     30  H20 MOL d          -0.630  11.922  18.105  0.00  0.00     0.085 H 
ENDBRANCH  14  20
BRANCH  17  31
ATOM     31  O34 MOL d           2.931  14.029  13.946  0.00  0.00    -0.358 OA
ATOM     32  H23 MOL d           3.408  13.317  13.536  0.00  0.00     0.217 HD
ENDBRANCH  17  31
BRANCH  19  33
ATOM     33  O32 MOL d           0.625  15.263  13.243  0.00  0.00    -0.357 OA
ATOM     34  H22 MOL d           0.110  15.971  13.614  0.00  0.00     0.217 HD
ENDBRANCH  19  33
ENDBRANCH   9  12
ENDBRANCH   5   8
ENDBRANCH   2   5
BRANCH   1  35
ATOM     35  C6  MOL d          -3.614  19.980  13.662  0.00  0.00     0.084 C 
ATOM     36  C4  MOL d          -2.523  20.057  14.719  0.00  0.00     0.092 C 
ATOM     37  C2  MOL d          -3.405  19.979  15.967  0.00  0.00     0.105 C 
ATOM     38  H4  MOL d          -1.787  19.242  14.667  0.00  0.00     0.091 H 
ATOM     39  C1  MOL d          -4.601  20.856  15.568  0.00  0.00     0.140 C 
ATOM     40  H2  MOL d          -3.705  18.942  16.173  0.00  0.00     0.093 H 
ATOM     41  O13 MOL d          -4.819  20.647  14.169  0.00  0.00    -0.352 OA
ATOM     42  H1  MOL d          -4.366  21.913  15.763  0.00  0.00     0.123 H 
ATOM     43  H6  MOL d          -3.283  20.464  12.732  0.00  0.00     0.093 H 
BRANCH  36  44
ATOM     44  O5  MOL d          -1.893  21.337  14.558  0.00  0.00    -0.390 OA
ATOM     45  H5  MOL d          -1.457  21.369  13.715  0.00  0.00     0.210 HD
ENDBRANCH  36  44
BRANCH  37  46
ATOM     46  O3  MOL d          -2.788  20.545  17.134  0.00  0.00    -0.388 OA
ATOM     47  H3  MOL d          -1.861  20.669  16.972  0.00  0.00     0.210 HD
ENDBRANCH  37  46
BRANCH  39  48
ATOM     48  N10 MOL d          -5.826  20.489  16.303  0.00  0.00    -0.294 N 
ATOM     49  C9  MOL d          -6.940  21.329  16.557  0.00  0.00     0.070 A 
ATOM     50  N8  MOL d          -7.810  20.745  17.315  0.00  0.00    -0.238 NA
ATOM     51  H10 MOL d          -7.048  22.339  16.162  0.00  0.00     0.144 H 
ATOM     52  C12 MOL d          -7.300  19.530  17.620  0.00  0.00     0.128 A 
ATOM     53  C11 MOL d          -6.085  19.320  16.993  0.00  0.00     0.165 A 
ATOM     54  C35 MOL d          -7.827  18.467  18.376  0.00  0.00     0.064 A 
ATOM     55  N40 MOL d          -5.319  18.220  17.111  0.00  0.00    -0.222 NA
ATOM     56  C39 MOL d          -5.863  17.252  17.848  0.00  0.00     0.089 A 
ATOM     57  N38 MOL d          -7.080  17.359  18.475  0.00  0.00    -0.244 NA
ATOM     58  H24 MOL d          -5.312  16.325  17.960  0.00  0.00     0.146 H 
BRANCH  54  59
ATOM     59  C7  MOL d          -9.190  18.502  19.039  0.00  0.00    -0.033 C 
ATOM     60  H7  MOL d          -9.065  18.580  20.129  0.00  0.00     0.035 H 
ATOM     61  H8  MOL d          -9.739  17.580  18.797  0.00  0.00     0.035 H 
ATOM     62  H9  MOL d          -9.753  19.373  18.671  0.00  0.00     0.035 H 
ENDBRANCH  54  59
ENDBRANCH  39  48
ENDBRANCH   1  35
TORSDOF 11
ENDMDL
MODEL 3
REMARK VINA RESULT:      -8.5      3.934      6.212
REMARK  11 active torsions:
REMARK  status: ('A' for Active; 'I' for Inactive)
REMARK    1  A    between atoms: N10_10  and  C1_1 
REMARK    2  A    between atoms: C2_2  and  O3_3 
REMARK    3  A    between atoms: C4_4  and  O5_5 
REMARK    4  A    between atoms: C6_6  and  C14_14 
REMARK    5  A    between atoms: C35_35  and  C7_7 
REMARK    6  A    between atoms: C15_15  and  C16_16 
REMARK    7  A    between atoms: C16_16  and  N17_17 
REMARK       I    between atoms: N17_17  and  C18_18 
REMARK    8  A    between atoms: C18_18  and  C20_20 
REMARK    9  A    between atoms: C22_22  and  C24_24 
REMARK   10  A    between atoms: C31_31  and  O32_32 
REMARK   11  A    between atoms: C33_33  and  O34_34 
ROOT
ATOM      1  C14 MOL d          -5.668  19.343  16.979  0.00  0.00    -0.075 C 
ATOM      2  C15 MOL d          -4.881  18.452  17.525  0.00  0.00    -0.087 C 
ATOM      3  H11 MOL d          -6.750  19.272  17.084  0.00  0.00     0.080 H 
ATOM      4  H12 MOL d          -3.802  18.568  17.438  0.00  0.00     0.079 H 
ENDROOT
BRANCH   2   5
ATOM      5  C16 MOL d          -5.430  17.289  18.258  0.00  0.00     0.010 C 
ATOM      6  H13 MOL d          -6.481  17.452  18.539  0.00  0.00     0.070 H 
ATOM      7  H14 MOL d          -4.840  17.068  19.160  0.00  0.00     0.070 H 
BRANCH   5   8
ATOM      8  N17 MOL d          -5.302  16.227  17.262  0.00  0.00    -0.353 N 
ATOM      9  C18 MOL d          -4.707  15.094  17.741  0.00  0.00     0.254 C 
ATOM     10  O19 MOL d          -4.258  15.057  18.891  0.00  0.00    -0.268 OA
ATOM     11  H15 MOL d          -5.619  16.321  16.319  0.00  0.00     0.163 HD
BRANCH   9  12
ATOM     12  C20 MOL d          -4.459  14.015  16.783  0.00  0.00     0.068 A 
ATOM     13  C21 MOL d          -3.201  13.383  16.837  0.00  0.00    -0.054 A 
ATOM     14  C22 MOL d          -2.900  12.321  15.984  0.00  0.00    -0.022 A 
ATOM     15  H16 MOL d          -2.459  13.725  17.549  0.00  0.00     0.086 H 
ATOM     16  C23 MOL d          -3.826  11.852  15.031  0.00  0.00    -0.037 A 
ATOM     17  C33 MOL d          -5.066  12.500  14.999  0.00  0.00     0.100 A 
ATOM     18  H17 MOL d          -3.592  11.033  14.359  0.00  0.00     0.089 H 
ATOM     19  C31 MOL d          -5.404  13.523  15.886  0.00  0.00     0.114 A 
BRANCH  14  20
ATOM     20  C24 MOL d          -1.542  11.708  16.092  0.00  0.00    -0.026 A 
ATOM     21  C25 MOL d          -0.464  12.418  15.601  0.00  0.00    -0.069 A 
ATOM     22  C26 MOL d           0.785  11.811  15.695  0.00  0.00    -0.045 A 
ATOM     23  H18 MOL d          -0.586  13.401  15.162  0.00  0.00     0.085 H 
ATOM     24  C29 MOL d           0.837  10.554  16.295  0.00  0.00     0.116 A 
ATOM     25  H19 MOL d           1.678  12.295  15.319  0.00  0.00     0.088 H 
ATOM     26  C28 MOL d          -0.225   9.820  16.757  0.00  0.00    -0.045 A 
ATOM     27  F30 MOL d           2.043   9.860  16.412  0.00  0.00    -0.206 F 
ATOM     28  C27 MOL d          -1.468  10.461  16.674  0.00  0.00    -0.069 A 
ATOM     29  H21 MOL d          -0.112   8.819  17.156  0.00  0.00     0.088 H 
ATOM     30  H20 MOL d          -2.360   9.984  17.062  0.00  0.00     0.085 H 
ENDBRANCH  14  20
BRANCH  17  31
ATOM     31  O34 MOL d          -6.001  12.051  14.061  0.00  0.00    -0.358 OA
ATOM     32  H23 MOL d          -6.875  12.123  14.427  0.00  0.00     0.217 HD
ENDBRANCH  17  31
BRANCH  19  33
ATOM     33  O32 MOL d          -6.633  14.083  15.735  0.00  0.00    -0.357 OA
ATOM     34  H22 MOL d          -6.922  13.973  14.837  0.00  0.00     0.217 HD
ENDBRANCH  19  33
ENDBRANCH   9  12
ENDBRANCH   5   8
ENDBRANCH   2   5
BRANCH   1  35
ATOM     35  C6  MOL d          -5.044  20.468  16.202  0.00  0.00     0.084 C 
ATOM     36  C4  MOL d          -5.869  20.651  14.937  0.00  0.00     0.092 C 
ATOM     37  C2  MOL d          -5.175  19.610  14.056  0.00  0.00     0.105 C 
ATOM     38  H4  MOL d          -6.943  20.451  15.067  0.00  0.00     0.091 H 
ATOM     39  C1  MOL d          -3.699  19.806  14.434  0.00  0.00     0.140 C 
ATOM     40  H2  MOL d          -5.530  18.596  14.291  0.00  0.00     0.093 H 
ATOM     41  O13 MOL d          -3.667  20.124  15.828  0.00  0.00    -0.352 OA
ATOM     42  H1  MOL d          -3.274  20.633  13.845  0.00  0.00     0.123 H 
ATOM     43  H6  MOL d          -5.049  21.391  16.800  0.00  0.00     0.093 H 
BRANCH  36  44
ATOM     44  O5  MOL d          -5.642  21.998  14.497  0.00  0.00    -0.390 OA
ATOM     45  H5  MOL d          -4.769  22.271  14.754  0.00  0.00     0.210 HD
ENDBRANCH  36  44
BRANCH  37  46
ATOM     46  O3  MOL d          -5.329  19.862  12.651  0.00  0.00    -0.388 OA
ATOM     47  H3  MOL d          -5.192  20.787  12.480  0.00  0.00     0.210 HD
ENDBRANCH  37  46
BRANCH  39  48
ATOM     48  N10 MOL d          -2.903  18.586  14.203  0.00  0.00    -0.294 N 
ATOM     49  C9  MOL d          -3.408  17.278  13.997  0.00  0.00     0.070 A 
ATOM     50  N8  MOL d          -2.454  16.407  13.925  0.00  0.00    -0.238 NA
ATOM     51  H10 MOL d          -4.467  17.036  13.911  0.00  0.00     0.144 H 
ATOM     52  C12 MOL d          -1.300  17.087  14.114  0.00  0.00     0.128 A 
ATOM     53  C11 MOL d          -1.530  18.443  14.264  0.00  0.00     0.165 A 
ATOM     54  C35 MOL d           0.040  16.658  14.103  0.00  0.00     0.064 A 
ATOM     55  N40 MOL d          -0.591  19.381  14.485  0.00  0.00    -0.222 NA
ATOM     56  C39 MOL d           0.659  18.915  14.476  0.00  0.00     0.089 A 
ATOM     57  N38 MOL d           0.981  17.593  14.297  0.00  0.00    -0.244 NA
ATOM     58  H24 MOL d           1.467  19.623  14.618  0.00  0.00     0.146 H 
BRANCH  54  59
ATOM     59  C7  MOL d           0.462  15.225  13.849  0.00  0.00    -0.033 C 
ATOM     60  H7  MOL d           0.451  15.026  12.767  0.00  0.00     0.035 H 
ATOM     61  H8  MOL d          -0.238  14.542  14.354  0.00  0.00     0.035 H 
ATOM     62  H9  MOL d           1.477  15.067  14.241  0.00  0.00     0.035 H 
ENDBRANCH  54  59
ENDBRANCH  39  48
ENDBRANCH   1  35
TORSDOF 11
ENDMDL
MODEL 4
REMARK VINA RESULT:      -8.2      4.118     10.031
REMARK  11 active torsions:
REMARK  status: ('A' for Active; 'I' for Inactive)
REMARK    1  A    between atoms: N10_10  and  C1_1 
REMARK    2  A    between atoms: C2_2  and  O3_3 
REMARK    3  A    between atoms: C4_4  and  O5_5 
REMARK    4  A    between atoms: C6_6  and  C14_14 
REMARK    5  A    between atoms: C35_35  and  C7_7 
REMARK    6  A    between atoms: C15_15  and  C16_16 
REMARK    7  A    between atoms: C16_16  and  N17_17 
REMARK       I    between atoms: N17_17  and  C18_18 
REMARK    8  A    between atoms: C18_18  and  C20_20 
REMARK    9  A    between atoms: C22_22  and  C24_24 
REMARK   10  A    between atoms: C31_31  and  O32_32 
REMARK   11  A    between atoms: C33_33  and  O34_34 
ROOT
ATOM      1  C14 MOL d          -4.352  13.894  13.605  0.00  0.00    -0.075 C 
ATOM      2  C15 MOL d          -3.160  14.415  13.467  0.00  0.00    -0.087 C 
ATOM      3  H11 MOL d          -4.956  14.107  14.486  0.00  0.00     0.080 H 
ATOM      4  H12 MOL d          -2.592  14.218  12.559  0.00  0.00     0.079 H 
ENDROOT
BRANCH   2   5
ATOM      5  C16 MOL d          -2.568  15.267  14.523  0.00  0.00     0.010 C 
ATOM      6  H13 MOL d          -1.639  15.745  14.178  0.00  0.00     0.070 H 
ATOM      7  H14 MOL d          -2.366  14.691  15.438  0.00  0.00     0.070 H 
BRANCH   5   8
ATOM      8  N17 MOL d          -3.629  16.251  14.734  0.00  0.00    -0.353 N 
ATOM      9  C18 MOL d          -3.232  17.541  14.525  0.00  0.00     0.254 C 
ATOM     10  O19 MOL d          -2.053  17.803  14.269  0.00  0.00    -0.268 OA
ATOM     11  H15 MOL d          -4.558  16.002  15.008  0.00  0.00     0.163 HD
BRANCH   9  12
ATOM     12  C20 MOL d          -4.211  18.594  14.804  0.00  0.00     0.068 A 
ATOM     13  C21 MOL d          -4.572  19.437  13.735  0.00  0.00    -0.054 A 
ATOM     14  C22 MOL d          -5.526  20.439  13.909  0.00  0.00    -0.022 A 
ATOM     15  H16 MOL d          -4.103  19.305  12.766  0.00  0.00     0.086 H 
ATOM     16  C23 MOL d          -6.150  20.659  15.153  0.00  0.00    -0.037 A 
ATOM     17  C33 MOL d          -5.770  19.808  16.197  0.00  0.00     0.100 A 
ATOM     18  H17 MOL d          -6.885  21.444  15.294  0.00  0.00     0.089 H 
ATOM     19  C31 MOL d          -4.863  18.762  16.023  0.00  0.00     0.114 A 
BRANCH  14  20
ATOM     20  C24 MOL d          -5.849  21.301  12.732  0.00  0.00    -0.026 A 
ATOM     21  C25 MOL d          -6.725  20.810  11.784  0.00  0.00    -0.069 A 
ATOM     22  C26 MOL d          -6.989  21.626  10.688  0.00  0.00    -0.045 A 
ATOM     23  H18 MOL d          -7.185  19.834  11.889  0.00  0.00     0.085 H 
ATOM     24  C29 MOL d          -6.363  22.872  10.658  0.00  0.00     0.116 A 
ATOM     25  H19 MOL d          -7.652  21.308   9.893  0.00  0.00     0.088 H 
ATOM     26  C28 MOL d          -5.465  23.361  11.571  0.00  0.00    -0.045 A 
ATOM     27  F30 MOL d          -6.550  23.747   9.586  0.00  0.00    -0.206 F 
ATOM     28  C27 MOL d          -5.234  22.533  12.678  0.00  0.00    -0.069 A 
ATOM     29  H21 MOL d          -4.970  24.318  11.447  0.00  0.00     0.088 H 
ATOM     30  H20 MOL d          -4.582  22.856  13.480  0.00  0.00     0.085 H 
ENDBRANCH  14  20
BRANCH  17  31
ATOM     31  O34 MOL d          -6.377  20.008  17.441  0.00  0.00    -0.358 OA
ATOM     32  H23 MOL d          -7.227  19.583  17.449  0.00  0.00     0.217 HD
ENDBRANCH  17  31
BRANCH  19  33
ATOM     33  O32 MOL d          -4.563  18.022  17.123  0.00  0.00    -0.357 OA
ATOM     34  H22 MOL d          -3.834  17.446  16.926  0.00  0.00     0.217 HD
ENDBRANCH  19  33
ENDBRANCH   9  12
ENDBRANCH   5   8
ENDBRANCH   2   5
BRANCH   1  35
ATOM     35  C6  MOL d          -4.869  12.994  12.518  0.00  0.00     0.084 C 
ATOM     36  C4  MOL d          -6.373  12.873  12.713  0.00  0.00     0.092 C 
ATOM     37  C2  MOL d          -6.383  11.722  13.722  0.00  0.00     0.105 C 
ATOM     38  H4  MOL d          -6.851  13.784  13.103  0.00  0.00     0.091 H 
ATOM     39  C1  MOL d          -5.278  10.808  13.173  0.00  0.00     0.140 C 
ATOM     40  H2  MOL d          -6.154  12.084  14.734  0.00  0.00     0.093 H 
ATOM     41  O13 MOL d          -4.264  11.661  12.633  0.00  0.00    -0.352 OA
ATOM     42  H1  MOL d          -5.691  10.161  12.384  0.00  0.00     0.123 H 
ATOM     43  H6  MOL d          -4.644  13.422  11.531  0.00  0.00     0.093 H 
BRANCH  36  44
ATOM     44  O5  MOL d          -6.919  12.505  11.438  0.00  0.00    -0.390 OA
ATOM     45  H5  MOL d          -6.980  13.277  10.887  0.00  0.00     0.210 HD
ENDBRANCH  36  44
BRANCH  37  46
ATOM     46  O3  MOL d          -7.619  10.992  13.737  0.00  0.00    -0.388 OA
ATOM     47  H3  MOL d          -7.438  10.067  13.853  0.00  0.00     0.210 HD
ENDBRANCH  37  46
BRANCH  39  48
ATOM     48  N10 MOL d          -4.682   9.966  14.227  0.00  0.00    -0.294 N 
ATOM     49  C9  MOL d          -4.828   8.562  14.367  0.00  0.00     0.070 A 
ATOM     50  N8  MOL d          -4.269   8.133  15.451  0.00  0.00    -0.238 NA
ATOM     51  H10 MOL d          -5.347   7.926  13.650  0.00  0.00     0.144 H 
ATOM     52  C12 MOL d          -3.770   9.221  16.082  0.00  0.00     0.128 A 
ATOM     53  C11 MOL d          -3.981  10.373  15.346  0.00  0.00     0.165 A 
ATOM     54  C35 MOL d          -3.035   9.344  17.275  0.00  0.00     0.064 A 
ATOM     55  N40 MOL d          -3.620  11.617  15.711  0.00  0.00    -0.222 NA
ATOM     56  C39 MOL d          -2.939  11.675  16.855  0.00  0.00     0.089 A 
ATOM     57  N38 MOL d          -2.651  10.578  17.630  0.00  0.00    -0.244 NA
ATOM     58  H24 MOL d          -2.591  12.643  17.193  0.00  0.00     0.146 H 
BRANCH  54  59
ATOM     59  C7  MOL d          -2.634   8.166  18.140  0.00  0.00    -0.033 C 
ATOM     60  H7  MOL d          -1.537   8.123  18.214  0.00  0.00     0.035 H 
ATOM     61  H8  MOL d          -3.008   7.236  17.688  0.00  0.00     0.035 H 
ATOM     62  H9  MOL d          -3.065   8.286  19.145  0.00  0.00     0.035 H 
ENDBRANCH  54  59
ENDBRANCH  39  48
ENDBRANCH   1  35
TORSDOF 11
ENDMDL
MODEL 5
REMARK VINA RESULT:      -8.1      3.842      8.651
REMARK  11 active torsions:
REMARK  status: ('A' for Active; 'I' for Inactive)
REMARK    1  A    between atoms: N10_10  and  C1_1 
REMARK    2  A    between atoms: C2_2  and  O3_3 
REMARK    3  A    between atoms: C4_4  and  O5_5 
REMARK    4  A    between atoms: C6_6  and  C14_14 
REMARK    5  A    between atoms: C35_35  and  C7_7 
REMARK    6  A    between atoms: C15_15  and  C16_16 
REMARK    7  A    between atoms: C16_16  and  N17_17 
REMARK       I    between atoms: N17_17  and  C18_18 
REMARK    8  A    between atoms: C18_18  and  C20_20 
REMARK    9  A    between atoms: C22_22  and  C24_24 
REMARK   10  A    between atoms: C31_31  and  O32_32 
REMARK   11  A    between atoms: C33_33  and  O34_34 
ROOT
ATOM      1  C14 MOL d          -3.579  13.024  14.551  0.00  0.00    -0.075 C 
ATOM      2  C15 MOL d          -3.311  14.005  13.728  0.00  0.00    -0.087 C 
ATOM      3  H11 MOL d          -3.255  13.064  15.590  0.00  0.00     0.080 H 
ATOM      4  H12 MOL d          -3.680  13.960  12.704  0.00  0.00     0.079 H 
ENDROOT
BRANCH   2   5
ATOM      5  C16 MOL d          -2.516  15.176  14.162  0.00  0.00     0.010 C 
ATOM      6  H13 MOL d          -1.831  15.512  13.370  0.00  0.00     0.070 H 
ATOM      7  H14 MOL d          -1.942  14.956  15.074  0.00  0.00     0.070 H 
BRANCH   5   8
ATOM      8  N17 MOL d          -3.564  16.164  14.416  0.00  0.00    -0.353 N 
ATOM      9  C18 MOL d          -3.129  17.457  14.351  0.00  0.00     0.254 C 
ATOM     10  O19 MOL d          -1.933  17.710  14.177  0.00  0.00    -0.268 OA
ATOM     11  H15 MOL d          -4.511  15.915  14.620  0.00  0.00     0.163 HD
BRANCH   9  12
ATOM     12  C20 MOL d          -4.097  18.504  14.682  0.00  0.00     0.068 A 
ATOM     13  C21 MOL d          -4.496  19.365  13.641  0.00  0.00    -0.054 A 
ATOM     14  C22 MOL d          -5.443  20.364  13.866  0.00  0.00    -0.022 A 
ATOM     15  H16 MOL d          -4.063  19.249  12.654  0.00  0.00     0.086 H 
ATOM     16  C23 MOL d          -6.022  20.563  15.136  0.00  0.00    -0.037 A 
ATOM     17  C33 MOL d          -5.604  19.694  16.151  0.00  0.00     0.100 A 
ATOM     18  H17 MOL d          -6.750  21.345  15.316  0.00  0.00     0.089 H 
ATOM     19  C31 MOL d          -4.704  18.652  15.927  0.00  0.00     0.114 A 
BRANCH  14  20
ATOM     20  C24 MOL d          -5.808  21.245  12.716  0.00  0.00    -0.026 A 
ATOM     21  C25 MOL d          -6.712  20.767  11.789  0.00  0.00    -0.069 A 
ATOM     22  C26 MOL d          -7.016  21.601  10.717  0.00  0.00    -0.045 A 
ATOM     23  H18 MOL d          -7.165  19.787  11.891  0.00  0.00     0.085 H 
ATOM     24  C29 MOL d          -6.397  22.850  10.689  0.00  0.00     0.116 A 
ATOM     25  H19 MOL d          -7.703  21.294   9.938  0.00  0.00     0.088 H 
ATOM     26  C28 MOL d          -5.471  23.328  11.581  0.00  0.00    -0.045 A 
ATOM     27  F30 MOL d          -6.622  23.743   9.639  0.00  0.00    -0.206 F 
ATOM     28  C27 MOL d          -5.201  22.481  12.664  0.00  0.00    -0.069 A 
ATOM     29  H21 MOL d          -4.985  24.288  11.458  0.00  0.00     0.088 H 
ATOM     30  H20 MOL d          -4.524  22.793  13.450  0.00  0.00     0.085 H 
ENDBRANCH  14  20
BRANCH  17  31
ATOM     31  O34 MOL d          -6.166  19.874  17.419  0.00  0.00    -0.358 OA
ATOM     32  H23 MOL d          -5.586  19.506  18.076  0.00  0.00     0.217 HD
ENDBRANCH  17  31
BRANCH  19  33
ATOM     33  O32 MOL d          -4.365  17.894  17.003  0.00  0.00    -0.357 OA
ATOM     34  H22 MOL d          -3.585  17.390  16.800  0.00  0.00     0.217 HD
ENDBRANCH  19  33
ENDBRANCH   9  12
ENDBRANCH   5   8
ENDBRANCH   2   5
BRANCH   1  35
ATOM     35  C6  MOL d          -4.344  11.841  14.028  0.00  0.00     0.084 C 
ATOM     36  C4  MOL d          -4.769  12.174  12.607  0.00  0.00     0.092 C 
ATOM     37  C2  MOL d          -6.067  12.920  12.923  0.00  0.00     0.105 C 
ATOM     38  H4  MOL d          -4.047  12.793  12.054  0.00  0.00     0.091 H 
ATOM     39  C1  MOL d          -6.650  12.075  14.066  0.00  0.00     0.140 C 
ATOM     40  H2  MOL d          -5.862  13.953  13.238  0.00  0.00     0.093 H 
ATOM     41  O13 MOL d          -5.542  11.611  14.844  0.00  0.00    -0.352 OA
ATOM     42  H1  MOL d          -7.205  11.221  13.649  0.00  0.00     0.123 H 
ATOM     43  H6  MOL d          -3.709  10.943  14.038  0.00  0.00     0.093 H 
BRANCH  36  44
ATOM     44  O5  MOL d          -4.991  10.920  11.945  0.00  0.00    -0.390 OA
ATOM     45  H5  MOL d          -4.839  10.210  12.558  0.00  0.00     0.210 HD
ENDBRANCH  36  44
BRANCH  37  46
ATOM     46  O3  MOL d          -7.000  12.923  11.832  0.00  0.00    -0.388 OA
ATOM     47  H3  MOL d          -6.595  12.527  11.069  0.00  0.00     0.210 HD
ENDBRANCH  37  46
BRANCH  39  48
ATOM     48  N10 MOL d          -7.548  12.861  14.933  0.00  0.00    -0.294 N 
ATOM     49  C9  MOL d          -8.954  12.984  14.797  0.00  0.00     0.070 A 
ATOM     50  N8  MOL d          -9.441  13.825  15.650  0.00  0.00    -0.238 NA
ATOM     51  H10 MOL d          -9.549  12.438  14.065  0.00  0.00     0.144 H 
ATOM     52  C12 MOL d          -8.390  14.314  16.349  0.00  0.00     0.128 A 
ATOM     53  C11 MOL d          -7.202  13.724  15.955  0.00  0.00     0.165 A 
ATOM     54  C35 MOL d          -8.332  15.226  17.418  0.00  0.00     0.064 A 
ATOM     55  N40 MOL d          -5.982  14.008  16.445  0.00  0.00    -0.222 NA
ATOM     56  C39 MOL d          -5.987  14.888  17.447  0.00  0.00     0.089 A 
ATOM     57  N38 MOL d          -7.122  15.494  17.928  0.00  0.00    -0.244 NA
ATOM     58  H24 MOL d          -5.040  15.141  17.909  0.00  0.00     0.146 H 
BRANCH  54  59
ATOM     59  C7  MOL d          -9.554  15.879  18.032  0.00  0.00    -0.033 C 
ATOM     60  H7  MOL d         -10.409  15.773  17.348  0.00  0.00     0.035 H 
ATOM     61  H8  MOL d          -9.353  16.946  18.205  0.00  0.00     0.035 H 
ATOM     62  H9  MOL d          -9.789  15.390  18.990  0.00  0.00     0.035 H 
ENDBRANCH  54  59
ENDBRANCH  39  48
ENDBRANCH   1  35
TORSDOF 11
ENDMDL
MODEL 6
REMARK VINA RESULT:      -7.4      4.568     10.593
REMARK  11 active torsions:
REMARK  status: ('A' for Active; 'I' for Inactive)
REMARK    1  A    between atoms: N10_10  and  C1_1 
REMARK    2  A    between atoms: C2_2  and  O3_3 
REMARK    3  A    between atoms: C4_4  and  O5_5 
REMARK    4  A    between atoms: C6_6  and  C14_14 
REMARK    5  A    between atoms: C35_35  and  C7_7 
REMARK    6  A    between atoms: C15_15  and  C16_16 
REMARK    7  A    between atoms: C16_16  and  N17_17 
REMARK       I    between atoms: N17_17  and  C18_18 
REMARK    8  A    between atoms: C18_18  and  C20_20 
REMARK    9  A    between atoms: C22_22  and  C24_24 
REMARK   10  A    between atoms: C31_31  and  O32_32 
REMARK   11  A    between atoms: C33_33  and  O34_34 
ROOT
ATOM      1  C14 MOL d          -3.752  12.796  14.600  0.00  0.00    -0.075 C 
ATOM      2  C15 MOL d          -3.951  13.963  15.156  0.00  0.00    -0.087 C 
ATOM      3  H11 MOL d          -2.893  12.625  13.953  0.00  0.00     0.080 H 
ATOM      4  H12 MOL d          -4.795  14.096  15.831  0.00  0.00     0.079 H 
ENDROOT
BRANCH   2   5
ATOM      5  C16 MOL d          -3.050  15.106  14.887  0.00  0.00     0.010 C 
ATOM      6  H13 MOL d          -2.703  15.105  13.843  0.00  0.00     0.070 H 
ATOM      7  H14 MOL d          -2.182  15.101  15.563  0.00  0.00     0.070 H 
BRANCH   5   8
ATOM      8  N17 MOL d          -3.930  16.242  15.156  0.00  0.00    -0.353 N 
ATOM      9  C18 MOL d          -3.541  17.397  14.539  0.00  0.00     0.254 C 
ATOM     10  O19 MOL d          -2.487  17.443  13.896  0.00  0.00    -0.268 OA
ATOM     11  H15 MOL d          -4.740  16.180  15.739  0.00  0.00     0.163 HD
BRANCH   9  12
ATOM     12  C20 MOL d          -4.317  18.604  14.830  0.00  0.00     0.068 A 
ATOM     13  C21 MOL d          -4.679  19.416  13.738  0.00  0.00    -0.054 A 
ATOM     14  C22 MOL d          -5.451  20.562  13.927  0.00  0.00    -0.022 A 
ATOM     15  H16 MOL d          -4.354  19.148  12.739  0.00  0.00     0.086 H 
ATOM     16  C23 MOL d          -5.883  20.961  15.208  0.00  0.00    -0.037 A 
ATOM     17  C33 MOL d          -5.507  20.135  16.274  0.00  0.00     0.100 A 
ATOM     18  H17 MOL d          -6.475  21.856  15.359  0.00  0.00     0.089 H 
ATOM     19  C31 MOL d          -4.787  18.954  16.094  0.00  0.00     0.114 A 
BRANCH  14  20
ATOM     20  C24 MOL d          -5.785  21.380  12.722  0.00  0.00    -0.026 A 
ATOM     21  C25 MOL d          -6.654  20.846  11.791  0.00  0.00    -0.069 A 
ATOM     22  C26 MOL d          -6.929  21.622  10.669  0.00  0.00    -0.045 A 
ATOM     23  H18 MOL d          -7.101  19.868  11.929  0.00  0.00     0.085 H 
ATOM     24  C29 MOL d          -6.320  22.873  10.597  0.00  0.00     0.116 A 
ATOM     25  H19 MOL d          -7.587  21.268   9.885  0.00  0.00     0.088 H 
ATOM     26  C28 MOL d          -5.428  23.405  11.493  0.00  0.00    -0.045 A 
ATOM     27  F30 MOL d          -6.518  23.710   9.496  0.00  0.00    -0.206 F 
ATOM     28  C27 MOL d          -5.187  22.617  12.627  0.00  0.00    -0.069 A 
ATOM     29  H21 MOL d          -4.947  24.364  11.337  0.00  0.00     0.088 H 
ATOM     30  H20 MOL d          -4.539  22.976  13.417  0.00  0.00     0.085 H 
ENDBRANCH  14  20
BRANCH  17  31
ATOM     31  O34 MOL d          -5.926  20.511  17.555  0.00  0.00    -0.358 OA
ATOM     32  H23 MOL d          -5.591  21.378  17.754  0.00  0.00     0.217 HD
ENDBRANCH  17  31
BRANCH  19  33
ATOM     33  O32 MOL d          -4.467  18.255  17.214  0.00  0.00    -0.357 OA
ATOM     34  H22 MOL d          -5.060  18.496  17.917  0.00  0.00     0.217 HD
ENDBRANCH  19  33
ENDBRANCH   9  12
ENDBRANCH   5   8
ENDBRANCH   2   5
BRANCH   1  35
ATOM     35  C6  MOL d          -4.737  11.694  14.875  0.00  0.00     0.084 C 
ATOM     36  C4  MOL d          -5.299  11.933  16.268  0.00  0.00     0.092 C 
ATOM     37  C2  MOL d          -4.217  11.218  17.080  0.00  0.00     0.105 C 
ATOM     38  H4  MOL d          -5.400  12.995  16.537  0.00  0.00     0.091 H 
ATOM     39  C1  MOL d          -3.935   9.980  16.214  0.00  0.00     0.140 C 
ATOM     40  H2  MOL d          -3.326  11.852  17.193  0.00  0.00     0.093 H 
ATOM     41  O13 MOL d          -4.061  10.392  14.850  0.00  0.00    -0.352 OA
ATOM     42  H1  MOL d          -4.671   9.194  16.444  0.00  0.00     0.123 H 
ATOM     43  H6  MOL d          -5.543  11.710  14.128  0.00  0.00     0.093 H 
BRANCH  36  44
ATOM     44  O5  MOL d          -6.567  11.264  16.314  0.00  0.00    -0.390 OA
ATOM     45  H5  MOL d          -6.437  10.332  16.182  0.00  0.00     0.210 HD
ENDBRANCH  36  44
BRANCH  37  46
ATOM     46  O3  MOL d          -4.669  10.784  18.371  0.00  0.00    -0.388 OA
ATOM     47  H3  MOL d          -3.919  10.643  18.937  0.00  0.00     0.210 HD
ENDBRANCH  37  46
BRANCH  39  48
ATOM     48  N10 MOL d          -2.576   9.451  16.432  0.00  0.00    -0.294 N 
ATOM     49  C9  MOL d          -2.242   8.156  16.903  0.00  0.00     0.070 A 
ATOM     50  N8  MOL d          -0.968   8.031  17.084  0.00  0.00    -0.238 NA
ATOM     51  H10 MOL d          -2.969   7.365  17.090  0.00  0.00     0.144 H 
ATOM     52  C12 MOL d          -0.419   9.230  16.781  0.00  0.00     0.128 A 
ATOM     53  C11 MOL d          -1.375  10.130  16.347  0.00  0.00     0.165 A 
ATOM     54  C35 MOL d           0.922   9.657  16.763  0.00  0.00     0.064 A 
ATOM     55  N40 MOL d          -1.150  11.407  15.990  0.00  0.00    -0.222 NA
ATOM     56  C39 MOL d           0.136  11.760  16.004  0.00  0.00     0.089 A 
ATOM     57  N38 MOL d           1.155  10.921  16.383  0.00  0.00    -0.244 NA
ATOM     58  H24 MOL d           0.391  12.767  15.698  0.00  0.00     0.146 H 
BRANCH  54  59
ATOM     59  C7  MOL d           2.094   8.761  17.110  0.00  0.00    -0.033 C 
ATOM     60  H7  MOL d           2.595   8.438  16.185  0.00  0.00     0.035 H 
ATOM     61  H8  MOL d           1.731   7.878  17.657  0.00  0.00     0.035 H 
ATOM     62  H9  MOL d           2.806   9.316  17.738  0.00  0.00     0.035 H 
ENDBRANCH  54  59
ENDBRANCH  39  48
ENDBRANCH   1  35
TORSDOF 11
ENDMDL
MODEL 7
REMARK VINA RESULT:      -7.3      4.299      6.444
REMARK  11 active torsions:
REMARK  status: ('A' for Active; 'I' for Inactive)
REMARK    1  A    between atoms: N10_10  and  C1_1 
REMARK    2  A    between atoms: C2_2  and  O3_3 
REMARK    3  A    between atoms: C4_4  and  O5_5 
REMARK    4  A    between atoms: C6_6  and  C14_14 
REMARK    5  A    between atoms: C35_35  and  C7_7 
REMARK    6  A    between atoms: C15_15  and  C16_16 
REMARK    7  A    between atoms: C16_16  and  N17_17 
REMARK       I    between atoms: N17_17  and  C18_18 
REMARK    8  A    between atoms: C18_18  and  C20_20 
REMARK    9  A    between atoms: C22_22  and  C24_24 
REMARK   10  A    between atoms: C31_31  and  O32_32 
REMARK   11  A    between atoms: C33_33  and  O34_34 
ROOT
ATOM      1  C14 MOL d          -5.285  19.481  16.998  0.00  0.00    -0.075 C 
ATOM      2  C15 MOL d          -6.418  19.705  17.613  0.00  0.00    -0.087 C 
ATOM      3  H11 MOL d          -4.746  18.546  17.145  0.00  0.00     0.080 H 
ATOM      4  H12 MOL d          -6.957  20.631  17.418  0.00  0.00     0.079 H 
ENDROOT
BRANCH   2   5
ATOM      5  C16 MOL d          -6.981  18.724  18.567  0.00  0.00     0.010 C 
ATOM      6  H13 MOL d          -8.076  18.811  18.633  0.00  0.00     0.070 H 
ATOM      7  H14 MOL d          -6.544  18.843  19.570  0.00  0.00     0.070 H 
BRANCH   5   8
ATOM      8  N17 MOL d          -6.581  17.458  17.957  0.00  0.00    -0.353 N 
ATOM      9  C18 MOL d          -7.589  16.538  17.887  0.00  0.00     0.254 C 
ATOM     10  O19 MOL d          -8.692  16.775  18.388  0.00  0.00    -0.268 OA
ATOM     11  H15 MOL d          -5.655  17.281  17.622  0.00  0.00     0.163 HD
BRANCH   9  12
ATOM     12  C20 MOL d          -7.246  15.211  17.371  0.00  0.00     0.068 A 
ATOM     13  C21 MOL d          -5.903  14.805  17.481  0.00  0.00    -0.054 A 
ATOM     14  C22 MOL d          -5.503  13.541  17.048  0.00  0.00    -0.022 A 
ATOM     15  H16 MOL d          -5.171  15.482  17.908  0.00  0.00     0.086 H 
ATOM     16  C23 MOL d          -6.414  12.633  16.473  0.00  0.00    -0.037 A 
ATOM     17  C33 MOL d          -7.741  13.065  16.374  0.00  0.00     0.100 A 
ATOM     18  H17 MOL d          -6.104  11.653  16.126  0.00  0.00     0.089 H 
ATOM     19  C31 MOL d          -8.168  14.302  16.857  0.00  0.00     0.114 A 
BRANCH  14  20
ATOM     20  C24 MOL d          -4.058  13.185  17.188  0.00  0.00    -0.026 A 
ATOM     21  C25 MOL d          -3.366  12.807  16.055  0.00  0.00    -0.069 A 
ATOM     22  C26 MOL d          -2.029  12.459  16.221  0.00  0.00    -0.045 A 
ATOM     23  H18 MOL d          -3.843  12.782  15.082  0.00  0.00     0.085 H 
ATOM     24  C29 MOL d          -1.505  12.545  17.509  0.00  0.00     0.116 A 
ATOM     25  H19 MOL d          -1.421  12.136  15.384  0.00  0.00     0.088 H 
ATOM     26  C28 MOL d          -2.185  12.885  18.651  0.00  0.00    -0.045 A 
ATOM     27  F30 MOL d          -0.179  12.193  17.774  0.00  0.00    -0.206 F 
ATOM     28  C27 MOL d          -3.522  13.254  18.455  0.00  0.00    -0.069 A 
ATOM     29  H21 MOL d          -1.722  12.868  19.631  0.00  0.00     0.088 H 
ATOM     30  H20 MOL d          -4.127  13.590  19.289  0.00  0.00     0.085 H 
ENDBRANCH  14  20
BRANCH  17  31
ATOM     31  O34 MOL d          -8.663  12.180  15.806  0.00  0.00    -0.358 OA
ATOM     32  H23 MOL d          -8.982  11.585  16.475  0.00  0.00     0.217 HD
ENDBRANCH  17  31
BRANCH  19  33
ATOM     33  O32 MOL d          -9.480  14.609  16.680  0.00  0.00    -0.357 OA
ATOM     34  H22 MOL d          -9.601  15.546  16.781  0.00  0.00     0.217 HD
ENDBRANCH  19  33
ENDBRANCH   9  12
ENDBRANCH   5   8
ENDBRANCH   2   5
BRANCH   1  35
ATOM     35  C6  MOL d          -4.744  20.544  16.083  0.00  0.00     0.084 C 
ATOM     36  C4  MOL d          -5.679  20.624  14.887  0.00  0.00     0.092 C 
ATOM     37  C2  MOL d          -5.055  19.519  14.031  0.00  0.00     0.105 C 
ATOM     38  H4  MOL d          -6.735  20.430  15.126  0.00  0.00     0.091 H 
ATOM     39  C1  MOL d          -3.553  19.750  14.260  0.00  0.00     0.140 C 
ATOM     40  H2  MOL d          -5.376  18.525  14.376  0.00  0.00     0.093 H 
ATOM     41  O13 MOL d          -3.402  20.177  15.617  0.00  0.00    -0.352 OA
ATOM     42  H1  MOL d          -3.190  20.529  13.573  0.00  0.00     0.123 H 
ATOM     43  H6  MOL d          -4.706  21.511  16.605  0.00  0.00     0.093 H 
BRANCH  36  44
ATOM     44  O5  MOL d          -5.507  21.932  14.324  0.00  0.00    -0.390 OA
ATOM     45  H5  MOL d          -6.078  22.030  13.572  0.00  0.00     0.210 HD
ENDBRANCH  36  44
BRANCH  37  46
ATOM     46  O3  MOL d          -5.334  19.659  12.630  0.00  0.00    -0.388 OA
ATOM     47  H3  MOL d          -6.001  19.032  12.377  0.00  0.00     0.210 HD
ENDBRANCH  37  46
BRANCH  39  48
ATOM     48  N10 MOL d          -2.767  18.519  14.055  0.00  0.00    -0.294 N 
ATOM     49  C9  MOL d          -3.283  17.221  13.812  0.00  0.00     0.070 A 
ATOM     50  N8  MOL d          -2.342  16.335  13.777  0.00  0.00    -0.238 NA
ATOM     51  H10 MOL d          -4.341  16.998  13.672  0.00  0.00     0.144 H 
ATOM     52  C12 MOL d          -1.187  16.993  14.030  0.00  0.00     0.128 A 
ATOM     53  C11 MOL d          -1.401  18.351  14.182  0.00  0.00     0.165 A 
ATOM     54  C35 MOL d           0.145  16.542  14.079  0.00  0.00     0.064 A 
ATOM     55  N40 MOL d          -0.458  19.271  14.458  0.00  0.00    -0.222 NA
ATOM     56  C39 MOL d           0.782  18.784  14.505  0.00  0.00     0.089 A 
ATOM     57  N38 MOL d           1.091  17.458  14.329  0.00  0.00    -0.244 NA
ATOM     58  H24 MOL d           1.594  19.476  14.694  0.00  0.00     0.146 H 
BRANCH  54  59
ATOM     59  C7  MOL d           0.554  15.104  13.831  0.00  0.00    -0.033 C 
ATOM     60  H7  MOL d           1.341  14.818  14.544  0.00  0.00     0.035 H 
ATOM     61  H8  MOL d           0.936  15.004  12.804  0.00  0.00     0.035 H 
ATOM     62  H9  MOL d          -0.318  14.446  13.964  0.00  0.00     0.035 H 
ENDBRANCH  54  59
ENDBRANCH  39  48
ENDBRANCH   1  35
TORSDOF 11
ENDMDL
MODEL 8
REMARK VINA RESULT:      -6.9      3.238      5.240
REMARK  11 active torsions:
REMARK  status: ('A' for Active; 'I' for Inactive)
REMARK    1  A    between atoms: N10_10  and  C1_1 
REMARK    2  A    between atoms: C2_2  and  O3_3 
REMARK    3  A    between atoms: C4_4  and  O5_5 
REMARK    4  A    between atoms: C6_6  and  C14_14 
REMARK    5  A    between atoms: C35_35  and  C7_7 
REMARK    6  A    between atoms: C15_15  and  C16_16 
REMARK    7  A    between atoms: C16_16  and  N17_17 
REMARK       I    between atoms: N17_17  and  C18_18 
REMARK    8  A    between atoms: C18_18  and  C20_20 
REMARK    9  A    between atoms: C22_22  and  C24_24 
REMARK   10  A    between atoms: C31_31  and  O32_32 
REMARK   11  A    between atoms: C33_33  and  O34_34 
ROOT
ATOM      1  C14 MOL d          -4.277  19.492  17.296  0.00  0.00    -0.075 C 
ATOM      2  C15 MOL d          -5.181  18.584  17.029  0.00  0.00    -0.087 C 
ATOM      3  H11 MOL d          -3.843  19.571  18.292  0.00  0.00     0.080 H 
ATOM      4  H12 MOL d          -5.569  18.500  16.015  0.00  0.00     0.079 H 
ENDROOT
BRANCH   2   5
ATOM      5  C16 MOL d          -5.685  17.670  18.078  0.00  0.00     0.010 C 
ATOM      6  H13 MOL d          -6.784  17.649  18.098  0.00  0.00     0.070 H 
ATOM      7  H14 MOL d          -5.305  17.952  19.072  0.00  0.00     0.070 H 
BRANCH   5   8
ATOM      8  N17 MOL d          -5.133  16.389  17.640  0.00  0.00    -0.353 N 
ATOM      9  C18 MOL d          -6.080  15.499  17.218  0.00  0.00     0.254 C 
ATOM     10  O19 MOL d          -7.281  15.771  17.303  0.00  0.00    -0.268 OA
ATOM     11  H15 MOL d          -4.155  16.183  17.650  0.00  0.00     0.163 HD
BRANCH   9  12
ATOM     12  C20 MOL d          -5.618  14.159  16.847  0.00  0.00     0.068 A 
ATOM     13  C21 MOL d          -5.937  13.704  15.553  0.00  0.00    -0.054 A 
ATOM     14  C22 MOL d          -5.501  12.455  15.111  0.00  0.00    -0.022 A 
ATOM     15  H16 MOL d          -6.527  14.330  14.894  0.00  0.00     0.086 H 
ATOM     16  C23 MOL d          -4.746  11.599  15.937  0.00  0.00    -0.037 A 
ATOM     17  C33 MOL d          -4.447  12.077  17.218  0.00  0.00     0.100 A 
ATOM     18  H17 MOL d          -4.415  10.623  15.599  0.00  0.00     0.089 H 
ATOM     19  C31 MOL d          -4.824  13.348  17.653  0.00  0.00     0.114 A 
BRANCH  14  20
ATOM     20  C24 MOL d          -5.887  12.035  13.729  0.00  0.00    -0.026 A 
ATOM     21  C25 MOL d          -7.005  12.611  13.161  0.00  0.00    -0.069 A 
ATOM     22  C26 MOL d          -7.353  12.184  11.882  0.00  0.00    -0.045 A 
ATOM     23  H18 MOL d          -7.586  13.361  13.686  0.00  0.00     0.085 H 
ATOM     24  C29 MOL d          -6.529  11.231  11.286  0.00  0.00     0.116 A 
ATOM     25  H19 MOL d          -8.226  12.575  11.374  0.00  0.00     0.088 H 
ATOM     26  C28 MOL d          -5.435  10.623  11.848  0.00  0.00    -0.045 A 
ATOM     27  F30 MOL d          -6.813  10.726  10.015  0.00  0.00    -0.206 F 
ATOM     28  C27 MOL d          -5.091  11.088  13.124  0.00  0.00    -0.069 A 
ATOM     29  H21 MOL d          -4.879   9.842  11.342  0.00  0.00     0.088 H 
ATOM     30  H20 MOL d          -4.211  10.707  13.628  0.00  0.00     0.085 H 
ENDBRANCH  14  20
BRANCH  17  31
ATOM     31  O34 MOL d          -3.698  11.244  18.055  0.00  0.00    -0.358 OA
ATOM     32  H23 MOL d          -3.974  10.343  17.932  0.00  0.00     0.217 HD
ENDBRANCH  17  31
BRANCH  19  33
ATOM     33  O32 MOL d          -4.489  13.683  18.927  0.00  0.00    -0.357 OA
ATOM     34  H22 MOL d          -3.791  14.327  18.911  0.00  0.00     0.217 HD
ENDBRANCH  19  33
ENDBRANCH   9  12
ENDBRANCH   5   8
ENDBRANCH   2   5
BRANCH   1  35
ATOM     35  C6  MOL d          -3.850  20.422  16.196  0.00  0.00     0.084 C 
ATOM     36  C4  MOL d          -4.983  20.468  15.182  0.00  0.00     0.092 C 
ATOM     37  C2  MOL d          -4.596  19.245  14.348  0.00  0.00     0.105 C 
ATOM     38  H4  MOL d          -5.987  20.380  15.625  0.00  0.00     0.091 H 
ATOM     39  C1  MOL d          -3.067  19.376  14.281  0.00  0.00     0.140 C 
ATOM     40  H2  MOL d          -4.908  18.315  14.844  0.00  0.00     0.093 H 
ATOM     41  O13 MOL d          -2.642  19.910  15.538  0.00  0.00    -0.352 OA
ATOM     42  H1  MOL d          -2.790  20.060  13.464  0.00  0.00     0.123 H 
ATOM     43  H6  MOL d          -3.657  21.426  16.601  0.00  0.00     0.093 H 
BRANCH  36  44
ATOM     44  O5  MOL d          -4.837  21.703  14.467  0.00  0.00    -0.390 OA
ATOM     45  H5  MOL d          -5.575  22.269  14.661  0.00  0.00     0.210 HD
ENDBRANCH  36  44
BRANCH  37  46
ATOM     46  O3  MOL d          -5.120  19.280  13.012  0.00  0.00    -0.388 OA
ATOM     47  H3  MOL d          -5.793  18.616  12.919  0.00  0.00     0.210 HD
ENDBRANCH  37  46
BRANCH  39  48
ATOM     48  N10 MOL d          -2.409  18.073  14.067  0.00  0.00    -0.294 N 
ATOM     49  C9  MOL d          -3.055  16.823  13.891  0.00  0.00     0.070 A 
ATOM     50  N8  MOL d          -2.201  15.854  13.828  0.00  0.00    -0.238 NA
ATOM     51  H10 MOL d          -4.135  16.696  13.818  0.00  0.00     0.144 H 
ATOM     52  C12 MOL d          -0.978  16.408  13.995  0.00  0.00     0.128 A 
ATOM     53  C11 MOL d          -1.059  17.783  14.119  0.00  0.00     0.165 A 
ATOM     54  C35 MOL d           0.307  15.837  13.981  0.00  0.00     0.064 A 
ATOM     55  N40 MOL d          -0.022  18.618  14.315  0.00  0.00    -0.222 NA
ATOM     56  C39 MOL d           1.169  18.020  14.305  0.00  0.00     0.089 A 
ATOM     57  N38 MOL d           1.346  16.667  14.149  0.00  0.00    -0.244 NA
ATOM     58  H24 MOL d           2.051  18.638  14.428  0.00  0.00     0.146 H 
BRANCH  54  59
ATOM     59  C7  MOL d           0.569  14.362  13.751  0.00  0.00    -0.033 C 
ATOM     60  H7  MOL d          -0.362  13.870  13.432  0.00  0.00     0.035 H 
ATOM     61  H8  MOL d           0.926  13.903  14.685  0.00  0.00     0.035 H 
ATOM     62  H9  MOL d           1.333  14.243  12.968  0.00  0.00     0.035 H 
ENDBRANCH  54  59
ENDBRANCH  39  48
ENDBRANCH   1  35
TORSDOF 11
ENDMDL
