MODEL 1
REMARK VINA RESULT:      -5.1      0.000      0.000
REMARK  5 active torsions:
REMARK  status: ('A' for Active; 'I' for Inactive)
REMARK    1  A    between atoms: C4_2  and  C2_3 
REMARK       I    between atoms: C4_2  and  N_7 
REMARK    2  A    between atoms: C2_3  and  C1_4 
REMARK    3  A    between atoms: C2_3  and  C3_6 
REMARK    4  A    between atoms: C1_4  and  S_5 
REMARK    5  A    between atoms: C8_8  and  C9_9 
ROOT
ATOM      1  O1  X8Z d          29.936   3.535 -43.395  0.00  0.00    -0.273 OA
ATOM      2  C4  X8Z d          28.913   4.255 -43.625  0.00  0.00     0.225 C 
ATOM      3  N   X8Z d          29.075   5.465 -44.205  0.00  0.00    -0.337 N 
ATOM      4  C8  X8Z d          30.436   6.007 -44.572  0.00  0.00     0.098 C 
ATOM      5  C5  X8Z d          28.013   6.477 -44.564  0.00  0.00    -0.001 C 
ATOM      6  C6  X8Z d          28.727   7.655 -45.118  0.00  0.00    -0.048 C 
ATOM      7  C7  X8Z d          30.177   7.304 -45.287  0.00  0.00    -0.035 C 
ATOM      8  H8  X8Z d          30.957   5.304 -45.237  0.00  0.00     0.089 H 
ATOM      9  H9  X8Z d          27.443   6.764 -43.669  0.00  0.00     0.064 H 
ATOM     10  H10 X8Z d          27.329   6.059 -45.317  0.00  0.00     0.064 H 
ATOM     11  H11 X8Z d          28.631   8.505 -44.426  0.00  0.00     0.035 H 
ATOM     12  H12 X8Z d          28.296   7.924 -46.093  0.00  0.00     0.035 H 
ATOM     13  H13 X8Z d          30.410   7.192 -46.357  0.00  0.00     0.036 H 
ATOM     14  H14 X8Z d          30.805   8.098 -44.856  0.00  0.00     0.036 H 
ENDROOT
BRANCH   2  15
ATOM     15  C2  X8Z d          27.534   3.728 -43.222  0.00  0.00     0.028 C 
ATOM     16  H1  X8Z d          26.793   3.976 -43.997  0.00  0.00     0.055 H 
BRANCH  15  17
ATOM     17  C1  X8Z d          27.622   2.203 -43.088  0.00  0.00    -0.015 C 
ATOM     18  H2  X8Z d          27.277   1.925 -42.081  0.00  0.00     0.049 H 
ATOM     19  H3  X8Z d          28.674   1.908 -43.210  0.00  0.00     0.049 H 
BRANCH  17  20
ATOM     20  S   X8Z d          26.644   1.292 -44.285  0.00  0.00    -0.181 SA
ATOM     21  H4  X8Z d          26.419   1.893 -45.062  0.00  0.00     0.101 HD
ENDBRANCH  17  20
ENDBRANCH  15  17
BRANCH  15  22
ATOM     22  C3  X8Z d          27.141   4.425 -41.910  0.00  0.00    -0.064 C 
ATOM     23  H5  X8Z d          26.547   5.323 -42.136  0.00  0.00     0.028 H 
ATOM     24  H6  X8Z d          28.050   4.715 -41.362  0.00  0.00     0.028 H 
ATOM     25  H7  X8Z d          26.545   3.738 -41.292  0.00  0.00     0.028 H 
ENDBRANCH  15  22
ENDBRANCH   2  15
BRANCH   4  26
ATOM     26  C9  X8Z d          31.294   6.240 -43.307  0.00  0.00     0.196 C 
ATOM     27  O3  X8Z d          30.888   6.879 -42.357  0.00  0.00    -0.646 OA
ATOM     28  O2  X8Z d          32.470   5.719 -43.306  0.00  0.00    -0.646 OA
ENDBRANCH   4  26
TORSDOF 5
ENDMDL
MODEL 2
REMARK VINA RESULT:      -4.4      2.573      4.655
REMARK  5 active torsions:
REMARK  status: ('A' for Active; 'I' for Inactive)
REMARK    1  A    between atoms: C4_2  and  C2_3 
REMARK       I    between atoms: C4_2  and  N_7 
REMARK    2  A    between atoms: C2_3  and  C1_4 
REMARK    3  A    between atoms: C2_3  and  C3_6 
REMARK    4  A    between atoms: C1_4  and  S_5 
REMARK    5  A    between atoms: C8_8  and  C9_9 
ROOT
ATOM      1  O1  X8Z d          30.797   4.862 -43.717  0.00  0.00    -0.273 OA
ATOM      2  C4  X8Z d          29.944   5.783 -43.921  0.00  0.00     0.225 C 
ATOM      3  N   X8Z d          28.679   5.622 -43.473  0.00  0.00    -0.337 N 
ATOM      4  C8  X8Z d          28.233   4.371 -42.755  0.00  0.00     0.098 C 
ATOM      5  C5  X8Z d          27.515   6.575 -43.603  0.00  0.00    -0.001 C 
ATOM      6  C6  X8Z d          26.345   5.891 -42.997  0.00  0.00    -0.048 C 
ATOM      7  C7  X8Z d          26.815   4.633 -42.326  0.00  0.00    -0.035 C 
ATOM      8  H8  X8Z d          28.868   4.192 -41.875  0.00  0.00     0.089 H 
ATOM      9  H9  X8Z d          27.320   6.794 -44.663  0.00  0.00     0.064 H 
ATOM     10  H10 X8Z d          27.727   7.511 -43.067  0.00  0.00     0.064 H 
ATOM     11  H11 X8Z d          25.615   5.641 -43.782  0.00  0.00     0.035 H 
ATOM     12  H12 X8Z d          25.873   6.552 -42.255  0.00  0.00     0.035 H 
ATOM     13  H13 X8Z d          26.774   4.757 -41.233  0.00  0.00     0.036 H 
ATOM     14  H14 X8Z d          26.174   3.790 -42.625  0.00  0.00     0.036 H 
ENDROOT
BRANCH   2  15
ATOM     15  C2  X8Z d          30.381   7.039 -44.681  0.00  0.00     0.028 C 
ATOM     16  H1  X8Z d          29.498   7.591 -45.036  0.00  0.00     0.055 H 
BRANCH  15  17
ATOM     17  C1  X8Z d          31.173   7.932 -43.719  0.00  0.00    -0.015 C 
ATOM     18  H2  X8Z d          31.243   8.937 -44.162  0.00  0.00     0.049 H 
ATOM     19  H3  X8Z d          32.182   7.508 -43.609  0.00  0.00     0.049 H 
BRANCH  17  20
ATOM     20  S   X8Z d          30.452   8.092 -42.085  0.00  0.00    -0.181 SA
ATOM     21  H4  X8Z d          30.839   8.903 -41.626  0.00  0.00     0.101 HD
ENDBRANCH  17  20
ENDBRANCH  15  17
BRANCH  15  22
ATOM     22  C3  X8Z d          31.206   6.577 -45.893  0.00  0.00    -0.064 C 
ATOM     23  H5  X8Z d          30.528   6.275 -46.704  0.00  0.00     0.028 H 
ATOM     24  H6  X8Z d          31.836   5.723 -45.604  0.00  0.00     0.028 H 
ATOM     25  H7  X8Z d          31.845   7.403 -46.237  0.00  0.00     0.028 H 
ENDBRANCH  15  22
ENDBRANCH   2  15
BRANCH   4  26
ATOM     26  C9  X8Z d          28.304   3.144 -43.692  0.00  0.00     0.196 C 
ATOM     27  O3  X8Z d          27.964   3.198 -44.857  0.00  0.00    -0.646 OA
ATOM     28  O2  X8Z d          28.747   2.052 -43.177  0.00  0.00    -0.646 OA
ENDBRANCH   4  26
TORSDOF 5
ENDMDL
MODEL 3
REMARK VINA RESULT:      -4.3      2.607      4.015
REMARK  5 active torsions:
REMARK  status: ('A' for Active; 'I' for Inactive)
REMARK    1  A    between atoms: C4_2  and  C2_3 
REMARK       I    between atoms: C4_2  and  N_7 
REMARK    2  A    between atoms: C2_3  and  C1_4 
REMARK    3  A    between atoms: C2_3  and  C3_6 
REMARK    4  A    between atoms: C1_4  and  S_5 
REMARK    5  A    between atoms: C8_8  and  C9_9 
ROOT
ATOM      1  O1  X8Z d          30.367   7.201 -41.849  0.00  0.00    -0.273 OA
ATOM      2  C4  X8Z d          29.482   6.936 -42.723  0.00  0.00     0.225 C 
ATOM      3  N   X8Z d          29.236   5.646 -43.043  0.00  0.00    -0.337 N 
ATOM      4  C8  X8Z d          29.994   4.502 -42.414  0.00  0.00     0.098 C 
ATOM      5  C5  X8Z d          28.241   5.106 -44.043  0.00  0.00    -0.001 C 
ATOM      6  C6  X8Z d          28.416   3.632 -44.053  0.00  0.00    -0.048 C 
ATOM      7  C7  X8Z d          29.351   3.249 -42.943  0.00  0.00    -0.035 C 
ATOM      8  H8  X8Z d          29.903   4.542 -41.319  0.00  0.00     0.089 H 
ATOM      9  H9  X8Z d          28.443   5.521 -45.041  0.00  0.00     0.064 H 
ATOM     10  H10 X8Z d          27.217   5.365 -43.738  0.00  0.00     0.064 H 
ATOM     11  H11 X8Z d          28.840   3.317 -45.018  0.00  0.00     0.035 H 
ATOM     12  H12 X8Z d          27.442   3.143 -43.902  0.00  0.00     0.035 H 
ATOM     13  H13 X8Z d          28.789   2.752 -42.138  0.00  0.00     0.036 H 
ATOM     14  H14 X8Z d          30.124   2.567 -43.326  0.00  0.00     0.036 H 
ENDROOT
BRANCH   2  15
ATOM     15  C2  X8Z d          28.735   8.093 -43.391  0.00  0.00     0.028 C 
ATOM     16  H1  X8Z d          29.051   9.051 -42.951  0.00  0.00     0.055 H 
BRANCH  15  17
ATOM     17  C1  X8Z d          29.084   8.093 -44.884  0.00  0.00    -0.015 C 
ATOM     18  H2  X8Z d          28.802   9.071 -45.303  0.00  0.00     0.049 H 
ATOM     19  H3  X8Z d          28.497   7.302 -45.373  0.00  0.00     0.049 H 
BRANCH  17  20
ATOM     20  S   X8Z d          30.817   7.809 -45.245  0.00  0.00    -0.181 SA
ATOM     21  H4  X8Z d          31.113   8.431 -45.981  0.00  0.00     0.101 HD
ENDBRANCH  17  20
ENDBRANCH  15  17
BRANCH  15  22
ATOM     22  C3  X8Z d          27.235   7.887 -43.123  0.00  0.00    -0.064 C 
ATOM     23  H5  X8Z d          26.817   7.210 -43.882  0.00  0.00     0.028 H 
ATOM     24  H6  X8Z d          26.717   8.857 -43.171  0.00  0.00     0.028 H 
ATOM     25  H7  X8Z d          27.098   7.448 -42.124  0.00  0.00     0.028 H 
ENDBRANCH  15  22
ENDBRANCH   2  15
BRANCH   4  26
ATOM     26  C9  X8Z d          31.490   4.555 -42.801  0.00  0.00     0.196 C 
ATOM     27  O3  X8Z d          31.866   4.452 -43.952  0.00  0.00    -0.646 OA
ATOM     28  O2  X8Z d          32.328   4.717 -41.838  0.00  0.00    -0.646 OA
ENDBRANCH   4  26
TORSDOF 5
ENDMDL
MODEL 4
REMARK VINA RESULT:      -4.1      2.671      3.071
REMARK  5 active torsions:
REMARK  status: ('A' for Active; 'I' for Inactive)
REMARK    1  A    between atoms: C4_2  and  C2_3 
REMARK       I    between atoms: C4_2  and  N_7 
REMARK    2  A    between atoms: C2_3  and  C1_4 
REMARK    3  A    between atoms: C2_3  and  C3_6 
REMARK    4  A    between atoms: C1_4  and  S_5 
REMARK    5  A    between atoms: C8_8  and  C9_9 
ROOT
ATOM      1  O1  X8Z d          28.865   4.580 -42.531  0.00  0.00    -0.273 OA
ATOM      2  C4  X8Z d          29.001   5.838 -42.406  0.00  0.00     0.225 C 
ATOM      3  N   X8Z d          29.981   6.467 -43.092  0.00  0.00    -0.337 N 
ATOM      4  C8  X8Z d          30.942   5.724 -43.988  0.00  0.00     0.098 C 
ATOM      5  C5  X8Z d          30.322   7.938 -43.094  0.00  0.00    -0.001 C 
ATOM      6  C6  X8Z d          31.516   8.090 -43.963  0.00  0.00    -0.048 C 
ATOM      7  C7  X8Z d          31.786   6.781 -44.646  0.00  0.00    -0.035 C 
ATOM      8  H8  X8Z d          30.387   5.154 -44.748  0.00  0.00     0.089 H 
ATOM      9  H9  X8Z d          30.550   8.277 -42.073  0.00  0.00     0.064 H 
ATOM     10  H10 X8Z d          29.482   8.523 -43.496  0.00  0.00     0.064 H 
ATOM     11  H11 X8Z d          32.385   8.375 -43.352  0.00  0.00     0.035 H 
ATOM     12  H12 X8Z d          31.327   8.869 -44.718  0.00  0.00     0.035 H 
ATOM     13  H13 X8Z d          31.524   6.856 -45.712  0.00  0.00     0.036 H 
ATOM     14  H14 X8Z d          32.850   6.522 -44.546  0.00  0.00     0.036 H 
ENDROOT
BRANCH   2  15
ATOM     15  C2  X8Z d          28.053   6.594 -41.470  0.00  0.00     0.028 C 
ATOM     16  H1  X8Z d          28.581   6.876 -40.547  0.00  0.00     0.055 H 
BRANCH  15  17
ATOM     17  C1  X8Z d          27.584   7.866 -42.185  0.00  0.00    -0.015 C 
ATOM     18  H2  X8Z d          28.473   8.454 -42.458  0.00  0.00     0.049 H 
ATOM     19  H3  X8Z d          26.963   8.444 -41.485  0.00  0.00     0.049 H 
BRANCH  17  20
ATOM     20  S   X8Z d          26.627   7.576 -43.674  0.00  0.00    -0.181 SA
ATOM     21  H4  X8Z d          26.823   6.651 -44.023  0.00  0.00     0.101 HD
ENDBRANCH  17  20
ENDBRANCH  15  17
BRANCH  15  22
ATOM     22  C3  X8Z d          26.900   5.640 -41.118  0.00  0.00    -0.064 C 
ATOM     23  H5  X8Z d          27.308   4.652 -40.860  0.00  0.00     0.028 H 
ATOM     24  H6  X8Z d          26.226   5.545 -41.983  0.00  0.00     0.028 H 
ATOM     25  H7  X8Z d          26.341   6.042 -40.261  0.00  0.00     0.028 H 
ENDBRANCH  15  22
ENDBRANCH   2  15
BRANCH   4  26
ATOM     26  C9  X8Z d          31.821   4.752 -43.167  0.00  0.00     0.196 C 
ATOM     27  O3  X8Z d          32.266   5.047 -42.076  0.00  0.00    -0.646 OA
ATOM     28  O2  X8Z d          32.060   3.605 -43.697  0.00  0.00    -0.646 OA
ENDBRANCH   4  26
TORSDOF 5
ENDMDL
MODEL 5
REMARK VINA RESULT:      -3.7      2.136      2.703
REMARK  5 active torsions:
REMARK  status: ('A' for Active; 'I' for Inactive)
REMARK    1  A    between atoms: C4_2  and  C2_3 
REMARK       I    between atoms: C4_2  and  N_7 
REMARK    2  A    between atoms: C2_3  and  C1_4 
REMARK    3  A    between atoms: C2_3  and  C3_6 
REMARK    4  A    between atoms: C1_4  and  S_5 
REMARK    5  A    between atoms: C8_8  and  C9_9 
ROOT
ATOM      1  O1  X8Z d          28.792   5.054 -44.734  0.00  0.00    -0.273 OA
ATOM      2  C4  X8Z d          28.751   5.110 -43.465  0.00  0.00     0.225 C 
ATOM      3  N   X8Z d          29.421   6.094 -42.826  0.00  0.00    -0.337 N 
ATOM      4  C8  X8Z d          30.240   7.123 -43.567  0.00  0.00     0.098 C 
ATOM      5  C5  X8Z d          29.511   6.349 -41.340  0.00  0.00    -0.001 C 
ATOM      6  C6  X8Z d          30.417   7.513 -41.169  0.00  0.00    -0.048 C 
ATOM      7  C7  X8Z d          30.718   8.093 -42.521  0.00  0.00    -0.035 C 
ATOM      8  H8  X8Z d          29.615   7.643 -44.308  0.00  0.00     0.089 H 
ATOM      9  H9  X8Z d          29.923   5.467 -40.828  0.00  0.00     0.064 H 
ATOM     10  H10 X8Z d          28.516   6.579 -40.932  0.00  0.00     0.064 H 
ATOM     11  H11 X8Z d          31.352   7.187 -40.690  0.00  0.00     0.035 H 
ATOM     12  H12 X8Z d          29.928   8.273 -40.541  0.00  0.00     0.035 H 
ATOM     13  H13 X8Z d          30.196   9.054 -42.638  0.00  0.00     0.036 H 
ATOM     14  H14 X8Z d          31.802   8.248 -42.625  0.00  0.00     0.036 H 
ENDROOT
BRANCH   2  15
ATOM     15  C2  X8Z d          27.952   4.047 -42.705  0.00  0.00     0.028 C 
ATOM     16  H1  X8Z d          28.530   3.686 -41.841  0.00  0.00     0.055 H 
BRANCH  15  17
ATOM     17  C1  X8Z d          26.655   4.690 -42.201  0.00  0.00    -0.015 C 
ATOM     18  H2  X8Z d          26.778   4.919 -41.132  0.00  0.00     0.049 H 
ATOM     19  H3  X8Z d          25.839   3.963 -42.328  0.00  0.00     0.049 H 
BRANCH  17  20
ATOM     20  S   X8Z d          26.193   6.202 -43.047  0.00  0.00    -0.181 SA
ATOM     21  H4  X8Z d          26.642   6.987 -42.601  0.00  0.00     0.101 HD
ENDBRANCH  17  20
ENDBRANCH  15  17
BRANCH  15  22
ATOM     22  C3  X8Z d          27.709   2.877 -43.672  0.00  0.00    -0.064 C 
ATOM     23  H5  X8Z d          26.771   2.369 -43.403  0.00  0.00     0.028 H 
ATOM     24  H6  X8Z d          28.544   2.165 -43.604  0.00  0.00     0.028 H 
ATOM     25  H7  X8Z d          27.636   3.260 -44.700  0.00  0.00     0.028 H 
ENDBRANCH  15  22
ENDBRANCH   2  15
BRANCH   4  26
ATOM     26  C9  X8Z d          31.436   6.459 -44.287  0.00  0.00     0.196 C 
ATOM     27  O3  X8Z d          31.590   6.531 -45.490  0.00  0.00    -0.646 OA
ATOM     28  O2  X8Z d          32.272   5.822 -43.545  0.00  0.00    -0.646 OA
ENDBRANCH   4  26
TORSDOF 5
ENDMDL
MODEL 6
REMARK VINA RESULT:      -3.7      1.880      2.633
REMARK  5 active torsions:
REMARK  status: ('A' for Active; 'I' for Inactive)
REMARK    1  A    between atoms: C4_2  and  C2_3 
REMARK       I    between atoms: C4_2  and  N_7 
REMARK    2  A    between atoms: C2_3  and  C1_4 
REMARK    3  A    between atoms: C2_3  and  C3_6 
REMARK    4  A    between atoms: C1_4  and  S_5 
REMARK    5  A    between atoms: C8_8  and  C9_9 
ROOT
ATOM      1  O1  X8Z d          27.473   6.407 -43.635  0.00  0.00    -0.273 OA
ATOM      2  C4  X8Z d          28.019   5.281 -43.412  0.00  0.00     0.225 C 
ATOM      3  N   X8Z d          29.367   5.191 -43.403  0.00  0.00    -0.337 N 
ATOM      4  C8  X8Z d          30.255   6.381 -43.673  0.00  0.00     0.098 C 
ATOM      5  C5  X8Z d          30.219   3.967 -43.163  0.00  0.00    -0.001 C 
ATOM      6  C6  X8Z d          31.629   4.401 -43.323  0.00  0.00    -0.048 C 
ATOM      7  C7  X8Z d          31.662   5.896 -43.457  0.00  0.00    -0.035 C 
ATOM      8  H8  X8Z d          30.023   7.195 -42.971  0.00  0.00     0.089 H 
ATOM      9  H9  X8Z d          29.975   3.185 -43.897  0.00  0.00     0.064 H 
ATOM     10  H10 X8Z d          30.053   3.581 -42.147  0.00  0.00     0.064 H 
ATOM     11  H11 X8Z d          32.058   3.939 -44.225  0.00  0.00     0.035 H 
ATOM     12  H12 X8Z d          32.213   4.095 -42.442  0.00  0.00     0.035 H 
ATOM     13  H13 X8Z d          32.073   6.342 -42.539  0.00  0.00     0.036 H 
ATOM     14  H14 X8Z d          32.289   6.179 -44.315  0.00  0.00     0.036 H 
ENDROOT
BRANCH   2  15
ATOM     15  C2  X8Z d          27.123   4.062 -43.173  0.00  0.00     0.028 C 
ATOM     16  H1  X8Z d          26.169   4.185 -43.706  0.00  0.00     0.055 H 
BRANCH  15  17
ATOM     17  C1  X8Z d          27.842   2.823 -43.719  0.00  0.00    -0.015 C 
ATOM     18  H2  X8Z d          28.632   2.542 -43.008  0.00  0.00     0.049 H 
ATOM     19  H3  X8Z d          28.295   3.087 -44.686  0.00  0.00     0.049 H 
BRANCH  17  20
ATOM     20  S   X8Z d          26.784   1.396 -43.969  0.00  0.00    -0.181 SA
ATOM     21  H4  X8Z d          25.866   1.704 -44.253  0.00  0.00     0.101 HD
ENDBRANCH  17  20
ENDBRANCH  15  17
BRANCH  15  22
ATOM     22  C3  X8Z d          26.849   3.982 -41.663  0.00  0.00    -0.064 C 
ATOM     23  H5  X8Z d          26.177   3.136 -41.457  0.00  0.00     0.028 H 
ATOM     24  H6  X8Z d          26.376   4.917 -41.326  0.00  0.00     0.028 H 
ATOM     25  H7  X8Z d          27.797   3.837 -41.125  0.00  0.00     0.028 H 
ENDBRANCH  15  22
ENDBRANCH   2  15
BRANCH   4  26
ATOM     26  C9  X8Z d          30.067   6.890 -45.121  0.00  0.00     0.196 C 
ATOM     27  O3  X8Z d          29.579   6.199 -45.992  0.00  0.00    -0.646 OA
ATOM     28  O2  X8Z d          30.454   8.093 -45.362  0.00  0.00    -0.646 OA
ENDBRANCH   4  26
TORSDOF 5
ENDMDL
MODEL 7
REMARK VINA RESULT:      -3.4      2.626      4.432
REMARK  5 active torsions:
REMARK  status: ('A' for Active; 'I' for Inactive)
REMARK    1  A    between atoms: C4_2  and  C2_3 
REMARK       I    between atoms: C4_2  and  N_7 
REMARK    2  A    between atoms: C2_3  and  C1_4 
REMARK    3  A    between atoms: C2_3  and  C3_6 
REMARK    4  A    between atoms: C1_4  and  S_5 
REMARK    5  A    between atoms: C8_8  and  C9_9 
ROOT
ATOM      1  O1  X8Z d          30.732   4.823 -42.006  0.00  0.00    -0.273 OA
ATOM      2  C4  X8Z d          30.032   5.862 -42.220  0.00  0.00     0.225 C 
ATOM      3  N   X8Z d          28.696   5.737 -42.377  0.00  0.00    -0.337 N 
ATOM      4  C8  X8Z d          28.001   4.397 -42.329  0.00  0.00     0.098 C 
ATOM      5  C5  X8Z d          27.681   6.825 -42.638  0.00  0.00    -0.001 C 
ATOM      6  C6  X8Z d          26.369   6.146 -42.788  0.00  0.00    -0.048 C 
ATOM      7  C7  X8Z d          26.531   4.698 -42.426  0.00  0.00    -0.035 C 
ATOM      8  H8  X8Z d          28.223   3.889 -41.379  0.00  0.00     0.089 H 
ATOM      9  H9  X8Z d          27.936   7.368 -43.559  0.00  0.00     0.064 H 
ATOM     10  H10 X8Z d          27.651   7.528 -41.793  0.00  0.00     0.064 H 
ATOM     11  H11 X8Z d          26.025   6.231 -43.829  0.00  0.00     0.035 H 
ATOM     12  H12 X8Z d          25.632   6.614 -42.118  0.00  0.00     0.035 H 
ATOM     13  H13 X8Z d          26.046   4.500 -41.458  0.00  0.00     0.036 H 
ATOM     14  H14 X8Z d          26.073   4.067 -43.202  0.00  0.00     0.036 H 
ENDROOT
BRANCH   2  15
ATOM     15  C2  X8Z d          30.735   7.220 -42.306  0.00  0.00     0.028 C 
ATOM     16  H1  X8Z d          31.819   7.093 -42.173  0.00  0.00     0.055 H 
BRANCH  15  17
ATOM     17  C1  X8Z d          30.471   7.811 -43.696  0.00  0.00    -0.015 C 
ATOM     18  H2  X8Z d          30.823   8.853 -43.699  0.00  0.00     0.049 H 
ATOM     19  H3  X8Z d          29.387   7.789 -43.878  0.00  0.00     0.049 H 
BRANCH  17  20
ATOM     20  S   X8Z d          31.281   6.945 -45.042  0.00  0.00    -0.181 SA
ATOM     21  H4  X8Z d          30.660   6.902 -45.835  0.00  0.00     0.101 HD
ENDBRANCH  17  20
ENDBRANCH  15  17
BRANCH  15  22
ATOM     22  C3  X8Z d          30.186   8.093 -41.166  0.00  0.00    -0.064 C 
ATOM     23  H5  X8Z d          29.989   7.464 -40.286  0.00  0.00     0.028 H 
ATOM     24  H6  X8Z d          29.252   8.575 -41.490  0.00  0.00     0.028 H 
ATOM     25  H7  X8Z d          30.926   8.865 -40.907  0.00  0.00     0.028 H 
ENDBRANCH  15  22
ENDBRANCH   2  15
BRANCH   4  26
ATOM     26  C9  X8Z d          28.456   3.500 -43.503  0.00  0.00     0.196 C 
ATOM     27  O3  X8Z d          28.665   2.311 -43.367  0.00  0.00    -0.646 OA
ATOM     28  O2  X8Z d          28.604   4.077 -44.644  0.00  0.00    -0.646 OA
ENDBRANCH   4  26
TORSDOF 5
ENDMDL
MODEL 8
REMARK VINA RESULT:      -2.6      2.150      2.485
REMARK  5 active torsions:
REMARK  status: ('A' for Active; 'I' for Inactive)
REMARK    1  A    between atoms: C4_2  and  C2_3 
REMARK       I    between atoms: C4_2  and  N_7 
REMARK    2  A    between atoms: C2_3  and  C1_4 
REMARK    3  A    between atoms: C2_3  and  C3_6 
REMARK    4  A    between atoms: C1_4  and  S_5 
REMARK    5  A    between atoms: C8_8  and  C9_9 
ROOT
ATOM      1  O1  X8Z d          28.166   5.769 -41.216  0.00  0.00    -0.273 OA
ATOM      2  C4  X8Z d          28.461   5.161 -42.294  0.00  0.00     0.225 C 
ATOM      3  N   X8Z d          29.741   5.165 -42.725  0.00  0.00    -0.337 N 
ATOM      4  C8  X8Z d          30.839   5.887 -41.981  0.00  0.00     0.098 C 
ATOM      5  C5  X8Z d          30.311   4.516 -43.964  0.00  0.00    -0.001 C 
ATOM      6  C6  X8Z d          31.751   4.874 -43.999  0.00  0.00    -0.048 C 
ATOM      7  C7  X8Z d          32.112   5.554 -42.710  0.00  0.00    -0.035 C 
ATOM      8  H8  X8Z d          30.892   5.530 -40.942  0.00  0.00     0.089 H 
ATOM      9  H9  X8Z d          29.802   4.899 -44.861  0.00  0.00     0.064 H 
ATOM     10  H10 X8Z d          30.192   3.424 -43.912  0.00  0.00     0.064 H 
ATOM     11  H11 X8Z d          31.943   5.554 -44.843  0.00  0.00     0.035 H 
ATOM     12  H12 X8Z d          32.356   3.962 -44.118  0.00  0.00     0.035 H 
ATOM     13  H13 X8Z d          32.728   4.882 -42.094  0.00  0.00     0.036 H 
ATOM     14  H14 X8Z d          32.672   6.477 -42.921  0.00  0.00     0.036 H 
ENDROOT
BRANCH   2  15
ATOM     15  C2  X8Z d          27.346   4.457 -43.072  0.00  0.00     0.028 C 
ATOM     16  H1  X8Z d          27.602   4.412 -44.141  0.00  0.00     0.055 H 
BRANCH  15  17
ATOM     17  C1  X8Z d          27.210   3.028 -42.533  0.00  0.00    -0.015 C 
ATOM     18  H2  X8Z d          26.289   2.973 -41.933  0.00  0.00     0.049 H 
ATOM     19  H3  X8Z d          28.079   2.820 -41.891  0.00  0.00     0.049 H 
BRANCH  17  20
ATOM     20  S   X8Z d          27.130   1.758 -43.796  0.00  0.00    -0.181 SA
ATOM     21  H4  X8Z d          27.460   2.134 -44.671  0.00  0.00     0.101 HD
ENDBRANCH  17  20
ENDBRANCH  15  17
BRANCH  15  22
ATOM     22  C3  X8Z d          26.066   5.291 -42.897  0.00  0.00    -0.064 C 
ATOM     23  H5  X8Z d          26.071   6.124 -43.615  0.00  0.00     0.028 H 
ATOM     24  H6  X8Z d          26.026   5.690 -41.872  0.00  0.00     0.028 H 
ATOM     25  H7  X8Z d          25.187   4.656 -43.077  0.00  0.00     0.028 H 
ENDBRANCH  15  22
ENDBRANCH   2  15
BRANCH   4  26
ATOM     26  C9  X8Z d          30.591   7.414 -41.981  0.00  0.00     0.196 C 
ATOM     27  O3  X8Z d          29.926   7.962 -41.125  0.00  0.00    -0.646 OA
ATOM     28  O2  X8Z d          31.127   8.083 -42.940  0.00  0.00    -0.646 OA
ENDBRANCH   4  26
TORSDOF 5
ENDMDL
MODEL 9
REMARK VINA RESULT:      -2.4      2.578      3.788
REMARK  5 active torsions:
REMARK  status: ('A' for Active; 'I' for Inactive)
REMARK    1  A    between atoms: C4_2  and  C2_3 
REMARK       I    between atoms: C4_2  and  N_7 
REMARK    2  A    between atoms: C2_3  and  C1_4 
REMARK    3  A    between atoms: C2_3  and  C3_6 
REMARK    4  A    between atoms: C1_4  and  S_5 
REMARK    5  A    between atoms: C8_8  and  C9_9 
ROOT
ATOM      1  O1  X8Z d          29.990   6.383 -41.129  0.00  0.00    -0.273 OA
ATOM      2  C4  X8Z d          28.833   6.012 -41.504  0.00  0.00     0.225 C 
ATOM      3  N   X8Z d          28.708   4.885 -42.240  0.00  0.00    -0.337 N 
ATOM      4  C8  X8Z d          29.900   4.058 -42.655  0.00  0.00     0.098 C 
ATOM      5  C5  X8Z d          27.445   4.265 -42.789  0.00  0.00    -0.001 C 
ATOM      6  C6  X8Z d          27.868   3.077 -43.573  0.00  0.00    -0.048 C 
ATOM      7  C7  X8Z d          29.335   2.848 -43.347  0.00  0.00    -0.035 C 
ATOM      8  H8  X8Z d          30.477   3.753 -41.769  0.00  0.00     0.089 H 
ATOM      9  H9  X8Z d          26.921   4.982 -43.438  0.00  0.00     0.064 H 
ATOM     10  H10 X8Z d          26.781   3.961 -41.967  0.00  0.00     0.064 H 
ATOM     11  H11 X8Z d          27.682   3.254 -44.642  0.00  0.00     0.035 H 
ATOM     12  H12 X8Z d          27.301   2.194 -43.241  0.00  0.00     0.035 H 
ATOM     13  H13 X8Z d          29.480   1.957 -42.717  0.00  0.00     0.036 H 
ATOM     14  H14 X8Z d          29.841   2.702 -44.313  0.00  0.00     0.036 H 
ENDROOT
BRANCH   2  15
ATOM     15  C2  X8Z d          27.622   6.866 -41.118  0.00  0.00     0.028 C 
ATOM     16  H1  X8Z d          27.716   7.204 -40.075  0.00  0.00     0.055 H 
BRANCH  15  17
ATOM     17  C1  X8Z d          27.587   8.093 -42.036  0.00  0.00    -0.015 C 
ATOM     18  H2  X8Z d          28.572   8.582 -41.995  0.00  0.00     0.049 H 
ATOM     19  H3  X8Z d          26.819   8.784 -41.657  0.00  0.00     0.049 H 
BRANCH  17  20
ATOM     20  S   X8Z d          27.214   7.730 -43.752  0.00  0.00    -0.181 SA
ATOM     21  H4  X8Z d          27.524   6.796 -43.973  0.00  0.00     0.101 HD
ENDBRANCH  17  20
ENDBRANCH  15  17
BRANCH  15  22
ATOM     22  C3  X8Z d          26.374   5.979 -41.249  0.00  0.00    -0.064 C 
ATOM     23  H5  X8Z d          26.189   5.464 -40.295  0.00  0.00     0.028 H 
ATOM     24  H6  X8Z d          26.535   5.235 -42.042  0.00  0.00     0.028 H 
ATOM     25  H7  X8Z d          25.505   6.604 -41.503  0.00  0.00     0.028 H 
ENDBRANCH  15  22
ENDBRANCH   2  15
BRANCH   4  26
ATOM     26  C9  X8Z d          30.819   4.856 -43.609  0.00  0.00     0.196 C 
ATOM     27  O3  X8Z d          32.030   4.824 -43.520  0.00  0.00    -0.646 OA
ATOM     28  O2  X8Z d          30.234   5.563 -44.512  0.00  0.00    -0.646 OA
ENDBRANCH   4  26
TORSDOF 5
ENDMDL
