MODEL 1
REMARK VINA RESULT:      -7.3      0.000      0.000
REMARK  2 active torsions:
REMARK  status: ('A' for Active; 'I' for Inactive)
REMARK    1  A    between atoms: C6_6  and  S11_10 
REMARK    2  A    between atoms: C7_14  and  N15_15 
ROOT
ATOM      1  C1  MOL d         -20.529  -2.164 -24.645  0.00  0.00    -0.059 A 
ATOM      2  C2  MOL d         -20.201  -2.120 -26.000  0.00  0.00    -0.081 A 
ATOM      3  C3  MOL d         -20.661  -1.064 -26.784  0.00  0.00    -0.070 A 
ATOM      4  C4  MOL d         -21.443  -0.046 -26.218  0.00  0.00     0.002 A 
ATOM      5  C5  MOL d         -21.774  -0.088 -24.846  0.00  0.00     0.001 A 
ATOM      6  C6  MOL d         -21.305  -1.157 -24.053  0.00  0.00     0.091 A 
ATOM      7  C9  MOL d         -23.001   1.997 -25.107  0.00  0.00    -0.080 A 
ATOM      8  C10 MOL d         -22.556   0.945 -24.307  0.00  0.00    -0.070 A 
ATOM      9  C8  MOL d         -22.674   2.027 -26.463  0.00  0.00    -0.057 A 
ATOM     10  C7  MOL d         -21.897   1.012 -27.024  0.00  0.00     0.036 A 
ATOM     11  H1  MOL d         -20.177  -2.991 -24.039  0.00  0.00     0.086 H 
ATOM     12  H2  MOL d         -19.594  -2.902 -26.441  0.00  0.00     0.083 H 
ATOM     13  H3  MOL d         -20.412  -1.028 -27.838  0.00  0.00     0.084 H 
ATOM     14  H4  MOL d         -23.601   2.791 -24.675  0.00  0.00     0.083 H 
ATOM     15  H5  MOL d         -22.818   0.925 -23.255  0.00  0.00     0.084 H 
ATOM     16  H6  MOL d         -23.026   2.843 -27.084  0.00  0.00     0.086 H 
ENDROOT
BRANCH   6  17
ATOM     17  S11 MOL d         -21.630  -1.299 -22.474  0.00  0.00     0.138 S 
ATOM     18  O14 MOL d         -20.884  -0.248 -21.743  0.00  0.00    -0.591 OA
ATOM     19  O12 MOL d         -21.227  -2.661 -22.030  0.00  0.00    -0.591 OA
ATOM     20  O13 MOL d         -23.076  -1.139 -22.169  0.00  0.00    -0.591 OA
ENDBRANCH   6  17
BRANCH  10  21
ATOM     21  N15 MOL d         -21.602   1.079 -28.356  0.00  0.00    -0.398 N 
ATOM     22  H7  MOL d         -22.352   0.983 -29.055  0.00  0.00     0.156 HD
ATOM     23  H8  MOL d         -20.629   1.225 -28.661  0.00  0.00     0.156 HD
ENDBRANCH  10  21
TORSDOF 2
ENDMDL
MODEL 2
REMARK VINA RESULT:      -7.2      1.389      3.425
REMARK  2 active torsions:
REMARK  status: ('A' for Active; 'I' for Inactive)
REMARK    1  A    between atoms: C6_6  and  S11_10 
REMARK    2  A    between atoms: C7_14  and  N15_15 
ROOT
ATOM      1  C1  MOL d         -22.440   2.076 -24.639  0.00  0.00    -0.059 A 
ATOM      2  C2  MOL d         -22.763   2.032 -25.995  0.00  0.00    -0.081 A 
ATOM      3  C3  MOL d         -22.291   0.982 -26.779  0.00  0.00    -0.070 A 
ATOM      4  C4  MOL d         -21.501  -0.030 -26.214  0.00  0.00     0.002 A 
ATOM      5  C5  MOL d         -21.174   0.013 -24.841  0.00  0.00     0.001 A 
ATOM      6  C6  MOL d         -21.655   1.075 -24.047  0.00  0.00     0.091 A 
ATOM      7  C9  MOL d         -19.926  -2.060 -25.102  0.00  0.00    -0.080 A 
ATOM      8  C10 MOL d         -20.384  -1.014 -24.301  0.00  0.00    -0.070 A 
ATOM      9  C8  MOL d         -20.249  -2.090 -26.459  0.00  0.00    -0.057 A 
ATOM     10  C7  MOL d         -21.034  -1.081 -27.021  0.00  0.00     0.036 A 
ATOM     11  H1  MOL d         -22.801   2.899 -24.033  0.00  0.00     0.086 H 
ATOM     12  H2  MOL d         -23.376   2.809 -26.436  0.00  0.00     0.083 H 
ATOM     13  H3  MOL d         -22.536   0.946 -27.834  0.00  0.00     0.084 H 
ATOM     14  H4  MOL d         -19.321  -2.849 -24.670  0.00  0.00     0.083 H 
ATOM     15  H5  MOL d         -20.125  -0.994 -23.249  0.00  0.00     0.084 H 
ATOM     16  H6  MOL d         -19.888  -2.902 -27.081  0.00  0.00     0.086 H 
ENDROOT
BRANCH   6  17
ATOM     17  S11 MOL d         -21.337   1.218 -22.466  0.00  0.00     0.138 S 
ATOM     18  O14 MOL d         -22.063   0.150 -21.742  0.00  0.00    -0.591 OA
ATOM     19  O12 MOL d         -21.767   2.570 -22.018  0.00  0.00    -0.591 OA
ATOM     20  O13 MOL d         -19.889   1.085 -22.159  0.00  0.00    -0.591 OA
ENDBRANCH   6  17
BRANCH  10  21
ATOM     21  N15 MOL d         -21.325  -1.148 -28.353  0.00  0.00    -0.398 N 
ATOM     22  H7  MOL d         -20.762  -0.616 -29.031  0.00  0.00     0.156 HD
ATOM     23  H8  MOL d         -22.109  -1.731 -28.680  0.00  0.00     0.156 HD
ENDBRANCH  10  21
TORSDOF 2
ENDMDL
MODEL 3
REMARK VINA RESULT:      -7.1      3.885      5.043
REMARK  2 active torsions:
REMARK  status: ('A' for Active; 'I' for Inactive)
REMARK    1  A    between atoms: C6_6  and  S11_10 
REMARK    2  A    between atoms: C7_14  and  N15_15 
ROOT
ATOM      1  C1  MOL d         -22.592   1.625 -27.067  0.00  0.00    -0.059 A 
ATOM      2  C2  MOL d         -22.941   2.338 -25.920  0.00  0.00    -0.081 A 
ATOM      3  C3  MOL d         -22.558   1.857 -24.671  0.00  0.00    -0.070 A 
ATOM      4  C4  MOL d         -21.823   0.667 -24.560  0.00  0.00     0.002 A 
ATOM      5  C5  MOL d         -21.468  -0.055 -25.720  0.00  0.00     0.001 A 
ATOM      6  C6  MOL d         -21.853   0.435 -26.986  0.00  0.00     0.091 A 
ATOM      7  C9  MOL d         -20.352  -1.702 -24.319  0.00  0.00    -0.080 A 
ATOM      8  C10 MOL d         -20.730  -1.241 -25.579  0.00  0.00    -0.070 A 
ATOM      9  C8  MOL d         -20.712  -0.985 -23.178  0.00  0.00    -0.057 A 
ATOM     10  C7  MOL d         -21.446   0.198 -23.290  0.00  0.00     0.036 A 
ATOM     11  H1  MOL d         -22.898   1.997 -28.039  0.00  0.00     0.086 H 
ATOM     12  H2  MOL d         -23.505   3.259 -26.001  0.00  0.00     0.083 H 
ATOM     13  H3  MOL d         -22.830   2.406 -23.777  0.00  0.00     0.084 H 
ATOM     14  H4  MOL d         -19.777  -2.617 -24.226  0.00  0.00     0.083 H 
ATOM     15  H5  MOL d         -20.451  -1.805 -26.462  0.00  0.00     0.084 H 
ATOM     16  H6  MOL d         -20.421  -1.348 -22.199  0.00  0.00     0.086 H 
ENDROOT
BRANCH   6  17
ATOM     17  S11 MOL d         -21.499  -0.317 -28.374  0.00  0.00     0.138 S 
ATOM     18  O14 MOL d         -20.026  -0.349 -28.530  0.00  0.00    -0.591 OA
ATOM     19  O12 MOL d         -22.149   0.421 -29.490  0.00  0.00    -0.591 OA
ATOM     20  O13 MOL d         -22.000  -1.716 -28.412  0.00  0.00    -0.591 OA
ENDBRANCH   6  17
BRANCH  10  21
ATOM     21  N15 MOL d         -21.779   0.868 -22.148  0.00  0.00    -0.398 N 
ATOM     22  H7  MOL d         -22.502   0.488 -21.520  0.00  0.00     0.156 HD
ATOM     23  H8  MOL d         -21.309   1.754 -21.915  0.00  0.00     0.156 HD
ENDBRANCH  10  21
TORSDOF 2
ENDMDL
MODEL 4
REMARK VINA RESULT:      -7.1      3.957      4.447
REMARK  2 active torsions:
REMARK  status: ('A' for Active; 'I' for Inactive)
REMARK    1  A    between atoms: C6_6  and  S11_10 
REMARK    2  A    between atoms: C7_14  and  N15_15 
ROOT
ATOM      1  C1  MOL d         -20.304  -1.649 -27.014  0.00  0.00    -0.059 A 
ATOM      2  C2  MOL d         -19.989  -2.381 -25.870  0.00  0.00    -0.081 A 
ATOM      3  C3  MOL d         -20.410  -1.923 -24.624  0.00  0.00    -0.070 A 
ATOM      4  C4  MOL d         -21.151  -0.736 -24.515  0.00  0.00     0.002 A 
ATOM      5  C5  MOL d         -21.472   0.005 -25.673  0.00  0.00     0.001 A 
ATOM      6  C6  MOL d         -21.047  -0.462 -26.935  0.00  0.00     0.091 A 
ATOM      7  C9  MOL d         -22.634   1.626 -24.279  0.00  0.00    -0.080 A 
ATOM      8  C10 MOL d         -22.216   1.187 -25.535  0.00  0.00    -0.070 A 
ATOM      9  C8  MOL d         -22.307   0.890 -23.140  0.00  0.00    -0.057 A 
ATOM     10  C7  MOL d         -21.568  -0.290 -23.250  0.00  0.00     0.036 A 
ATOM     11  H1  MOL d         -19.968  -2.004 -27.982  0.00  0.00     0.086 H 
ATOM     12  H2  MOL d         -19.420  -3.301 -25.949  0.00  0.00     0.083 H 
ATOM     13  H3  MOL d         -20.165  -2.486 -23.732  0.00  0.00     0.084 H 
ATOM     14  H4  MOL d         -23.213   2.539 -24.188  0.00  0.00     0.083 H 
ATOM     15  H5  MOL d         -22.469   1.767 -26.415  0.00  0.00     0.084 H 
ATOM     16  H6  MOL d         -22.629   1.236 -22.164  0.00  0.00     0.086 H 
ENDROOT
BRANCH   6  17
ATOM     17  S11 MOL d         -21.361   0.313 -28.321  0.00  0.00     0.138 S 
ATOM     18  O14 MOL d         -20.887  -0.525 -29.446  0.00  0.00    -0.591 OA
ATOM     19  O12 MOL d         -20.668   1.630 -28.292  0.00  0.00    -0.591 OA
ATOM     20  O13 MOL d         -22.811   0.575 -28.515  0.00  0.00    -0.591 OA
ENDBRANCH   6  17
BRANCH  10  21
ATOM     21  N15 MOL d         -21.268  -0.979 -22.110  0.00  0.00    -0.398 N 
ATOM     22  H7  MOL d         -20.521  -0.642 -21.486  0.00  0.00     0.156 HD
ATOM     23  H8  MOL d         -21.788  -1.836 -21.874  0.00  0.00     0.156 HD
ENDBRANCH  10  21
TORSDOF 2
ENDMDL
MODEL 5
REMARK VINA RESULT:      -6.6      1.193      1.863
REMARK  2 active torsions:
REMARK  status: ('A' for Active; 'I' for Inactive)
REMARK    1  A    between atoms: C6_6  and  S11_10 
REMARK    2  A    between atoms: C7_14  and  N15_15 
ROOT
ATOM      1  C1  MOL d         -20.405  -1.654 -24.260  0.00  0.00    -0.059 A 
ATOM      2  C2  MOL d         -20.005  -2.304 -25.427  0.00  0.00    -0.081 A 
ATOM      3  C3  MOL d         -20.351  -1.767 -26.665  0.00  0.00    -0.070 A 
ATOM      4  C4  MOL d         -21.093  -0.579 -26.743  0.00  0.00     0.002 A 
ATOM      5  C5  MOL d         -21.498   0.081 -25.562  0.00  0.00     0.001 A 
ATOM      6  C6  MOL d         -21.143  -0.462 -24.309  0.00  0.00     0.091 A 
ATOM      7  C9  MOL d         -22.568   1.794 -26.920  0.00  0.00    -0.080 A 
ATOM      8  C10 MOL d         -22.237   1.269 -25.671  0.00  0.00    -0.070 A 
ATOM      9  C8  MOL d         -22.169   1.131 -28.081  0.00  0.00    -0.057 A 
ATOM     10  C7  MOL d         -21.432  -0.053 -28.001  0.00  0.00     0.036 A 
ATOM     11  H1  MOL d         -20.142  -2.078 -23.298  0.00  0.00     0.086 H 
ATOM     12  H2  MOL d         -19.429  -3.220 -25.372  0.00  0.00     0.083 H 
ATOM     13  H3  MOL d         -20.046  -2.271 -27.574  0.00  0.00     0.084 H 
ATOM     14  H4  MOL d         -23.135   2.716 -26.988  0.00  0.00     0.083 H 
ATOM     15  H5  MOL d         -22.554   1.786 -24.772  0.00  0.00     0.084 H 
ATOM     16  H6  MOL d         -22.432   1.538 -29.051  0.00  0.00     0.086 H 
ENDROOT
BRANCH   6  17
ATOM     17  S11 MOL d         -21.559   0.214 -22.899  0.00  0.00     0.138 S 
ATOM     18  O14 MOL d         -23.015   0.027 -22.698  0.00  0.00    -0.591 OA
ATOM     19  O12 MOL d         -21.196   1.656 -22.941  0.00  0.00    -0.591 OA
ATOM     20  O13 MOL d         -20.849  -0.392 -21.742  0.00  0.00    -0.591 OA
ENDBRANCH   6  17
BRANCH  10  21
ATOM     21  N15 MOL d         -21.063  -0.670 -29.162  0.00  0.00    -0.398 N 
ATOM     22  H7  MOL d         -20.753  -0.108 -29.967  0.00  0.00     0.156 HD
ATOM     23  H8  MOL d         -21.096  -1.696 -29.233  0.00  0.00     0.156 HD
ENDBRANCH  10  21
TORSDOF 2
ENDMDL
MODEL 6
REMARK VINA RESULT:      -6.4      3.720      4.869
REMARK  2 active torsions:
REMARK  status: ('A' for Active; 'I' for Inactive)
REMARK    1  A    between atoms: C6_6  and  S11_10 
REMARK    2  A    between atoms: C7_14  and  N15_15 
ROOT
ATOM      1  C1  MOL d         -22.640   1.443 -27.068  0.00  0.00    -0.059 A 
ATOM      2  C2  MOL d         -23.033   2.367 -26.101  0.00  0.00    -0.081 A 
ATOM      3  C3  MOL d         -22.562   2.238 -24.797  0.00  0.00    -0.070 A 
ATOM      4  C4  MOL d         -21.694   1.191 -24.453  0.00  0.00     0.002 A 
ATOM      5  C5  MOL d         -21.294   0.255 -25.432  0.00  0.00     0.001 A 
ATOM      6  C6  MOL d         -21.769   0.389 -26.753  0.00  0.00     0.091 A 
ATOM      7  C9  MOL d         -19.957  -0.889 -23.751  0.00  0.00    -0.080 A 
ATOM      8  C10 MOL d         -20.422  -0.781 -25.061  0.00  0.00    -0.070 A 
ATOM      9  C8  MOL d         -20.363   0.037 -22.789  0.00  0.00    -0.057 A 
ATOM     10  C7  MOL d         -21.229   1.078 -23.132  0.00  0.00     0.036 A 
ATOM     11  H1  MOL d         -23.014   1.540 -28.081  0.00  0.00     0.086 H 
ATOM     12  H2  MOL d         -23.701   3.180 -26.362  0.00  0.00     0.083 H 
ATOM     13  H3  MOL d         -22.868   2.952 -24.041  0.00  0.00     0.084 H 
ATOM     14  H4  MOL d         -19.280  -1.692 -23.480  0.00  0.00     0.083 H 
ATOM     15  H5  MOL d         -20.107  -1.506 -25.802  0.00  0.00     0.084 H 
ATOM     16  H6  MOL d         -20.004  -0.052 -21.770  0.00  0.00     0.086 H 
ENDROOT
BRANCH   6  17
ATOM     17  S11 MOL d         -21.373  -0.630 -27.947  0.00  0.00     0.138 S 
ATOM     18  O14 MOL d         -22.568  -0.851 -28.793  0.00  0.00    -0.591 OA
ATOM     19  O12 MOL d         -20.890  -1.901 -27.343  0.00  0.00    -0.591 OA
ATOM     20  O13 MOL d         -20.284  -0.104 -28.811  0.00  0.00    -0.591 OA
ENDBRANCH   6  17
BRANCH  10  21
ATOM     21  N15 MOL d         -21.602   1.961 -22.160  0.00  0.00    -0.398 N 
ATOM     22  H7  MOL d         -22.540   1.898 -21.740  0.00  0.00     0.156 HD
ATOM     23  H8  MOL d         -20.946   2.691 -21.848  0.00  0.00     0.156 HD
ENDBRANCH  10  21
TORSDOF 2
ENDMDL
MODEL 7
REMARK VINA RESULT:      -6.4      2.553      3.383
REMARK  2 active torsions:
REMARK  status: ('A' for Active; 'I' for Inactive)
REMARK    1  A    between atoms: C6_6  and  S11_10 
REMARK    2  A    between atoms: C7_14  and  N15_15 
ROOT
ATOM      1  C1  MOL d         -21.081  -0.399 -22.464  0.00  0.00    -0.059 A 
ATOM      2  C2  MOL d         -20.815  -1.746 -22.707  0.00  0.00    -0.081 A 
ATOM      3  C3  MOL d         -20.599  -2.178 -24.013  0.00  0.00    -0.070 A 
ATOM      4  C4  MOL d         -20.643  -1.268 -25.081  0.00  0.00     0.002 A 
ATOM      5  C5  MOL d         -20.912   0.096 -24.836  0.00  0.00     0.001 A 
ATOM      6  C6  MOL d         -21.127   0.533 -23.512  0.00  0.00     0.091 A 
ATOM      7  C9  MOL d         -20.723   0.532 -27.223  0.00  0.00    -0.080 A 
ATOM      8  C10 MOL d         -20.948   0.983 -25.923  0.00  0.00    -0.070 A 
ATOM      9  C8  MOL d         -20.465  -0.819 -27.455  0.00  0.00    -0.057 A 
ATOM     10  C7  MOL d         -20.423  -1.724 -26.392  0.00  0.00     0.036 A 
ATOM     11  H1  MOL d         -21.257  -0.065 -21.447  0.00  0.00     0.086 H 
ATOM     12  H2  MOL d         -20.776  -2.451 -21.885  0.00  0.00     0.083 H 
ATOM     13  H3  MOL d         -20.396  -3.224 -24.207  0.00  0.00     0.084 H 
ATOM     14  H4  MOL d         -20.749   1.230 -28.052  0.00  0.00     0.083 H 
ATOM     15  H5  MOL d         -21.153   2.034 -25.750  0.00  0.00     0.084 H 
ATOM     16  H6  MOL d         -20.295  -1.169 -28.467  0.00  0.00     0.086 H 
ENDROOT
BRANCH   6  17
ATOM     17  S11 MOL d         -21.443   2.073 -23.125  0.00  0.00     0.138 S 
ATOM     18  O14 MOL d         -22.395   2.621 -24.119  0.00  0.00    -0.591 OA
ATOM     19  O12 MOL d         -20.164   2.831 -23.121  0.00  0.00    -0.591 OA
ATOM     20  O13 MOL d         -22.050   2.211 -21.776  0.00  0.00    -0.591 OA
ENDBRANCH   6  17
BRANCH  10  21
ATOM     21  N15 MOL d         -20.169  -3.037 -26.664  0.00  0.00    -0.398 N 
ATOM     22  H7  MOL d         -19.880  -3.673 -25.907  0.00  0.00     0.156 HD
ATOM     23  H8  MOL d         -20.264  -3.392 -27.626  0.00  0.00     0.156 HD
ENDBRANCH  10  21
TORSDOF 2
ENDMDL
MODEL 8
REMARK VINA RESULT:      -4.5      2.316      2.951
REMARK  2 active torsions:
REMARK  status: ('A' for Active; 'I' for Inactive)
REMARK    1  A    between atoms: C6_6  and  S11_10 
REMARK    2  A    between atoms: C7_14  and  N15_15 
ROOT
ATOM      1  C1  MOL d         -22.493  -0.364 -23.285  0.00  0.00    -0.059 A 
ATOM      2  C2  MOL d         -23.239  -1.347 -23.936  0.00  0.00    -0.081 A 
ATOM      3  C3  MOL d         -23.161  -1.462 -25.322  0.00  0.00    -0.070 A 
ATOM      4  C4  MOL d         -22.336  -0.603 -26.063  0.00  0.00     0.002 A 
ATOM      5  C5  MOL d         -21.580   0.392 -25.405  0.00  0.00     0.001 A 
ATOM      6  C6  MOL d         -21.656   0.505 -24.001  0.00  0.00     0.091 A 
ATOM      7  C9  MOL d         -20.692   1.100 -27.558  0.00  0.00    -0.080 A 
ATOM      8  C10 MOL d         -20.761   1.236 -26.172  0.00  0.00    -0.070 A 
ATOM      9  C8  MOL d         -21.448   0.118 -28.199  0.00  0.00    -0.057 A 
ATOM     10  C7  MOL d         -22.271  -0.735 -27.460  0.00  0.00     0.036 A 
ATOM     11  H1  MOL d         -22.561  -0.271 -22.207  0.00  0.00     0.086 H 
ATOM     12  H2  MOL d         -23.874  -2.016 -23.368  0.00  0.00     0.083 H 
ATOM     13  H3  MOL d         -23.742  -2.222 -25.831  0.00  0.00     0.084 H 
ATOM     14  H4  MOL d         -20.052   1.756 -28.136  0.00  0.00     0.083 H 
ATOM     15  H5  MOL d         -20.175   2.004 -25.680  0.00  0.00     0.084 H 
ATOM     16  H6  MOL d         -21.398   0.018 -29.278  0.00  0.00     0.086 H 
ENDROOT
BRANCH   6  17
ATOM     17  S11 MOL d         -20.832   1.611 -23.153  0.00  0.00     0.138 S 
ATOM     18  O14 MOL d         -19.515   1.813 -23.799  0.00  0.00    -0.591 OA
ATOM     19  O12 MOL d         -20.685   1.121 -21.756  0.00  0.00    -0.591 OA
ATOM     20  O13 MOL d         -21.527   2.923 -23.096  0.00  0.00    -0.591 OA
ENDBRANCH   6  17
BRANCH  10  21
ATOM     21  N15 MOL d         -22.995  -1.681 -28.128  0.00  0.00    -0.398 N 
ATOM     22  H7  MOL d         -23.980  -1.845 -27.878  0.00  0.00     0.156 HD
ATOM     23  H8  MOL d         -22.556  -2.230 -28.880  0.00  0.00     0.156 HD
ENDBRANCH  10  21
TORSDOF 2
ENDMDL
