MODEL 1
REMARK VINA RESULT:      -8.0      0.000      0.000
REMARK  3 active torsions:
REMARK  status: ('A' for Active; 'I' for Inactive)
REMARK    1  A    between atoms: C1'_19  and  C2_1 
REMARK    2  A    between atoms: C6_5  and  O5_12 
REMARK    3  A    between atoms: C8_7  and  O7_13 
ROOT
ATOM      1  C2  MOL d          21.458  -0.279  -5.878  0.00  0.00     0.090 A 
ATOM      2  C3  MOL d          21.841  -1.442  -6.536  0.00  0.00    -0.000 A 
ATOM      3  C4  MOL d          21.862  -1.474  -7.919  0.00  0.00     0.190 A 
ATOM      4  C5  MOL d          21.496  -0.334  -8.615  0.00  0.00     0.081 A 
ATOM      5  C6  MOL d          21.509  -0.338 -10.005  0.00  0.00     0.085 A 
ATOM      6  C7  MOL d          21.142   0.803 -10.708  0.00  0.00    -0.018 A 
ATOM      7  C8  MOL d          20.766   1.948 -10.017  0.00  0.00     0.071 A 
ATOM      8  C9  MOL d          20.755   1.949  -8.627  0.00  0.00    -0.017 A 
ATOM      9  C10 MOL d          21.119   0.810  -7.919  0.00  0.00     0.095 A 
ATOM     10  O1  MOL d          21.095   0.853  -6.553  0.00  0.00    -0.309 OA
ATOM     11  O4  MOL d          22.198  -2.494  -8.518  0.00  0.00    -0.287 OA
ATOM     12  H1  MOL d          22.124  -2.325  -5.964  0.00  0.00     0.094 H 
ATOM     13  H2  MOL d          21.150   0.800 -11.792  0.00  0.00     0.092 H 
ATOM     14  H3  MOL d          20.460   2.844  -8.092  0.00  0.00     0.092 H 
ENDROOT
BRANCH   1  15
ATOM     15  C1' MOL d          21.444  -0.266  -4.488  0.00  0.00    -0.002 A 
ATOM     16  C2' MOL d          22.314  -1.084  -3.776  0.00  0.00    -0.070 A 
ATOM     17  C3' MOL d          22.299  -1.070  -2.387  0.00  0.00    -0.082 A 
ATOM     18  H6  MOL d          23.003  -1.732  -4.306  0.00  0.00     0.084 H 
ATOM     19  C4' MOL d          21.415  -0.240  -1.708  0.00  0.00    -0.083 A 
ATOM     20  H7  MOL d          22.978  -1.708  -1.832  0.00  0.00     0.083 H 
ATOM     21  C5' MOL d          20.545   0.578  -2.420  0.00  0.00    -0.082 A 
ATOM     22  H8  MOL d          21.403  -0.230  -0.624  0.00  0.00     0.083 H 
ATOM     23  C6' MOL d          20.559   0.565  -3.810  0.00  0.00    -0.070 A 
ATOM     24  H9  MOL d          19.855   1.226  -1.892  0.00  0.00     0.083 H 
ATOM     25  H10 MOL d          19.881   1.202  -4.365  0.00  0.00     0.084 H 
ENDBRANCH   1  15
BRANCH   5  26
ATOM     26  O5  MOL d          21.877  -1.462 -10.678  0.00  0.00    -0.360 OA
ATOM     27  H4  MOL d          22.014  -2.169 -10.059  0.00  0.00     0.217 HD
ENDBRANCH   5  26
BRANCH   7  28
ATOM     28  O7  MOL d          20.407   3.068 -10.701  0.00  0.00    -0.361 OA
ATOM     29  H5  MOL d          21.118   3.699 -10.669  0.00  0.00     0.217 HD
ENDBRANCH   7  28
TORSDOF 3
ENDMDL
MODEL 2
REMARK VINA RESULT:      -7.8      1.128      2.943
REMARK  3 active torsions:
REMARK  status: ('A' for Active; 'I' for Inactive)
REMARK    1  A    between atoms: C1'_19  and  C2_1 
REMARK    2  A    between atoms: C6_5  and  O5_12 
REMARK    3  A    between atoms: C8_7  and  O7_13 
ROOT
ATOM      1  C2  MOL d          21.068   0.264  -5.842  0.00  0.00     0.090 A 
ATOM      2  C3  MOL d          20.673   1.443  -6.462  0.00  0.00    -0.000 A 
ATOM      3  C4  MOL d          20.643   1.516  -7.844  0.00  0.00     0.190 A 
ATOM      4  C5  MOL d          21.010   0.400  -8.576  0.00  0.00     0.081 A 
ATOM      5  C6  MOL d          20.989   0.445  -9.965  0.00  0.00     0.085 A 
ATOM      6  C7  MOL d          21.357  -0.672 -10.704  0.00  0.00    -0.018 A 
ATOM      7  C8  MOL d          21.746  -1.835 -10.050  0.00  0.00     0.071 A 
ATOM      8  C9  MOL d          21.767  -1.877  -8.661  0.00  0.00    -0.017 A 
ATOM      9  C10 MOL d          21.400  -0.762  -7.916  0.00  0.00     0.095 A 
ATOM     10  O1  MOL d          21.434  -0.846  -6.553  0.00  0.00    -0.309 OA
ATOM     11  O4  MOL d          20.296   2.551  -8.410  0.00  0.00    -0.287 OA
ATOM     12  H1  MOL d          20.389   2.307  -5.863  0.00  0.00     0.094 H 
ATOM     13  H2  MOL d          21.342  -0.637 -11.787  0.00  0.00     0.092 H 
ATOM     14  H3  MOL d          22.071  -2.786  -8.155  0.00  0.00     0.092 H 
ENDROOT
BRANCH   1  15
ATOM     15  C1' MOL d          21.092   0.209  -4.453  0.00  0.00    -0.002 A 
ATOM     16  C2' MOL d          20.262   1.041  -3.711  0.00  0.00    -0.070 A 
ATOM     17  C3' MOL d          20.286   0.986  -2.322  0.00  0.00    -0.082 A 
ATOM     18  H6  MOL d          19.595   1.731  -4.215  0.00  0.00     0.084 H 
ATOM     19  C4' MOL d          21.141   0.101  -1.675  0.00  0.00    -0.083 A 
ATOM     20  H7  MOL d          19.638   1.634  -1.743  0.00  0.00     0.083 H 
ATOM     21  C5' MOL d          21.972  -0.730  -2.419  0.00  0.00    -0.082 A 
ATOM     22  H8  MOL d          21.161   0.059  -0.593  0.00  0.00     0.083 H 
ATOM     23  C6' MOL d          21.947  -0.676  -3.807  0.00  0.00    -0.070 A 
ATOM     24  H9  MOL d          22.638  -1.421  -1.915  0.00  0.00     0.083 H 
ATOM     25  H10 MOL d          22.595  -1.324  -4.386  0.00  0.00     0.084 H 
ENDBRANCH   1  15
BRANCH   5  26
ATOM     26  O5  MOL d          20.608   1.585 -10.601  0.00  0.00    -0.360 OA
ATOM     27  H4  MOL d          19.969   1.374 -11.272  0.00  0.00     0.217 HD
ENDBRANCH   5  26
BRANCH   7  28
ATOM     28  O7  MOL d          22.107  -2.932 -10.770  0.00  0.00    -0.361 OA
ATOM     29  H5  MOL d          22.201  -3.676 -10.186  0.00  0.00     0.217 HD
ENDBRANCH   7  28
TORSDOF 3
ENDMDL
MODEL 3
REMARK VINA RESULT:      -7.7      2.520      6.887
REMARK  3 active torsions:
REMARK  status: ('A' for Active; 'I' for Inactive)
REMARK    1  A    between atoms: C1'_19  and  C2_1 
REMARK    2  A    between atoms: C6_5  and  O5_12 
REMARK    3  A    between atoms: C8_7  and  O7_13 
ROOT
ATOM      1  C2  MOL d          21.185  -0.123  -5.727  0.00  0.00     0.090 A 
ATOM      2  C3  MOL d          20.398   0.844  -5.113  0.00  0.00    -0.000 A 
ATOM      3  C4  MOL d          20.354   0.918  -3.731  0.00  0.00     0.190 A 
ATOM      4  C5  MOL d          21.104   0.017  -2.994  0.00  0.00     0.081 A 
ATOM      5  C6  MOL d          21.078   0.069  -1.605  0.00  0.00     0.085 A 
ATOM      6  C7  MOL d          21.828  -0.834  -0.861  0.00  0.00    -0.018 A 
ATOM      7  C8  MOL d          22.604  -1.787  -1.510  0.00  0.00     0.071 A 
ATOM      8  C9  MOL d          22.628  -1.836  -2.898  0.00  0.00    -0.017 A 
ATOM      9  C10 MOL d          21.879  -0.936  -3.648  0.00  0.00     0.095 A 
ATOM     10  O1  MOL d          21.930  -1.018  -5.011  0.00  0.00    -0.309 OA
ATOM     11  O4  MOL d          19.663   1.766  -3.170  0.00  0.00    -0.287 OA
ATOM     12  H1  MOL d          19.818   1.541  -5.716  0.00  0.00     0.094 H 
ATOM     13  H2  MOL d          21.807  -0.795   0.222  0.00  0.00     0.092 H 
ATOM     14  H3  MOL d          23.234  -2.581  -3.400  0.00  0.00     0.092 H 
ENDROOT
BRANCH   1  15
ATOM     15  C1' MOL d          21.217  -0.181  -7.116  0.00  0.00    -0.002 A 
ATOM     16  C2' MOL d          22.171  -0.963  -7.756  0.00  0.00    -0.070 A 
ATOM     17  C3' MOL d          22.203  -1.022  -9.145  0.00  0.00    -0.082 A 
ATOM     18  H6  MOL d          22.890  -1.528  -7.173  0.00  0.00     0.084 H 
ATOM     19  C4' MOL d          21.282  -0.298  -9.893  0.00  0.00    -0.083 A 
ATOM     20  H7  MOL d          22.946  -1.632  -9.644  0.00  0.00     0.083 H 
ATOM     21  C5' MOL d          20.328   0.485  -9.251  0.00  0.00    -0.082 A 
ATOM     22  H8  MOL d          21.307  -0.343 -10.975  0.00  0.00     0.083 H 
ATOM     23  C6' MOL d          20.296   0.543  -7.863  0.00  0.00    -0.070 A 
ATOM     24  H9  MOL d          19.610   1.049  -9.834  0.00  0.00     0.083 H 
ATOM     25  H10 MOL d          19.553   1.153  -7.364  0.00  0.00     0.084 H 
ENDBRANCH   1  15
BRANCH   5  26
ATOM     26  O5  MOL d          20.317   1.002  -0.974  0.00  0.00    -0.360 OA
ATOM     27  H4  MOL d          19.797   0.582  -0.299  0.00  0.00     0.217 HD
ENDBRANCH   5  26
BRANCH   7  28
ATOM     28  O7  MOL d          23.341  -2.672  -0.785  0.00  0.00    -0.361 OA
ATOM     29  H5  MOL d          22.760  -3.199  -0.247  0.00  0.00     0.217 HD
ENDBRANCH   7  28
TORSDOF 3
ENDMDL
MODEL 4
REMARK VINA RESULT:      -7.5      2.558      6.481
REMARK  3 active torsions:
REMARK  status: ('A' for Active; 'I' for Inactive)
REMARK    1  A    between atoms: C1'_19  and  C2_1 
REMARK    2  A    between atoms: C6_5  and  O5_12 
REMARK    3  A    between atoms: C8_7  and  O7_13 
ROOT
ATOM      1  C2  MOL d          21.282  -0.043  -5.673  0.00  0.00     0.090 A 
ATOM      2  C3  MOL d          21.984  -1.096  -5.098  0.00  0.00    -0.000 A 
ATOM      3  C4  MOL d          22.068  -1.195  -3.720  0.00  0.00     0.190 A 
ATOM      4  C5  MOL d          21.443  -0.232  -2.946  0.00  0.00     0.081 A 
ATOM      5  C6  MOL d          21.511  -0.307  -1.560  0.00  0.00     0.085 A 
ATOM      6  C7  MOL d          20.886   0.658  -0.779  0.00  0.00    -0.018 A 
ATOM      7  C8  MOL d          20.192   1.696  -1.388  0.00  0.00     0.071 A 
ATOM      8  C9  MOL d          20.126   1.768  -2.775  0.00  0.00    -0.017 A 
ATOM      9  C10 MOL d          20.750   0.807  -3.561  0.00  0.00     0.095 A 
ATOM     10  O1  MOL d          20.661   0.914  -4.920  0.00  0.00    -0.309 OA
ATOM     11  O4  MOL d          22.685  -2.120  -3.194  0.00  0.00    -0.287 OA
ATOM     12  H1  MOL d          22.466  -1.841  -5.729  0.00  0.00     0.094 H 
ATOM     13  H2  MOL d          20.940   0.600   0.302  0.00  0.00     0.092 H 
ATOM     14  H3  MOL d          19.585   2.580  -3.246  0.00  0.00     0.092 H 
ENDROOT
BRANCH   1  15
ATOM     15  C1' MOL d          21.208   0.039  -7.058  0.00  0.00    -0.002 A 
ATOM     16  C2' MOL d          20.159   0.726  -7.659  0.00  0.00    -0.070 A 
ATOM     17  C3' MOL d          20.086   0.808  -9.044  0.00  0.00    -0.082 A 
ATOM     18  H6  MOL d          19.399   1.197  -7.046  0.00  0.00     0.084 H 
ATOM     19  C4' MOL d          21.061   0.204  -9.830  0.00  0.00    -0.083 A 
ATOM     20  H7  MOL d          19.268   1.344  -9.512  0.00  0.00     0.083 H 
ATOM     21  C5' MOL d          22.110  -0.483  -9.229  0.00  0.00    -0.082 A 
ATOM     22  H8  MOL d          21.003   0.267 -10.910  0.00  0.00     0.083 H 
ATOM     23  C6' MOL d          22.183  -0.565  -7.843  0.00  0.00    -0.070 A 
ATOM     24  H9  MOL d          22.870  -0.954  -9.841  0.00  0.00     0.083 H 
ATOM     25  H10 MOL d          23.001  -1.101  -7.375  0.00  0.00     0.084 H 
ENDBRANCH   1  15
BRANCH   5  26
ATOM     26  O5  MOL d          22.191  -1.325  -0.967  0.00  0.00    -0.360 OA
ATOM     27  H4  MOL d          22.631  -1.000  -0.190  0.00  0.00     0.217 HD
ENDBRANCH   5  26
BRANCH   7  28
ATOM     28  O7  MOL d          19.578   2.642  -0.627  0.00  0.00    -0.361 OA
ATOM     29  H5  MOL d          18.966   3.131  -1.165  0.00  0.00     0.217 HD
ENDBRANCH   7  28
TORSDOF 3
ENDMDL
MODEL 5
REMARK VINA RESULT:      -7.5      2.514      6.356
REMARK  3 active torsions:
REMARK  status: ('A' for Active; 'I' for Inactive)
REMARK    1  A    between atoms: C1'_19  and  C2_1 
REMARK    2  A    between atoms: C6_5  and  O5_12 
REMARK    3  A    between atoms: C8_7  and  O7_13 
ROOT
ATOM      1  C2  MOL d          21.327  -0.091  -5.741  0.00  0.00     0.090 A 
ATOM      2  C3  MOL d          22.030  -1.130  -5.142  0.00  0.00    -0.000 A 
ATOM      3  C4  MOL d          22.105  -1.204  -3.762  0.00  0.00     0.190 A 
ATOM      4  C5  MOL d          21.471  -0.230  -3.010  0.00  0.00     0.081 A 
ATOM      5  C6  MOL d          21.530  -0.280  -1.622  0.00  0.00     0.085 A 
ATOM      6  C7  MOL d          20.896   0.696  -0.863  0.00  0.00    -0.018 A 
ATOM      7  C8  MOL d          20.201   1.720  -1.495  0.00  0.00     0.071 A 
ATOM      8  C9  MOL d          20.144   1.767  -2.883  0.00  0.00    -0.017 A 
ATOM      9  C10 MOL d          20.777   0.794  -3.648  0.00  0.00     0.095 A 
ATOM     10  O1  MOL d          20.696   0.877  -5.009  0.00  0.00    -0.309 OA
ATOM     11  O4  MOL d          22.723  -2.116  -3.216  0.00  0.00    -0.287 OA
ATOM     12  H1  MOL d          22.520  -1.883  -5.757  0.00  0.00     0.094 H 
ATOM     13  H2  MOL d          20.943   0.658   0.220  0.00  0.00     0.092 H 
ATOM     14  H3  MOL d          19.602   2.567  -3.372  0.00  0.00     0.092 H 
ENDROOT
BRANCH   1  15
ATOM     15  C1' MOL d          21.262  -0.034  -7.128  0.00  0.00    -0.002 A 
ATOM     16  C2' MOL d          22.174  -0.748  -7.896  0.00  0.00    -0.070 A 
ATOM     17  C3' MOL d          22.109  -0.691  -9.283  0.00  0.00    -0.082 A 
ATOM     18  H6  MOL d          22.935  -1.351  -7.413  0.00  0.00     0.084 H 
ATOM     19  C4' MOL d          21.133   0.082  -9.903  0.00  0.00    -0.083 A 
ATOM     20  H7  MOL d          22.819  -1.249  -9.882  0.00  0.00     0.083 H 
ATOM     21  C5' MOL d          20.222   0.796  -9.134  0.00  0.00    -0.082 A 
ATOM     22  H8  MOL d          21.083   0.127 -10.984  0.00  0.00     0.083 H 
ATOM     23  C6' MOL d          20.287   0.739  -7.747  0.00  0.00    -0.070 A 
ATOM     24  H9  MOL d          19.461   1.399  -9.616  0.00  0.00     0.083 H 
ATOM     25  H10 MOL d          19.576   1.297  -7.148  0.00  0.00     0.084 H 
ENDBRANCH   1  15
BRANCH   5  26
ATOM     26  O5  MOL d          22.212  -1.283  -1.007  0.00  0.00    -0.360 OA
ATOM     27  H4  MOL d          22.061  -2.098  -1.472  0.00  0.00     0.217 HD
ENDBRANCH   5  26
BRANCH   7  28
ATOM     28  O7  MOL d          19.578   2.676  -0.755  0.00  0.00    -0.361 OA
ATOM     29  H5  MOL d          19.238   3.350  -1.333  0.00  0.00     0.217 HD
ENDBRANCH   7  28
TORSDOF 3
ENDMDL
