MODEL 1
REMARK VINA RESULT:      -5.8      0.000      0.000
REMARK  2 active torsions:
REMARK  status: ('A' for Active; 'I' for Inactive)
REMARK    1  A    between atoms: C4_4  and  S_7 
REMARK    2  A    between atoms: S_7  and  N2_8 
ROOT
ATOM      1  C1  FBV d          14.954   6.842  15.411  0.00  0.00    -0.080 A 
ATOM      2  C2  FBV d          14.341   5.868  16.194  0.00  0.00    -0.081 A 
ATOM      3  C3  FBV d          14.860   4.567  16.300  0.00  0.00    -0.057 A 
ATOM      4  C4  FBV d          16.025   4.222  15.555  0.00  0.00     0.117 A 
ATOM      5  C5  FBV d          16.593   5.290  14.782  0.00  0.00     0.139 A 
ATOM      6  C6  FBV d          16.086   6.557  14.708  0.00  0.00    -0.044 A 
ATOM      7  F   FBV d          17.735   4.977  14.130  0.00  0.00    -0.204 F 
ATOM      8  H1  FBV d          14.527   7.837  15.361  0.00  0.00     0.083 H 
ATOM      9  H2  FBV d          13.437   6.121  16.737  0.00  0.00     0.083 H 
ATOM     10  H3  FBV d          14.381   3.835  16.941  0.00  0.00     0.086 H 
ATOM     11  H4  FBV d          16.572   7.317  14.105  0.00  0.00     0.088 H 
ENDROOT
BRANCH   4  12
ATOM     12  S   FBV d          16.739   2.616  15.624  0.00  0.00     0.259 S 
ATOM     13  O1  FBV d          18.090   2.830  16.177  0.00  0.00    -0.201 OA
ATOM     14  O2  FBV d          15.800   1.839  16.359  0.00  0.00    -0.201 OA
BRANCH  12  15
ATOM     15  N2  FBV d          16.822   2.059  14.124  0.00  0.00    -0.324 N 
ATOM     16  H5  FBV d          16.011   1.668  13.690  0.00  0.00     0.169 HD
ATOM     17  H6  FBV d          17.686   2.102  13.621  0.00  0.00     0.169 HD
ENDBRANCH  12  15
ENDBRANCH   4  12
TORSDOF 2
ENDMDL
MODEL 2
REMARK VINA RESULT:      -5.7      1.705      2.267
REMARK  2 active torsions:
REMARK  status: ('A' for Active; 'I' for Inactive)
REMARK    1  A    between atoms: C4_4  and  S_7 
REMARK    2  A    between atoms: S_7  and  N2_8 
ROOT
ATOM      1  C1  FBV d          14.009   5.912  16.703  0.00  0.00    -0.080 A 
ATOM      2  C2  FBV d          14.699   6.125  15.514  0.00  0.00    -0.081 A 
ATOM      3  C3  FBV d          15.660   5.216  15.040  0.00  0.00    -0.057 A 
ATOM      4  C4  FBV d          15.966   4.063  15.819  0.00  0.00     0.117 A 
ATOM      5  C5  FBV d          15.201   3.920  17.026  0.00  0.00     0.139 A 
ATOM      6  C6  FBV d          14.254   4.805  17.460  0.00  0.00    -0.044 A 
ATOM      7  F   FBV d          15.448   2.791  17.728  0.00  0.00    -0.204 F 
ATOM      8  H1  FBV d          13.269   6.633  17.031  0.00  0.00     0.083 H 
ATOM      9  H2  FBV d          14.489   7.018  14.936  0.00  0.00     0.083 H 
ATOM     10  H3  FBV d          16.161   5.389  14.095  0.00  0.00     0.086 H 
ATOM     11  H4  FBV d          13.711   4.631  18.382  0.00  0.00     0.088 H 
ENDROOT
BRANCH   4  12
ATOM     12  S   FBV d          17.159   2.876  15.306  0.00  0.00     0.259 S 
ATOM     13  O1  FBV d          18.318   3.102  16.191  0.00  0.00    -0.201 OA
ATOM     14  O2  FBV d          16.470   1.632  15.364  0.00  0.00    -0.201 OA
BRANCH  12  15
ATOM     15  N2  FBV d          17.537   3.197  13.782  0.00  0.00    -0.324 N 
ATOM     16  H5  FBV d          17.489   2.475  13.093  0.00  0.00     0.169 HD
ATOM     17  H6  FBV d          17.820   4.120  13.521  0.00  0.00     0.169 HD
ENDBRANCH  12  15
ENDBRANCH   4  12
TORSDOF 2
ENDMDL
MODEL 3
REMARK VINA RESULT:      -5.7      2.312      3.151
REMARK  2 active torsions:
REMARK  status: ('A' for Active; 'I' for Inactive)
REMARK    1  A    between atoms: C4_4  and  S_7 
REMARK    2  A    between atoms: S_7  and  N2_8 
ROOT
ATOM      1  C1  FBV d          14.260   3.109  17.241  0.00  0.00    -0.080 A 
ATOM      2  C2  FBV d          14.097   4.365  16.664  0.00  0.00    -0.081 A 
ATOM      3  C3  FBV d          15.083   4.939  15.846  0.00  0.00    -0.057 A 
ATOM      4  C4  FBV d          16.304   4.235  15.632  0.00  0.00     0.117 A 
ATOM      5  C5  FBV d          16.382   2.945  16.259  0.00  0.00     0.139 A 
ATOM      6  C6  FBV d          15.402   2.393  17.035  0.00  0.00    -0.044 A 
ATOM      7  F   FBV d          17.513   2.252  15.999  0.00  0.00    -0.204 F 
ATOM      8  H1  FBV d          13.473   2.696  17.860  0.00  0.00     0.083 H 
ATOM      9  H2  FBV d          13.181   4.915  16.852  0.00  0.00     0.083 H 
ATOM     10  H3  FBV d          14.919   5.906  15.383  0.00  0.00     0.086 H 
ATOM     11  H4  FBV d          15.528   1.410  17.475  0.00  0.00     0.088 H 
ENDROOT
BRANCH   4  12
ATOM     12  S   FBV d          17.595   4.881  14.627  0.00  0.00     0.259 S 
ATOM     13  O1  FBV d          17.085   6.181  14.152  0.00  0.00    -0.201 OA
ATOM     14  O2  FBV d          18.747   4.847  15.462  0.00  0.00    -0.201 OA
BRANCH  12  15
ATOM     15  N2  FBV d          17.804   3.871  13.401  0.00  0.00    -0.324 N 
ATOM     16  H5  FBV d          17.364   4.054  12.522  0.00  0.00     0.169 HD
ATOM     17  H6  FBV d          18.376   3.059  13.514  0.00  0.00     0.169 HD
ENDBRANCH  12  15
ENDBRANCH   4  12
TORSDOF 2
ENDMDL
MODEL 4
REMARK VINA RESULT:      -5.6      1.768      2.425
REMARK  2 active torsions:
REMARK  status: ('A' for Active; 'I' for Inactive)
REMARK    1  A    between atoms: C4_4  and  S_7 
REMARK    2  A    between atoms: S_7  and  N2_8 
ROOT
ATOM      1  C1  FBV d          15.754   7.015  14.739  0.00  0.00    -0.080 A 
ATOM      2  C2  FBV d          17.059   6.543  14.634  0.00  0.00    -0.081 A 
ATOM      3  C3  FBV d          17.396   5.218  14.958  0.00  0.00    -0.057 A 
ATOM      4  C4  FBV d          16.383   4.343  15.446  0.00  0.00     0.117 A 
ATOM      5  C5  FBV d          15.066   4.913  15.514  0.00  0.00     0.139 A 
ATOM      6  C6  FBV d          14.752   6.199  15.173  0.00  0.00    -0.044 A 
ATOM      7  F   FBV d          14.096   4.060  15.913  0.00  0.00    -0.204 F 
ATOM      8  H1  FBV d          15.532   8.042  14.472  0.00  0.00     0.083 H 
ATOM      9  H2  FBV d          17.837   7.217  14.294  0.00  0.00     0.083 H 
ATOM     10  H3  FBV d          18.415   4.866  14.839  0.00  0.00     0.086 H 
ATOM     11  H4  FBV d          13.733   6.561  15.246  0.00  0.00     0.088 H 
ENDROOT
BRANCH   4  12
ATOM     12  S   FBV d          16.717   2.672  15.880  0.00  0.00     0.259 S 
ATOM     13  O1  FBV d          16.367   1.895  14.676  0.00  0.00    -0.201 OA
ATOM     14  O2  FBV d          18.066   2.685  16.334  0.00  0.00    -0.201 OA
BRANCH  12  15
ATOM     15  N2  FBV d          15.755   2.288  17.102  0.00  0.00    -0.324 N 
ATOM     16  H5  FBV d          15.667   1.334  17.389  0.00  0.00     0.169 HD
ATOM     17  H6  FBV d          15.242   3.003  17.579  0.00  0.00     0.169 HD
ENDBRANCH  12  15
ENDBRANCH   4  12
TORSDOF 2
ENDMDL
MODEL 5
REMARK VINA RESULT:      -5.4      2.644      3.445
REMARK  2 active torsions:
REMARK  status: ('A' for Active; 'I' for Inactive)
REMARK    1  A    between atoms: C4_4  and  S_7 
REMARK    2  A    between atoms: S_7  and  N2_8 
ROOT
ATOM      1  C1  FBV d          14.306   2.878  17.378  0.00  0.00    -0.080 A 
ATOM      2  C2  FBV d          15.447   2.259  16.876  0.00  0.00    -0.081 A 
ATOM      3  C3  FBV d          16.290   2.897  15.951  0.00  0.00    -0.057 A 
ATOM      4  C4  FBV d          15.947   4.198  15.482  0.00  0.00     0.117 A 
ATOM      5  C5  FBV d          14.758   4.761  16.058  0.00  0.00     0.139 A 
ATOM      6  C6  FBV d          13.961   4.133  16.975  0.00  0.00    -0.044 A 
ATOM      7  F   FBV d          14.473   6.021  15.661  0.00  0.00    -0.204 F 
ATOM      8  H1  FBV d          13.684   2.355  18.096  0.00  0.00     0.083 H 
ATOM      9  H2  FBV d          15.692   1.257  17.208  0.00  0.00     0.083 H 
ATOM     10  H3  FBV d          17.190   2.406  15.598  0.00  0.00     0.086 H 
ATOM     11  H4  FBV d          13.078   4.622  17.371  0.00  0.00     0.088 H 
ENDROOT
BRANCH   4  12
ATOM     12  S   FBV d          16.941   5.068  14.320  0.00  0.00     0.259 S 
ATOM     13  O1  FBV d          16.013   5.440  13.236  0.00  0.00    -0.201 OA
ATOM     14  O2  FBV d          17.567   6.092  15.084  0.00  0.00    -0.201 OA
BRANCH  12  15
ATOM     15  N2  FBV d          18.060   4.052  13.786  0.00  0.00    -0.324 N 
ATOM     16  H5  FBV d          18.915   3.939  14.292  0.00  0.00     0.169 HD
ATOM     17  H6  FBV d          17.903   3.532  12.946  0.00  0.00     0.169 HD
ENDBRANCH  12  15
ENDBRANCH   4  12
TORSDOF 2
ENDMDL
MODEL 6
REMARK VINA RESULT:      -5.2      3.016      3.608
REMARK  2 active torsions:
REMARK  status: ('A' for Active; 'I' for Inactive)
REMARK    1  A    between atoms: C4_4  and  S_7 
REMARK    2  A    between atoms: S_7  and  N2_8 
ROOT
ATOM      1  C1  FBV d          15.024   2.349  17.312  0.00  0.00    -0.080 A 
ATOM      2  C2  FBV d          14.205   3.472  17.384  0.00  0.00    -0.081 A 
ATOM      3  C3  FBV d          14.411   4.594  16.564  0.00  0.00    -0.057 A 
ATOM      4  C4  FBV d          15.513   4.600  15.661  0.00  0.00     0.117 A 
ATOM      5  C5  FBV d          16.299   3.398  15.649  0.00  0.00     0.139 A 
ATOM      6  C6  FBV d          16.070   2.306  16.440  0.00  0.00    -0.044 A 
ATOM      7  F   FBV d          17.303   3.381  14.744  0.00  0.00    -0.204 F 
ATOM      8  H1  FBV d          14.828   1.500  17.956  0.00  0.00     0.083 H 
ATOM      9  H2  FBV d          13.385   3.481  18.093  0.00  0.00     0.083 H 
ATOM     10  H3  FBV d          13.740   5.444  16.617  0.00  0.00     0.086 H 
ATOM     11  H4  FBV d          16.704   1.429  16.374  0.00  0.00     0.088 H 
ENDROOT
BRANCH   4  12
ATOM     12  S   FBV d          15.849   5.964  14.602  0.00  0.00     0.259 S 
ATOM     13  O1  FBV d          15.693   5.425  13.237  0.00  0.00    -0.201 OA
ATOM     14  O2  FBV d          14.971   6.989  15.052  0.00  0.00    -0.201 OA
BRANCH  12  15
ATOM     15  N2  FBV d          17.364   6.417  14.863  0.00  0.00    -0.324 N 
ATOM     16  H5  FBV d          18.102   5.744  14.816  0.00  0.00     0.169 HD
ATOM     17  H6  FBV d          17.571   7.372  15.074  0.00  0.00     0.169 HD
ENDBRANCH  12  15
ENDBRANCH   4  12
TORSDOF 2
ENDMDL
MODEL 7
REMARK VINA RESULT:      -4.3      3.484      4.235
REMARK  2 active torsions:
REMARK  status: ('A' for Active; 'I' for Inactive)
REMARK    1  A    between atoms: C4_4  and  S_7 
REMARK    2  A    between atoms: S_7  and  N2_8 
ROOT
ATOM      1  C1  FBV d          16.248   2.356  16.415  0.00  0.00    -0.080 A 
ATOM      2  C2  FBV d          17.254   2.976  15.680  0.00  0.00    -0.081 A 
ATOM      3  C3  FBV d          17.113   4.285  15.188  0.00  0.00    -0.057 A 
ATOM      4  C4  FBV d          15.891   4.983  15.412  0.00  0.00     0.117 A 
ATOM      5  C5  FBV d          14.913   4.269  16.184  0.00  0.00     0.139 A 
ATOM      6  C6  FBV d          15.076   3.003  16.674  0.00  0.00    -0.044 A 
ATOM      7  F   FBV d          13.783   4.960  16.452  0.00  0.00    -0.204 F 
ATOM      8  H1  FBV d          16.397   1.348  16.784  0.00  0.00     0.083 H 
ATOM      9  H2  FBV d          18.172   2.434  15.482  0.00  0.00     0.083 H 
ATOM     10  H3  FBV d          17.924   4.757  14.644  0.00  0.00     0.086 H 
ATOM     11  H4  FBV d          14.295   2.526  17.255  0.00  0.00     0.088 H 
ENDROOT
BRANCH   4  12
ATOM     12  S   FBV d          15.627   6.621  14.827  0.00  0.00     0.259 S 
ATOM     13  O1  FBV d          14.496   6.505  13.887  0.00  0.00    -0.201 OA
ATOM     14  O2  FBV d          15.476   7.400  16.008  0.00  0.00    -0.201 OA
BRANCH  12  15
ATOM     15  N2  FBV d          16.958   7.081  14.061  0.00  0.00    -0.324 N 
ATOM     16  H5  FBV d          17.024   8.005  13.686  0.00  0.00     0.169 HD
ATOM     17  H6  FBV d          17.721   6.443  13.957  0.00  0.00     0.169 HD
ENDBRANCH  12  15
ENDBRANCH   4  12
TORSDOF 2
ENDMDL
MODEL 8
REMARK VINA RESULT:      -3.9      3.274      3.802
REMARK  2 active torsions:
REMARK  status: ('A' for Active; 'I' for Inactive)
REMARK    1  A    between atoms: C4_4  and  S_7 
REMARK    2  A    between atoms: S_7  and  N2_8 
ROOT
ATOM      1  C1  FBV d          16.580   2.123  15.555  0.00  0.00    -0.080 A 
ATOM      2  C2  FBV d          15.743   2.845  16.400  0.00  0.00    -0.081 A 
ATOM      3  C3  FBV d          15.481   4.210  16.197  0.00  0.00    -0.057 A 
ATOM      4  C4  FBV d          16.124   4.887  15.120  0.00  0.00     0.117 A 
ATOM      5  C5  FBV d          16.964   4.063  14.297  0.00  0.00     0.139 A 
ATOM      6  C6  FBV d          17.189   2.729  14.497  0.00  0.00    -0.044 A 
ATOM      7  F   FBV d          17.518   4.693  13.237  0.00  0.00    -0.204 F 
ATOM      8  H1  FBV d          16.751   1.070  15.741  0.00  0.00     0.083 H 
ATOM      9  H2  FBV d          15.278   2.339  17.239  0.00  0.00     0.083 H 
ATOM     10  H3  FBV d          14.801   4.743  16.852  0.00  0.00     0.086 H 
ATOM     11  H4  FBV d          17.835   2.168  13.831  0.00  0.00     0.088 H 
ENDROOT
BRANCH   4  12
ATOM     12  S   FBV d          15.860   6.595  14.795  0.00  0.00     0.259 S 
ATOM     13  O1  FBV d          17.180   7.223  14.995  0.00  0.00    -0.201 OA
ATOM     14  O2  FBV d          15.262   6.624  13.504  0.00  0.00    -0.201 OA
BRANCH  12  15
ATOM     15  N2  FBV d          14.805   7.135  15.875  0.00  0.00    -0.324 N 
ATOM     16  H5  FBV d          15.128   7.586  16.706  0.00  0.00     0.169 HD
ATOM     17  H6  FBV d          13.825   7.020  15.717  0.00  0.00     0.169 HD
ENDBRANCH  12  15
ENDBRANCH   4  12
TORSDOF 2
ENDMDL
MODEL 9
REMARK VINA RESULT:      -3.9      3.376      4.212
REMARK  2 active torsions:
REMARK  status: ('A' for Active; 'I' for Inactive)
REMARK    1  A    between atoms: C4_4  and  S_7 
REMARK    2  A    between atoms: S_7  and  N2_8 
ROOT
ATOM      1  C1  FBV d          16.941   1.811  14.523  0.00  0.00    -0.080 A 
ATOM      2  C2  FBV d          16.953   2.534  13.335  0.00  0.00    -0.081 A 
ATOM      3  C3  FBV d          16.666   3.910  13.301  0.00  0.00    -0.057 A 
ATOM      4  C4  FBV d          16.314   4.575  14.511  0.00  0.00     0.117 A 
ATOM      5  C5  FBV d          16.335   3.752  15.688  0.00  0.00     0.139 A 
ATOM      6  C6  FBV d          16.638   2.419  15.705  0.00  0.00    -0.044 A 
ATOM      7  F   FBV d          16.065   4.401  16.843  0.00  0.00    -0.204 F 
ATOM      8  H1  FBV d          17.176   0.753  14.509  0.00  0.00     0.083 H 
ATOM      9  H2  FBV d          17.190   2.023  12.409  0.00  0.00     0.083 H 
ATOM     10  H3  FBV d          16.711   4.457  12.367  0.00  0.00     0.086 H 
ATOM     11  H4  FBV d          16.638   1.860  16.634  0.00  0.00     0.088 H 
ENDROOT
BRANCH   4  12
ATOM     12  S   FBV d          15.934   6.292  14.560  0.00  0.00     0.259 S 
ATOM     13  O1  FBV d          17.149   6.928  15.103  0.00  0.00    -0.201 OA
ATOM     14  O2  FBV d          15.516   6.602  13.236  0.00  0.00    -0.201 OA
BRANCH  12  15
ATOM     15  N2  FBV d          14.697   6.484  15.561  0.00  0.00    -0.324 N 
ATOM     16  H5  FBV d          14.171   5.690  15.864  0.00  0.00     0.169 HD
ATOM     17  H6  FBV d          14.451   7.399  15.881  0.00  0.00     0.169 HD
ENDBRANCH  12  15
ENDBRANCH   4  12
TORSDOF 2
ENDMDL
MODEL 10
REMARK VINA RESULT:      -3.0      1.695      2.087
REMARK  2 active torsions:
REMARK  status: ('A' for Active; 'I' for Inactive)
REMARK    1  A    between atoms: C4_4  and  S_7 
REMARK    2  A    between atoms: S_7  and  N2_8 
ROOT
ATOM      1  C1  FBV d          15.601   6.305  13.623  0.00  0.00    -0.080 A 
ATOM      2  C2  FBV d          14.905   6.353  14.826  0.00  0.00    -0.081 A 
ATOM      3  C3  FBV d          14.895   5.271  15.722  0.00  0.00    -0.057 A 
ATOM      4  C4  FBV d          15.583   4.073  15.370  0.00  0.00     0.117 A 
ATOM      5  C5  FBV d          16.279   4.116  14.115  0.00  0.00     0.139 A 
ATOM      6  C6  FBV d          16.296   5.187  13.266  0.00  0.00    -0.044 A 
ATOM      7  F   FBV d          16.986   3.003  13.816  0.00  0.00    -0.204 F 
ATOM      8  H1  FBV d          15.591   7.164  12.962  0.00  0.00     0.083 H 
ATOM      9  H2  FBV d          14.354   7.252  15.080  0.00  0.00     0.083 H 
ATOM     10  H3  FBV d          14.370   5.344  16.667  0.00  0.00     0.086 H 
ATOM     11  H4  FBV d          16.847   5.150  12.333  0.00  0.00     0.088 H 
ENDROOT
BRANCH   4  12
ATOM     12  S   FBV d          15.618   2.668  16.427  0.00  0.00     0.259 S 
ATOM     13  O1  FBV d          14.294   2.654  17.076  0.00  0.00    -0.201 OA
ATOM     14  O2  FBV d          15.989   1.591  15.575  0.00  0.00    -0.201 OA
BRANCH  12  15
ATOM     15  N2  FBV d          16.777   2.905  17.508  0.00  0.00    -0.324 N 
ATOM     16  H5  FBV d          17.527   2.248  17.590  0.00  0.00     0.169 HD
ATOM     17  H6  FBV d          16.751   3.710  18.101  0.00  0.00     0.169 HD
ENDBRANCH  12  15
ENDBRANCH   4  12
TORSDOF 2
ENDMDL
