MODEL 1
REMARK VINA RESULT:      -8.6      0.000      0.000
REMARK  13 active torsions:
REMARK  status: ('A' for Active; 'I' for Inactive)
REMARK    1  A    between atoms: CA_2  and  N_1 
REMARK    2  A    between atoms: P_3  and  CA_2 
REMARK    3  A    between atoms: CA_2  and  CB_6 
REMARK    4  A    between atoms: CM_13  and  P_3 
REMARK    5  A    between atoms: CB_6  and  CG_7 
REMARK    6  A    between atoms: CA_14  and  CM_13 
REMARK    7  A    between atoms: CA_14  and  CB_15 
REMARK    8  A    between atoms: C_22  and  CA_14 
REMARK    9  A    between atoms: CB_15  and  CG_16 
REMARK       I    between atoms: C_22  and  N_24 
REMARK   10  A    between atoms: N_24  and  CA_25 
REMARK   11  A    between atoms: CA_25  and  CB_28 
REMARK   12  A    between atoms: CA_25  and  C_26 
REMARK   13  A    between atoms: CB_28  and  CG_29 
ROOT
ATOM      1  CA  MOL d          36.238  41.988  -3.617  0.00  0.00     0.036 C 
ATOM      2  H14 MOL d          36.417  42.967  -4.086  0.00  0.00     0.056 H 
ENDROOT
BRANCH   1   3
ATOM      3  CM  MOL d          35.198  41.262  -4.492  0.00  0.00     0.021 C 
ATOM      4  H12 MOL d          35.388  40.181  -4.413  0.00  0.00     0.050 H 
ATOM      5  H13 MOL d          34.201  41.489  -4.087  0.00  0.00     0.050 H 
BRANCH   3   6
ATOM      6  P   MOL d          35.193  41.684  -6.200  0.00  0.00     0.138 P 
ATOM      7  O1P MOL d          36.411  42.486  -6.547  0.00  0.00    -0.666 OA
ATOM      8  O2P MOL d          34.020  42.499  -6.574  0.00  0.00    -0.666 OA
BRANCH   6   9
ATOM      9  CA  MOL d          35.069  40.099  -6.854  0.00  0.00     0.177 C 
ATOM     10  H4  MOL d          34.948  40.263  -7.935  0.00  0.00     0.101 H 
BRANCH   9  11
ATOM     11  N   MOL d          36.321  39.347  -6.615  0.00  0.00    -0.065 N 
ATOM     12  H1  MOL d          36.427  39.176  -5.627  0.00  0.00     0.275 HD
ATOM     13  H2  MOL d          37.105  39.887  -6.947  0.00  0.00     0.275 HD
ATOM     14  H3  MOL d          36.285  38.468  -7.106  0.00  0.00     0.275 HD
ENDBRANCH   9  11
BRANCH   9  15
ATOM     15  CB  MOL d          34.065  39.088  -6.487  0.00  0.00    -0.005 C 
ATOM     16  H5  MOL d          33.555  39.419  -5.571  0.00  0.00     0.044 H 
ATOM     17  H6  MOL d          34.582  38.136  -6.296  0.00  0.00     0.044 H 
BRANCH  15  18
ATOM     18  CG  MOL d          33.015  38.859  -7.569  0.00  0.00    -0.056 A 
ATOM     19  CD1 MOL d          33.000  39.729  -8.668  0.00  0.00    -0.077 A 
ATOM     20  CE1 MOL d          32.010  39.487  -9.626  0.00  0.00    -0.082 A 
ATOM     21  H7  MOL d          33.712  40.540  -8.769  0.00  0.00     0.084 H 
ATOM     22  CZ  MOL d          31.104  38.441  -9.524  0.00  0.00    -0.083 A 
ATOM     23  H9  MOL d          31.948  40.145 -10.485  0.00  0.00     0.083 H 
ATOM     24  CE2 MOL d          31.181  37.631  -8.410  0.00  0.00    -0.082 A 
ATOM     25  H11 MOL d          30.362  38.267 -10.293  0.00  0.00     0.083 H 
ATOM     26  CD2 MOL d          32.080  37.852  -7.455  0.00  0.00    -0.077 A 
ATOM     27  H10 MOL d          30.495  36.797  -8.311  0.00  0.00     0.083 H 
ATOM     28  H8  MOL d          32.078  37.227  -6.568  0.00  0.00     0.084 H 
ENDBRANCH  15  18
ENDBRANCH   9  15
ENDBRANCH   6   9
ENDBRANCH   3   6
ENDBRANCH   1   3
BRANCH   1  29
ATOM     29  CB  MOL d          35.640  42.245  -2.223  0.00  0.00    -0.029 C 
ATOM     30  H15 MOL d          35.382  41.270  -1.783  0.00  0.00     0.041 H 
ATOM     31  H16 MOL d          34.726  42.843  -2.353  0.00  0.00     0.041 H 
BRANCH  29  32
ATOM     32  CG  MOL d          36.536  42.972  -1.245  0.00  0.00    -0.057 A 
ATOM     33  CD1 MOL d          36.904  44.292  -1.453  0.00  0.00    -0.077 A 
ATOM     34  CE1 MOL d          37.727  44.957  -0.566  0.00  0.00    -0.082 A 
ATOM     35  H17 MOL d          36.538  44.813  -2.330  0.00  0.00     0.084 H 
ATOM     36  CZ  MOL d          38.181  44.287   0.554  0.00  0.00    -0.083 A 
ATOM     37  H19 MOL d          38.013  45.988  -0.745  0.00  0.00     0.083 H 
ATOM     38  CE2 MOL d          37.823  42.967   0.773  0.00  0.00    -0.082 A 
ATOM     39  H21 MOL d          38.821  44.796   1.265  0.00  0.00     0.083 H 
ATOM     40  CD2 MOL d          36.976  42.320  -0.105  0.00  0.00    -0.077 A 
ATOM     41  H20 MOL d          38.209  42.440   1.638  0.00  0.00     0.083 H 
ATOM     42  H18 MOL d          36.657  41.304   0.098  0.00  0.00     0.084 H 
ENDBRANCH  29  32
ENDBRANCH   1  29
BRANCH   1  43
ATOM     43  C   MOL d          37.605  41.301  -3.515  0.00  0.00     0.223 C 
ATOM     44  O   MOL d          38.661  41.855  -3.807  0.00  0.00    -0.273 OA
ATOM     45  N   MOL d          37.562  40.070  -3.063  0.00  0.00    -0.346 N 
ATOM     46  H22 MOL d          36.640  39.776  -2.813  0.00  0.00     0.163 HD
BRANCH  45  47
ATOM     47  CA  MOL d          38.563  39.046  -2.848  0.00  0.00     0.100 C 
ATOM     48  H23 MOL d          39.525  39.499  -2.568  0.00  0.00     0.090 H 
BRANCH  47  49
ATOM     49  CB  MOL d          38.075  38.169  -1.729  0.00  0.00    -0.013 C 
ATOM     50  H24 MOL d          37.039  37.911  -1.995  0.00  0.00     0.043 H 
ATOM     51  H25 MOL d          38.074  38.812  -0.837  0.00  0.00     0.043 H 
BRANCH  49  52
ATOM     52  CG  MOL d          38.697  36.886  -1.286  0.00  0.00    -0.056 A 
ATOM     53  CD1 MOL d          38.096  35.668  -1.532  0.00  0.00    -0.077 A 
ATOM     54  CE1 MOL d          38.665  34.466  -1.152  0.00  0.00    -0.082 A 
ATOM     55  H26 MOL d          37.140  35.654  -2.042  0.00  0.00     0.084 H 
ATOM     56  CZ  MOL d          39.885  34.490  -0.497  0.00  0.00    -0.083 A 
ATOM     57  H28 MOL d          38.168  33.526  -1.362  0.00  0.00     0.083 H 
ATOM     58  CE2 MOL d          40.504  35.702  -0.235  0.00  0.00    -0.082 A 
ATOM     59  H30 MOL d          40.354  33.562  -0.190  0.00  0.00     0.083 H 
ATOM     60  CD2 MOL d          39.921  36.891  -0.627  0.00  0.00    -0.077 A 
ATOM     61  H29 MOL d          41.456  35.716   0.284  0.00  0.00     0.083 H 
ATOM     62  H27 MOL d          40.420  37.831  -0.421  0.00  0.00     0.084 H 
ENDBRANCH  49  52
ENDBRANCH  47  49
BRANCH  47  63
ATOM     63  C   MOL d          38.722  38.275  -4.160  0.00  0.00     0.197 C 
ATOM     64  O   MOL d          39.833  38.301  -4.722  0.00  0.00    -0.646 OA
ATOM     65  OXT MOL d          37.756  37.657  -4.602  0.00  0.00    -0.646 OA
ENDBRANCH  47  63
ENDBRANCH  45  47
ENDBRANCH   1  43
TORSDOF 13
ENDMDL
MODEL 2
REMARK VINA RESULT:      -8.0      1.414      2.189
REMARK  13 active torsions:
REMARK  status: ('A' for Active; 'I' for Inactive)
REMARK    1  A    between atoms: CA_2  and  N_1 
REMARK    2  A    between atoms: P_3  and  CA_2 
REMARK    3  A    between atoms: CA_2  and  CB_6 
REMARK    4  A    between atoms: CM_13  and  P_3 
REMARK    5  A    between atoms: CB_6  and  CG_7 
REMARK    6  A    between atoms: CA_14  and  CM_13 
REMARK    7  A    between atoms: CA_14  and  CB_15 
REMARK    8  A    between atoms: C_22  and  CA_14 
REMARK    9  A    between atoms: CB_15  and  CG_16 
REMARK       I    between atoms: C_22  and  N_24 
REMARK   10  A    between atoms: N_24  and  CA_25 
REMARK   11  A    between atoms: CA_25  and  CB_28 
REMARK   12  A    between atoms: CA_25  and  C_26 
REMARK   13  A    between atoms: CB_28  and  CG_29 
ROOT
ATOM      1  CA  MOL d          36.465  41.479  -4.424  0.00  0.00     0.036 C 
ATOM      2  H14 MOL d          36.759  42.407  -4.936  0.00  0.00     0.056 H 
ENDROOT
BRANCH   1   3
ATOM      3  CM  MOL d          35.643  40.656  -5.435  0.00  0.00     0.021 C 
ATOM      4  H12 MOL d          36.282  39.838  -5.801  0.00  0.00     0.050 H 
ATOM      5  H13 MOL d          34.778  40.235  -4.901  0.00  0.00     0.050 H 
BRANCH   3   6
ATOM      6  P   MOL d          35.037  41.533  -6.835  0.00  0.00     0.138 P 
ATOM      7  O1P MOL d          36.060  42.512  -7.326  0.00  0.00    -0.666 OA
ATOM      8  O2P MOL d          33.816  42.305  -6.528  0.00  0.00    -0.666 OA
BRANCH   6   9
ATOM      9  CA  MOL d          34.672  40.188  -7.840  0.00  0.00     0.177 C 
ATOM     10  H4  MOL d          33.703  39.827  -7.466  0.00  0.00     0.101 H 
BRANCH   9  11
ATOM     11  N   MOL d          34.516  40.627  -9.245  0.00  0.00    -0.065 N 
ATOM     12  H1  MOL d          33.537  40.751  -9.452  0.00  0.00     0.275 HD
ATOM     13  H2  MOL d          34.903  39.929  -9.860  0.00  0.00     0.275 HD
ATOM     14  H3  MOL d          35.001  41.500  -9.380  0.00  0.00     0.275 HD
ENDBRANCH   9  11
BRANCH   9  15
ATOM     15  CB  MOL d          35.505  38.988  -8.016  0.00  0.00    -0.005 C 
ATOM     16  H5  MOL d          36.381  39.072  -7.357  0.00  0.00     0.044 H 
ATOM     17  H6  MOL d          35.837  38.944  -9.064  0.00  0.00     0.044 H 
BRANCH  15  18
ATOM     18  CG  MOL d          34.774  37.691  -7.687  0.00  0.00    -0.056 A 
ATOM     19  CD1 MOL d          33.425  37.771  -7.312  0.00  0.00    -0.077 A 
ATOM     20  CE1 MOL d          32.802  36.557  -7.006  0.00  0.00    -0.082 A 
ATOM     21  H7  MOL d          32.897  38.717  -7.262  0.00  0.00     0.084 H 
ATOM     22  CZ  MOL d          33.455  35.336  -7.086  0.00  0.00    -0.083 A 
ATOM     23  H9  MOL d          31.764  36.571  -6.694  0.00  0.00     0.083 H 
ATOM     24  CE2 MOL d          34.784  35.340  -7.459  0.00  0.00    -0.082 A 
ATOM     25  H11 MOL d          32.940  34.410  -6.862  0.00  0.00     0.083 H 
ATOM     26  CD2 MOL d          35.426  36.476  -7.717  0.00  0.00    -0.077 A 
ATOM     27  H10 MOL d          35.315  34.399  -7.543  0.00  0.00     0.083 H 
ATOM     28  H8  MOL d          36.483  36.447  -7.957  0.00  0.00     0.084 H 
ENDBRANCH  15  18
ENDBRANCH   9  15
ENDBRANCH   6   9
ENDBRANCH   3   6
ENDBRANCH   1   3
BRANCH   1  29
ATOM     29  CB  MOL d          35.568  41.868  -3.236  0.00  0.00    -0.029 C 
ATOM     30  H15 MOL d          35.017  40.970  -2.921  0.00  0.00     0.041 H 
ATOM     31  H16 MOL d          34.856  42.630  -3.587  0.00  0.00     0.041 H 
BRANCH  29  32
ATOM     32  CG  MOL d          36.283  42.423  -2.024  0.00  0.00    -0.057 A 
ATOM     33  CD1 MOL d          36.441  41.665  -0.874  0.00  0.00    -0.077 A 
ATOM     34  CE1 MOL d          37.086  42.171   0.237  0.00  0.00    -0.082 A 
ATOM     35  H17 MOL d          36.051  40.654  -0.847  0.00  0.00     0.084 H 
ATOM     36  CZ  MOL d          37.588  43.457   0.189  0.00  0.00    -0.083 A 
ATOM     37  H19 MOL d          37.197  41.569   1.132  0.00  0.00     0.083 H 
ATOM     38  CE2 MOL d          37.435  44.227  -0.953  0.00  0.00    -0.082 A 
ATOM     39  H21 MOL d          38.105  43.867   1.049  0.00  0.00     0.083 H 
ATOM     40  CD2 MOL d          36.814  43.702  -2.068  0.00  0.00    -0.077 A 
ATOM     41  H20 MOL d          37.804  45.245  -0.970  0.00  0.00     0.083 H 
ATOM     42  H18 MOL d          36.742  44.289  -2.976  0.00  0.00     0.084 H 
ENDBRANCH  29  32
ENDBRANCH   1  29
BRANCH   1  43
ATOM     43  C   MOL d          37.764  40.821  -3.943  0.00  0.00     0.223 C 
ATOM     44  O   MOL d          38.816  41.436  -3.792  0.00  0.00    -0.273 OA
ATOM     45  N   MOL d          37.659  39.540  -3.680  0.00  0.00    -0.346 N 
ATOM     46  H22 MOL d          36.730  39.190  -3.795  0.00  0.00     0.163 HD
BRANCH  45  47
ATOM     47  CA  MOL d          38.600  38.523  -3.258  0.00  0.00     0.100 C 
ATOM     48  H23 MOL d          39.592  38.964  -3.084  0.00  0.00     0.090 H 
BRANCH  47  49
ATOM     49  CB  MOL d          38.080  37.933  -1.977  0.00  0.00    -0.013 C 
ATOM     50  H24 MOL d          37.046  37.629  -2.199  0.00  0.00     0.043 H 
ATOM     51  H25 MOL d          38.071  38.765  -1.259  0.00  0.00     0.043 H 
BRANCH  49  52
ATOM     52  CG  MOL d          38.677  36.782  -1.237  0.00  0.00    -0.056 A 
ATOM     53  CD1 MOL d          39.887  36.892  -0.584  0.00  0.00    -0.077 A 
ATOM     54  CE1 MOL d          40.448  35.847   0.129  0.00  0.00    -0.082 A 
ATOM     55  H26 MOL d          40.420  37.835  -0.630  0.00  0.00     0.084 H 
ATOM     56  CZ  MOL d          39.766  34.644   0.183  0.00  0.00    -0.083 A 
ATOM     57  H28 MOL d          41.400  35.968   0.633  0.00  0.00     0.083 H 
ATOM     58  CE2 MOL d          38.551  34.508  -0.470  0.00  0.00    -0.082 A 
ATOM     59  H30 MOL d          40.182  33.809   0.736  0.00  0.00     0.083 H 
ATOM     60  CD2 MOL d          38.006  35.567  -1.172  0.00  0.00    -0.077 A 
ATOM     61  H29 MOL d          38.024  33.563  -0.431  0.00  0.00     0.083 H 
ATOM     62  H27 MOL d          37.052  35.448  -1.672  0.00  0.00     0.084 H 
ENDBRANCH  49  52
ENDBRANCH  47  49
BRANCH  47  63
ATOM     63  C   MOL d          38.690  37.485  -4.379  0.00  0.00     0.197 C 
ATOM     64  O   MOL d          37.673  37.281  -5.068  0.00  0.00    -0.646 OA
ATOM     65  OXT MOL d          39.756  36.903  -4.560  0.00  0.00    -0.646 OA
ENDBRANCH  47  63
ENDBRANCH  45  47
ENDBRANCH   1  43
TORSDOF 13
ENDMDL
MODEL 3
REMARK VINA RESULT:      -7.6      2.768      8.582
REMARK  13 active torsions:
REMARK  status: ('A' for Active; 'I' for Inactive)
REMARK    1  A    between atoms: CA_2  and  N_1 
REMARK    2  A    between atoms: P_3  and  CA_2 
REMARK    3  A    between atoms: CA_2  and  CB_6 
REMARK    4  A    between atoms: CM_13  and  P_3 
REMARK    5  A    between atoms: CB_6  and  CG_7 
REMARK    6  A    between atoms: CA_14  and  CM_13 
REMARK    7  A    between atoms: CA_14  and  CB_15 
REMARK    8  A    between atoms: C_22  and  CA_14 
REMARK    9  A    between atoms: CB_15  and  CG_16 
REMARK       I    between atoms: C_22  and  N_24 
REMARK   10  A    between atoms: N_24  and  CA_25 
REMARK   11  A    between atoms: CA_25  and  CB_28 
REMARK   12  A    between atoms: CA_25  and  C_26 
REMARK   13  A    between atoms: CB_28  and  CG_29 
ROOT
ATOM      1  CA  MOL d          37.238  39.925  -4.973  0.00  0.00     0.036 C 
ATOM      2  H14 MOL d          38.023  40.484  -5.504  0.00  0.00     0.056 H 
ENDROOT
BRANCH   1   3
ATOM      3  CM  MOL d          37.156  40.516  -3.552  0.00  0.00     0.021 C 
ATOM      4  H12 MOL d          36.107  40.462  -3.226  0.00  0.00     0.050 H 
ATOM      5  H13 MOL d          37.778  39.892  -2.893  0.00  0.00     0.050 H 
BRANCH   3   6
ATOM      6  P   MOL d          37.690  42.183  -3.375  0.00  0.00     0.138 P 
ATOM      7  O1P MOL d          38.353  42.659  -4.633  0.00  0.00    -0.666 OA
ATOM      8  O2P MOL d          38.672  42.345  -2.284  0.00  0.00    -0.666 OA
BRANCH   6   9
ATOM      9  CA  MOL d          36.183  42.890  -2.951  0.00  0.00     0.177 C 
ATOM     10  H4  MOL d          35.880  43.440  -3.854  0.00  0.00     0.101 H 
BRANCH   9  11
ATOM     11  N   MOL d          35.184  41.835  -2.668  0.00  0.00    -0.065 N 
ATOM     12  H1  MOL d          35.594  41.137  -2.068  0.00  0.00     0.275 HD
ATOM     13  H2  MOL d          34.895  41.406  -3.533  0.00  0.00     0.275 HD
ATOM     14  H3  MOL d          34.384  42.243  -2.211  0.00  0.00     0.275 HD
ENDBRANCH   9  11
BRANCH   9  15
ATOM     15  CB  MOL d          35.943  43.806  -1.825  0.00  0.00    -0.005 C 
ATOM     16  H5  MOL d          34.875  43.771  -1.567  0.00  0.00     0.044 H 
ATOM     17  H6  MOL d          36.211  44.825  -2.141  0.00  0.00     0.044 H 
BRANCH  15  18
ATOM     18  CG  MOL d          36.753  43.459  -0.580  0.00  0.00    -0.056 A 
ATOM     19  CD1 MOL d          37.837  44.284  -0.247  0.00  0.00    -0.077 A 
ATOM     20  CE1 MOL d          38.556  43.917   0.894  0.00  0.00    -0.082 A 
ATOM     21  H7  MOL d          38.100  45.154  -0.838  0.00  0.00     0.084 H 
ATOM     22  CZ  MOL d          38.220  42.820   1.675  0.00  0.00    -0.083 A 
ATOM     23  H9  MOL d          39.413  44.515   1.182  0.00  0.00     0.083 H 
ATOM     24  CE2 MOL d          37.143  42.055   1.278  0.00  0.00    -0.082 A 
ATOM     25  H11 MOL d          38.785  42.573   2.565  0.00  0.00     0.083 H 
ATOM     26  CD2 MOL d          36.457  42.345   0.176  0.00  0.00    -0.077 A 
ATOM     27  H10 MOL d          36.849  41.200   1.878  0.00  0.00     0.083 H 
ATOM     28  H8  MOL d          35.649  41.692  -0.134  0.00  0.00     0.084 H 
ENDBRANCH  15  18
ENDBRANCH   9  15
ENDBRANCH   6   9
ENDBRANCH   3   6
ENDBRANCH   1   3
BRANCH   1  29
ATOM     29  CB  MOL d          37.690  38.457  -4.889  0.00  0.00    -0.029 C 
ATOM     30  H15 MOL d          37.241  37.917  -5.736  0.00  0.00     0.041 H 
ATOM     31  H16 MOL d          37.310  38.041  -3.945  0.00  0.00     0.041 H 
BRANCH  29  32
ATOM     32  CG  MOL d          39.184  38.223  -4.930  0.00  0.00    -0.057 A 
ATOM     33  CD1 MOL d          39.746  37.324  -5.824  0.00  0.00    -0.077 A 
ATOM     34  CE1 MOL d          41.109  37.103  -5.859  0.00  0.00    -0.082 A 
ATOM     35  H17 MOL d          39.102  36.784  -6.508  0.00  0.00     0.084 H 
ATOM     36  CZ  MOL d          41.921  37.803  -4.988  0.00  0.00    -0.083 A 
ATOM     37  H19 MOL d          41.534  36.391  -6.558  0.00  0.00     0.083 H 
ATOM     38  CE2 MOL d          41.373  38.704  -4.089  0.00  0.00    -0.082 A 
ATOM     39  H21 MOL d          42.993  37.648  -5.008  0.00  0.00     0.083 H 
ATOM     40  CD2 MOL d          40.012  38.939  -4.081  0.00  0.00    -0.077 A 
ATOM     41  H20 MOL d          42.015  39.225  -3.389  0.00  0.00     0.083 H 
ATOM     42  H18 MOL d          39.594  39.681  -3.412  0.00  0.00     0.084 H 
ENDBRANCH  29  32
ENDBRANCH   1  29
BRANCH   1  43
ATOM     43  C   MOL d          35.964  40.063  -5.817  0.00  0.00     0.223 C 
ATOM     44  O   MOL d          35.195  41.015  -5.724  0.00  0.00    -0.273 OA
ATOM     45  N   MOL d          35.770  39.087  -6.672  0.00  0.00    -0.346 N 
ATOM     46  H22 MOL d          36.509  38.414  -6.673  0.00  0.00     0.163 HD
BRANCH  45  47
ATOM     47  CA  MOL d          34.716  38.775  -7.614  0.00  0.00     0.100 C 
ATOM     48  H23 MOL d          33.729  38.940  -7.157  0.00  0.00     0.090 H 
BRANCH  47  49
ATOM     49  CB  MOL d          34.884  39.689  -8.795  0.00  0.00    -0.013 C 
ATOM     50  H24 MOL d          34.981  39.022  -9.664  0.00  0.00     0.043 H 
ATOM     51  H25 MOL d          35.837  40.210  -8.624  0.00  0.00     0.043 H 
BRANCH  49  52
ATOM     52  CG  MOL d          33.927  40.753  -9.222  0.00  0.00    -0.056 A 
ATOM     53  CD1 MOL d          32.766  40.450  -9.905  0.00  0.00    -0.077 A 
ATOM     54  CE1 MOL d          31.854  41.416 -10.290  0.00  0.00    -0.082 A 
ATOM     55  H26 MOL d          32.562  39.414 -10.148  0.00  0.00     0.084 H 
ATOM     56  CZ  MOL d          32.122  42.738  -9.979  0.00  0.00    -0.083 A 
ATOM     57  H28 MOL d          30.950  41.144 -10.823  0.00  0.00     0.083 H 
ATOM     58  CE2 MOL d          33.284  43.067  -9.300  0.00  0.00    -0.082 A 
ATOM     59  H30 MOL d          31.423  43.516 -10.268  0.00  0.00     0.083 H 
ATOM     60  CD2 MOL d          34.179  42.086  -8.919  0.00  0.00    -0.077 A 
ATOM     61  H29 MOL d          33.493  44.104  -9.064  0.00  0.00     0.083 H 
ATOM     62  H27 MOL d          35.082  42.356  -8.382  0.00  0.00     0.084 H 
ENDBRANCH  49  52
ENDBRANCH  47  49
BRANCH  47  63
ATOM     63  C   MOL d          34.863  37.301  -7.998  0.00  0.00     0.197 C 
ATOM     64  O   MOL d          35.069  36.478  -7.087  0.00  0.00    -0.646 OA
ATOM     65  OXT MOL d          34.766  36.988  -9.182  0.00  0.00    -0.646 OA
ENDBRANCH  47  63
ENDBRANCH  45  47
ENDBRANCH   1  43
TORSDOF 13
ENDMDL
MODEL 4
REMARK VINA RESULT:      -7.5      2.029      7.574
REMARK  13 active torsions:
REMARK  status: ('A' for Active; 'I' for Inactive)
REMARK    1  A    between atoms: CA_2  and  N_1 
REMARK    2  A    between atoms: P_3  and  CA_2 
REMARK    3  A    between atoms: CA_2  and  CB_6 
REMARK    4  A    between atoms: CM_13  and  P_3 
REMARK    5  A    between atoms: CB_6  and  CG_7 
REMARK    6  A    between atoms: CA_14  and  CM_13 
REMARK    7  A    between atoms: CA_14  and  CB_15 
REMARK    8  A    between atoms: C_22  and  CA_14 
REMARK    9  A    between atoms: CB_15  and  CG_16 
REMARK       I    between atoms: C_22  and  N_24 
REMARK   10  A    between atoms: N_24  and  CA_25 
REMARK   11  A    between atoms: CA_25  and  CB_28 
REMARK   12  A    between atoms: CA_25  and  C_26 
REMARK   13  A    between atoms: CB_28  and  CG_29 
ROOT
ATOM      1  CA  MOL d          38.000  39.747  -3.995  0.00  0.00     0.036 C 
ATOM      2  H14 MOL d          37.513  39.306  -3.112  0.00  0.00     0.056 H 
ENDROOT
BRANCH   1   3
ATOM      3  CM  MOL d          39.445  39.211  -4.018  0.00  0.00     0.021 C 
ATOM      4  H12 MOL d          39.649  38.841  -5.034  0.00  0.00     0.050 H 
ATOM      5  H13 MOL d          40.118  40.051  -3.792  0.00  0.00     0.050 H 
BRANCH   3   6
ATOM      6  P   MOL d          39.806  37.912  -2.889  0.00  0.00     0.138 P 
ATOM      7  O1P MOL d          39.039  38.095  -1.613  0.00  0.00    -0.666 OA
ATOM      8  O2P MOL d          41.237  37.865  -2.527  0.00  0.00    -0.666 OA
BRANCH   6   9
ATOM      9  CA  MOL d          39.385  36.579  -3.889  0.00  0.00     0.177 C 
ATOM     10  H4  MOL d          38.286  36.595  -3.910  0.00  0.00     0.101 H 
BRANCH   9  11
ATOM     11  N   MOL d          39.900  36.787  -5.261  0.00  0.00    -0.065 N 
ATOM     12  H1  MOL d          39.204  37.265  -5.812  0.00  0.00     0.275 HD
ATOM     13  H2  MOL d          40.106  35.894  -5.681  0.00  0.00     0.275 HD
ATOM     14  H3  MOL d          40.740  37.343  -5.224  0.00  0.00     0.275 HD
ENDBRANCH   9  11
BRANCH   9  15
ATOM     15  CB  MOL d          39.761  35.174  -3.662  0.00  0.00    -0.005 C 
ATOM     16  H5  MOL d          40.857  35.094  -3.713  0.00  0.00     0.044 H 
ATOM     17  H6  MOL d          39.311  34.561  -4.457  0.00  0.00     0.044 H 
BRANCH  15  18
ATOM     18  CG  MOL d          39.298  34.634  -2.314  0.00  0.00    -0.056 A 
ATOM     19  CD1 MOL d          37.948  34.281  -2.174  0.00  0.00    -0.077 A 
ATOM     20  CE1 MOL d          37.568  33.805  -0.915  0.00  0.00    -0.082 A 
ATOM     21  H7  MOL d          37.242  34.372  -2.991  0.00  0.00     0.084 H 
ATOM     22  CZ  MOL d          38.462  33.662   0.136  0.00  0.00    -0.083 A 
ATOM     23  H9  MOL d          36.531  33.535  -0.754  0.00  0.00     0.083 H 
ATOM     24  CE2 MOL d          39.773  34.035  -0.080  0.00  0.00    -0.082 A 
ATOM     25  H11 MOL d          38.142  33.270   1.094  0.00  0.00     0.083 H 
ATOM     26  CD2 MOL d          40.167  34.532  -1.249  0.00  0.00    -0.077 A 
ATOM     27  H10 MOL d          40.496  33.920   0.720  0.00  0.00     0.083 H 
ATOM     28  H8  MOL d          41.193  34.864  -1.366  0.00  0.00     0.084 H 
ENDBRANCH  15  18
ENDBRANCH   9  15
ENDBRANCH   6   9
ENDBRANCH   3   6
ENDBRANCH   1   3
BRANCH   1  29
ATOM     29  CB  MOL d          38.026  41.272  -3.796  0.00  0.00    -0.029 C 
ATOM     30  H15 MOL d          37.395  41.725  -4.575  0.00  0.00     0.041 H 
ATOM     31  H16 MOL d          39.065  41.611  -3.923  0.00  0.00     0.041 H 
BRANCH  29  32
ATOM     32  CG  MOL d          37.536  41.772  -2.455  0.00  0.00    -0.057 A 
ATOM     33  CD1 MOL d          37.358  43.125  -2.214  0.00  0.00    -0.077 A 
ATOM     34  CE1 MOL d          36.918  43.585  -0.989  0.00  0.00    -0.082 A 
ATOM     35  H17 MOL d          37.568  43.837  -3.004  0.00  0.00     0.084 H 
ATOM     36  CZ  MOL d          36.644  42.669   0.009  0.00  0.00    -0.083 A 
ATOM     37  H19 MOL d          36.789  44.647  -0.812  0.00  0.00     0.083 H 
ATOM     38  CE2 MOL d          36.821  41.314  -0.218  0.00  0.00    -0.082 A 
ATOM     39  H21 MOL d          36.290  43.012   0.974  0.00  0.00     0.083 H 
ATOM     40  CD2 MOL d          37.233  40.862  -1.455  0.00  0.00    -0.077 A 
ATOM     41  H20 MOL d          36.634  40.605   0.581  0.00  0.00     0.083 H 
ATOM     42  H18 MOL d          37.320  39.798  -1.644  0.00  0.00     0.084 H 
ENDBRANCH  29  32
ENDBRANCH   1  29
BRANCH   1  43
ATOM     43  C   MOL d          37.136  39.362  -5.202  0.00  0.00     0.223 C 
ATOM     44  O   MOL d          37.138  38.241  -5.702  0.00  0.00    -0.273 OA
ATOM     45  N   MOL d          36.368  40.327  -5.651  0.00  0.00    -0.346 N 
ATOM     46  H22 MOL d          36.433  41.164  -5.108  0.00  0.00     0.163 HD
BRANCH  45  47
ATOM     47  CA  MOL d          35.448  40.440  -6.762  0.00  0.00     0.100 C 
ATOM     48  H23 MOL d          35.852  39.934  -7.651  0.00  0.00     0.090 H 
BRANCH  47  49
ATOM     49  CB  MOL d          34.161  39.781  -6.349  0.00  0.00    -0.013 C 
ATOM     50  H24 MOL d          33.550  40.588  -5.919  0.00  0.00     0.043 H 
ATOM     51  H25 MOL d          34.441  39.072  -5.558  0.00  0.00     0.043 H 
BRANCH  49  52
ATOM     52  CG  MOL d          33.237  39.024  -7.245  0.00  0.00    -0.056 A 
ATOM     53  CD1 MOL d          32.539  37.921  -6.798  0.00  0.00    -0.077 A 
ATOM     54  CE1 MOL d          31.660  37.218  -7.602  0.00  0.00    -0.082 A 
ATOM     55  H26 MOL d          32.686  37.592  -5.775  0.00  0.00     0.084 H 
ATOM     56  CZ  MOL d          31.479  37.640  -8.908  0.00  0.00    -0.083 A 
ATOM     57  H28 MOL d          31.125  36.357  -7.219  0.00  0.00     0.083 H 
ATOM     58  CE2 MOL d          32.173  38.742  -9.381  0.00  0.00    -0.082 A 
ATOM     59  H30 MOL d          30.794  37.109  -9.560  0.00  0.00     0.083 H 
ATOM     60  CD2 MOL d          33.043  39.433  -8.559  0.00  0.00    -0.077 A 
ATOM     61  H29 MOL d          32.033  39.065 -10.406  0.00  0.00     0.083 H 
ATOM     62  H27 MOL d          33.575  40.298  -8.940  0.00  0.00     0.084 H 
ENDBRANCH  49  52
ENDBRANCH  47  49
BRANCH  47  63
ATOM     63  C   MOL d          35.265  41.930  -7.060  0.00  0.00     0.197 C 
ATOM     64  O   MOL d          35.335  42.728  -6.107  0.00  0.00    -0.646 OA
ATOM     65  OXT MOL d          35.067  42.280  -8.220  0.00  0.00    -0.646 OA
ENDBRANCH  47  63
ENDBRANCH  45  47
ENDBRANCH   1  43
TORSDOF 13
ENDMDL
MODEL 5
REMARK VINA RESULT:      -7.3      2.721      6.449
REMARK  13 active torsions:
REMARK  status: ('A' for Active; 'I' for Inactive)
REMARK    1  A    between atoms: CA_2  and  N_1 
REMARK    2  A    between atoms: P_3  and  CA_2 
REMARK    3  A    between atoms: CA_2  and  CB_6 
REMARK    4  A    between atoms: CM_13  and  P_3 
REMARK    5  A    between atoms: CB_6  and  CG_7 
REMARK    6  A    between atoms: CA_14  and  CM_13 
REMARK    7  A    between atoms: CA_14  and  CB_15 
REMARK    8  A    between atoms: C_22  and  CA_14 
REMARK    9  A    between atoms: CB_15  and  CG_16 
REMARK       I    between atoms: C_22  and  N_24 
REMARK   10  A    between atoms: N_24  and  CA_25 
REMARK   11  A    between atoms: CA_25  and  CB_28 
REMARK   12  A    between atoms: CA_25  and  C_26 
REMARK   13  A    between atoms: CB_28  and  CG_29 
ROOT
ATOM      1  CA  MOL d          37.798  39.746  -4.002  0.00  0.00     0.036 C 
ATOM      2  H14 MOL d          37.204  39.355  -3.163  0.00  0.00     0.056 H 
ENDROOT
BRANCH   1   3
ATOM      3  CM  MOL d          39.197  39.111  -3.888  0.00  0.00     0.021 C 
ATOM      4  H12 MOL d          39.586  38.968  -4.908  0.00  0.00     0.050 H 
ATOM      5  H13 MOL d          39.843  39.816  -3.345  0.00  0.00     0.050 H 
BRANCH   3   6
ATOM      6  P   MOL d          39.278  37.560  -3.061  0.00  0.00     0.138 P 
ATOM      7  O1P MOL d          37.900  37.023  -2.815  0.00  0.00    -0.666 OA
ATOM      8  O2P MOL d          39.941  37.660  -1.745  0.00  0.00    -0.666 OA
BRANCH   6   9
ATOM      9  CA  MOL d          40.273  36.722  -4.184  0.00  0.00     0.177 C 
ATOM     10  H4  MOL d          40.313  37.389  -5.057  0.00  0.00     0.101 H 
BRANCH   9  11
ATOM     11  N   MOL d          41.638  36.559  -3.635  0.00  0.00    -0.065 N 
ATOM     12  H1  MOL d          42.193  37.366  -3.869  0.00  0.00     0.275 HD
ATOM     13  H2  MOL d          42.062  35.734  -4.030  0.00  0.00     0.275 HD
ATOM     14  H3  MOL d          41.588  36.464  -2.633  0.00  0.00     0.275 HD
ENDBRANCH   9  11
BRANCH   9  15
ATOM     15  CB  MOL d          40.027  35.374  -4.720  0.00  0.00    -0.005 C 
ATOM     16  H5  MOL d          39.648  34.739  -3.906  0.00  0.00     0.044 H 
ATOM     17  H6  MOL d          40.980  34.967  -5.090  0.00  0.00     0.044 H 
BRANCH  15  18
ATOM     18  CG  MOL d          39.017  35.353  -5.862  0.00  0.00    -0.056 A 
ATOM     19  CD1 MOL d          39.392  35.928  -7.085  0.00  0.00    -0.077 A 
ATOM     20  CE1 MOL d          38.427  35.896  -8.096  0.00  0.00    -0.082 A 
ATOM     21  H7  MOL d          40.370  36.369  -7.237  0.00  0.00     0.084 H 
ATOM     22  CZ  MOL d          37.178  35.316  -7.927  0.00  0.00    -0.083 A 
ATOM     23  H9  MOL d          38.665  36.344  -9.054  0.00  0.00     0.083 H 
ATOM     24  CE2 MOL d          36.883  34.775  -6.692  0.00  0.00    -0.082 A 
ATOM     25  H11 MOL d          36.459  35.290  -8.736  0.00  0.00     0.083 H 
ATOM     26  CD2 MOL d          37.756  34.822  -5.690  0.00  0.00    -0.077 A 
ATOM     27  H10 MOL d          35.920  34.303  -6.536  0.00  0.00     0.083 H 
ATOM     28  H8  MOL d          37.471  34.433  -4.719  0.00  0.00     0.084 H 
ENDBRANCH  15  18
ENDBRANCH   9  15
ENDBRANCH   6   9
ENDBRANCH   3   6
ENDBRANCH   1   3
BRANCH   1  29
ATOM     29  CB  MOL d          37.914  41.269  -3.819  0.00  0.00    -0.029 C 
ATOM     30  H15 MOL d          37.293  41.750  -4.590  0.00  0.00     0.041 H 
ATOM     31  H16 MOL d          38.967  41.547  -3.970  0.00  0.00     0.041 H 
BRANCH  29  32
ATOM     32  CG  MOL d          37.480  41.807  -2.473  0.00  0.00    -0.057 A 
ATOM     33  CD1 MOL d          37.305  43.166  -2.266  0.00  0.00    -0.077 A 
ATOM     34  CE1 MOL d          36.916  43.661  -1.037  0.00  0.00    -0.082 A 
ATOM     35  H17 MOL d          37.477  43.855  -3.085  0.00  0.00     0.084 H 
ATOM     36  CZ  MOL d          36.691  42.775  -0.001  0.00  0.00    -0.083 A 
ATOM     37  H19 MOL d          36.790  44.728  -0.887  0.00  0.00     0.083 H 
ATOM     38  CE2 MOL d          36.864  41.414  -0.194  0.00  0.00    -0.082 A 
ATOM     39  H21 MOL d          36.376  43.145   0.967  0.00  0.00     0.083 H 
ATOM     40  CD2 MOL d          37.225  40.926  -1.435  0.00  0.00    -0.077 A 
ATOM     41  H20 MOL d          36.715  40.729   0.632  0.00  0.00     0.083 H 
ATOM     42  H18 MOL d          37.309  39.858  -1.595  0.00  0.00     0.084 H 
ENDBRANCH  29  32
ENDBRANCH   1  29
BRANCH   1  43
ATOM     43  C   MOL d          37.021  39.400  -5.279  0.00  0.00     0.223 C 
ATOM     44  O   MOL d          37.073  38.301  -5.823  0.00  0.00    -0.273 OA
ATOM     45  N   MOL d          36.269  40.373  -5.737  0.00  0.00    -0.346 N 
ATOM     46  H22 MOL d          36.285  41.188  -5.158  0.00  0.00     0.163 HD
BRANCH  45  47
ATOM     47  CA  MOL d          35.422  40.521  -6.902  0.00  0.00     0.100 C 
ATOM     48  H23 MOL d          35.907  40.089  -7.789  0.00  0.00     0.090 H 
BRANCH  47  49
ATOM     49  CB  MOL d          34.140  39.787  -6.621  0.00  0.00    -0.013 C 
ATOM     50  H24 MOL d          33.342  40.526  -6.791  0.00  0.00     0.043 H 
ATOM     51  H25 MOL d          34.182  39.532  -5.552  0.00  0.00     0.043 H 
BRANCH  49  52
ATOM     52  CG  MOL d          33.675  38.543  -7.303  0.00  0.00    -0.056 A 
ATOM     53  CD1 MOL d          32.456  37.969  -7.006  0.00  0.00    -0.077 A 
ATOM     54  CE1 MOL d          31.994  36.830  -7.641  0.00  0.00    -0.082 A 
ATOM     55  H26 MOL d          31.836  38.428  -6.245  0.00  0.00     0.084 H 
ATOM     56  CZ  MOL d          32.791  36.245  -8.610  0.00  0.00    -0.083 A 
ATOM     57  H28 MOL d          31.030  36.405  -7.387  0.00  0.00     0.083 H 
ATOM     58  CE2 MOL d          34.022  36.801  -8.921  0.00  0.00    -0.082 A 
ATOM     59  H30 MOL d          32.452  35.353  -9.125  0.00  0.00     0.083 H 
ATOM     60  CD2 MOL d          34.462  37.942  -8.278  0.00  0.00    -0.077 A 
ATOM     61  H29 MOL d          34.645  36.336  -9.676  0.00  0.00     0.083 H 
ATOM     62  H27 MOL d          35.424  38.370  -8.536  0.00  0.00     0.084 H 
ENDBRANCH  49  52
ENDBRANCH  47  49
BRANCH  47  63
ATOM     63  C   MOL d          35.195  42.019  -7.119  0.00  0.00     0.197 C 
ATOM     64  O   MOL d          34.890  42.403  -8.264  0.00  0.00    -0.646 OA
ATOM     65  OXT MOL d          35.314  42.778  -6.161  0.00  0.00    -0.646 OA
ENDBRANCH  47  63
ENDBRANCH  45  47
ENDBRANCH   1  43
TORSDOF 13
ENDMDL
MODEL 6
REMARK VINA RESULT:      -7.3      2.043      7.564
REMARK  13 active torsions:
REMARK  status: ('A' for Active; 'I' for Inactive)
REMARK    1  A    between atoms: CA_2  and  N_1 
REMARK    2  A    between atoms: P_3  and  CA_2 
REMARK    3  A    between atoms: CA_2  and  CB_6 
REMARK    4  A    between atoms: CM_13  and  P_3 
REMARK    5  A    between atoms: CB_6  and  CG_7 
REMARK    6  A    between atoms: CA_14  and  CM_13 
REMARK    7  A    between atoms: CA_14  and  CB_15 
REMARK    8  A    between atoms: C_22  and  CA_14 
REMARK    9  A    between atoms: CB_15  and  CG_16 
REMARK       I    between atoms: C_22  and  N_24 
REMARK   10  A    between atoms: N_24  and  CA_25 
REMARK   11  A    between atoms: CA_25  and  CB_28 
REMARK   12  A    between atoms: CA_25  and  C_26 
REMARK   13  A    between atoms: CB_28  and  CG_29 
ROOT
ATOM      1  CA  MOL d          38.745  39.315  -4.192  0.00  0.00     0.036 C 
ATOM      2  H14 MOL d          38.903  39.877  -5.124  0.00  0.00     0.056 H 
ENDROOT
BRANCH   1   3
ATOM      3  CM  MOL d          37.810  40.168  -3.313  0.00  0.00     0.021 C 
ATOM      4  H12 MOL d          36.950  39.542  -3.031  0.00  0.00     0.050 H 
ATOM      5  H13 MOL d          38.367  40.454  -2.409  0.00  0.00     0.050 H 
BRANCH   3   6
ATOM      6  P   MOL d          37.186  41.639  -4.048  0.00  0.00     0.138 P 
ATOM      7  O1P MOL d          36.550  41.336  -5.372  0.00  0.00    -0.666 OA
ATOM      8  O2P MOL d          38.247  42.635  -4.299  0.00  0.00    -0.666 OA
BRANCH   6   9
ATOM      9  CA  MOL d          36.160  42.150  -2.768  0.00  0.00     0.177 C 
ATOM     10  H4  MOL d          36.078  43.238  -2.907  0.00  0.00     0.101 H 
BRANCH   9  11
ATOM     11  N   MOL d          34.819  41.540  -2.912  0.00  0.00    -0.065 N 
ATOM     12  H1  MOL d          34.908  40.536  -2.945  0.00  0.00     0.275 HD
ATOM     13  H2  MOL d          34.391  41.867  -3.764  0.00  0.00     0.275 HD
ATOM     14  H3  MOL d          34.245  41.800  -2.126  0.00  0.00     0.275 HD
ENDBRANCH   9  11
BRANCH   9  15
ATOM     15  CB  MOL d          36.403  41.947  -1.331  0.00  0.00    -0.005 C 
ATOM     16  H5  MOL d          37.037  41.057  -1.207  0.00  0.00     0.044 H 
ATOM     17  H6  MOL d          35.436  41.780  -0.834  0.00  0.00     0.044 H 
BRANCH  15  18
ATOM     18  CG  MOL d          37.093  43.131  -0.661  0.00  0.00    -0.056 A 
ATOM     19  CD1 MOL d          37.793  42.897   0.531  0.00  0.00    -0.077 A 
ATOM     20  CE1 MOL d          38.397  44.015   1.115  0.00  0.00    -0.082 A 
ATOM     21  H7  MOL d          37.862  41.910   0.973  0.00  0.00     0.084 H 
ATOM     22  CZ  MOL d          38.337  45.282   0.552  0.00  0.00    -0.083 A 
ATOM     23  H9  MOL d          38.935  43.887   2.047  0.00  0.00     0.083 H 
ATOM     24  CE2 MOL d          37.625  45.431  -0.621  0.00  0.00    -0.082 A 
ATOM     25  H11 MOL d          38.832  46.125   1.017  0.00  0.00     0.083 H 
ATOM     26  CD2 MOL d          37.000  44.402  -1.187  0.00  0.00    -0.077 A 
ATOM     27  H10 MOL d          37.574  46.407  -1.090  0.00  0.00     0.083 H 
ATOM     28  H8  MOL d          36.407  44.566  -2.079  0.00  0.00     0.084 H 
ENDBRANCH  15  18
ENDBRANCH   9  15
ENDBRANCH   6   9
ENDBRANCH   3   6
ENDBRANCH   1   3
BRANCH   1  29
ATOM     29  CB  MOL d          40.110  39.175  -3.496  0.00  0.00    -0.029 C 
ATOM     30  H15 MOL d          40.249  40.052  -2.847  0.00  0.00     0.041 H 
ATOM     31  H16 MOL d          40.886  39.170  -4.276  0.00  0.00     0.041 H 
BRANCH  29  32
ATOM     32  CG  MOL d          40.295  37.937  -2.648  0.00  0.00    -0.057 A 
ATOM     33  CD1 MOL d          41.177  36.935  -3.023  0.00  0.00    -0.077 A 
ATOM     34  CE1 MOL d          41.343  35.799  -2.255  0.00  0.00    -0.082 A 
ATOM     35  H17 MOL d          41.747  37.045  -3.938  0.00  0.00     0.084 H 
ATOM     36  CZ  MOL d          40.618  35.672  -1.086  0.00  0.00    -0.083 A 
ATOM     37  H19 MOL d          42.031  35.020  -2.564  0.00  0.00     0.083 H 
ATOM     38  CE2 MOL d          39.732  36.665  -0.700  0.00  0.00    -0.082 A 
ATOM     39  H21 MOL d          40.742  34.792  -0.467  0.00  0.00     0.083 H 
ATOM     40  CD2 MOL d          39.594  37.810  -1.460  0.00  0.00    -0.077 A 
ATOM     41  H20 MOL d          39.144  36.543   0.202  0.00  0.00     0.083 H 
ATOM     42  H18 MOL d          38.939  38.606  -1.128  0.00  0.00     0.084 H 
ENDBRANCH  29  32
ENDBRANCH   1  29
BRANCH   1  43
ATOM     43  C   MOL d          38.191  37.944  -4.603  0.00  0.00     0.223 C 
ATOM     44  O   MOL d          37.728  37.137  -3.802  0.00  0.00    -0.273 OA
ATOM     45  N   MOL d          38.230  37.707  -5.892  0.00  0.00    -0.346 N 
ATOM     46  H22 MOL d          38.581  38.479  -6.423  0.00  0.00     0.163 HD
BRANCH  45  47
ATOM     47  CA  MOL d          37.874  36.569  -6.713  0.00  0.00     0.100 C 
ATOM     48  H23 MOL d          37.409  35.782  -6.101  0.00  0.00     0.090 H 
BRANCH  47  49
ATOM     49  CB  MOL d          36.893  37.049  -7.746  0.00  0.00    -0.013 C 
ATOM     50  H24 MOL d          36.877  36.264  -8.516  0.00  0.00     0.043 H 
ATOM     51  H25 MOL d          37.338  37.963  -8.164  0.00  0.00     0.043 H 
BRANCH  49  52
ATOM     52  CG  MOL d          35.459  37.388  -7.502  0.00  0.00    -0.056 A 
ATOM     53  CD1 MOL d          34.465  36.436  -7.595  0.00  0.00    -0.077 A 
ATOM     54  CE1 MOL d          33.133  36.722  -7.351  0.00  0.00    -0.082 A 
ATOM     55  H26 MOL d          34.738  35.424  -7.871  0.00  0.00     0.084 H 
ATOM     56  CZ  MOL d          32.789  38.016  -7.002  0.00  0.00    -0.083 A 
ATOM     57  H28 MOL d          32.377  35.949  -7.430  0.00  0.00     0.083 H 
ATOM     58  CE2 MOL d          33.770  38.991  -6.908  0.00  0.00    -0.082 A 
ATOM     59  H30 MOL d          31.753  38.267  -6.803  0.00  0.00     0.083 H 
ATOM     60  CD2 MOL d          35.095  38.683  -7.151  0.00  0.00    -0.077 A 
ATOM     61  H29 MOL d          33.495  40.004  -6.641  0.00  0.00     0.083 H 
ATOM     62  H27 MOL d          35.853  39.454  -7.068  0.00  0.00     0.084 H 
ENDBRANCH  49  52
ENDBRANCH  47  49
BRANCH  47  63
ATOM     63  C   MOL d          39.162  36.035  -7.344  0.00  0.00     0.197 C 
ATOM     64  O   MOL d          39.063  35.332  -8.367  0.00  0.00    -0.646 OA
ATOM     65  OXT MOL d          40.237  36.324  -6.824  0.00  0.00    -0.646 OA
ENDBRANCH  47  63
ENDBRANCH  45  47
ENDBRANCH   1  43
TORSDOF 13
ENDMDL
MODEL 7
REMARK VINA RESULT:      -7.2      1.606      7.959
REMARK  13 active torsions:
REMARK  status: ('A' for Active; 'I' for Inactive)
REMARK    1  A    between atoms: CA_2  and  N_1 
REMARK    2  A    between atoms: P_3  and  CA_2 
REMARK    3  A    between atoms: CA_2  and  CB_6 
REMARK    4  A    between atoms: CM_13  and  P_3 
REMARK    5  A    between atoms: CB_6  and  CG_7 
REMARK    6  A    between atoms: CA_14  and  CM_13 
REMARK    7  A    between atoms: CA_14  and  CB_15 
REMARK    8  A    between atoms: C_22  and  CA_14 
REMARK    9  A    between atoms: CB_15  and  CG_16 
REMARK       I    between atoms: C_22  and  N_24 
REMARK   10  A    between atoms: N_24  and  CA_25 
REMARK   11  A    between atoms: CA_25  and  CB_28 
REMARK   12  A    between atoms: CA_25  and  C_26 
REMARK   13  A    between atoms: CB_28  and  CG_29 
ROOT
ATOM      1  CA  MOL d          37.927  39.431  -5.030  0.00  0.00     0.036 C 
ATOM      2  H14 MOL d          38.418  40.245  -5.584  0.00  0.00     0.056 H 
ENDROOT
BRANCH   1   3
ATOM      3  CM  MOL d          37.393  40.045  -3.721  0.00  0.00     0.021 C 
ATOM      4  H12 MOL d          36.297  39.953  -3.729  0.00  0.00     0.050 H 
ATOM      5  H13 MOL d          37.805  39.462  -2.884  0.00  0.00     0.050 H 
BRANCH   3   6
ATOM      6  P   MOL d          37.788  41.737  -3.442  0.00  0.00     0.138 P 
ATOM      7  O1P MOL d          38.317  42.367  -4.696  0.00  0.00    -0.666 OA
ATOM      8  O2P MOL d          38.825  41.908  -2.405  0.00  0.00    -0.666 OA
BRANCH   6   9
ATOM      9  CA  MOL d          36.257  42.266  -2.868  0.00  0.00     0.177 C 
ATOM     10  H4  MOL d          36.230  43.336  -3.120  0.00  0.00     0.101 H 
BRANCH   9  11
ATOM     11  N   MOL d          35.171  41.569  -3.593  0.00  0.00    -0.065 N 
ATOM     12  H1  MOL d          35.392  41.532  -4.576  0.00  0.00     0.275 HD
ATOM     13  H2  MOL d          34.306  42.069  -3.462  0.00  0.00     0.275 HD
ATOM     14  H3  MOL d          35.075  40.632  -3.235  0.00  0.00     0.275 HD
ENDBRANCH   9  11
BRANCH   9  15
ATOM     15  CB  MOL d          35.772  42.168  -1.483  0.00  0.00    -0.005 C 
ATOM     16  H5  MOL d          35.660  41.105  -1.226  0.00  0.00     0.044 H 
ATOM     17  H6  MOL d          34.793  42.665  -1.420  0.00  0.00     0.044 H 
BRANCH  15  18
ATOM     18  CG  MOL d          36.708  42.815  -0.467  0.00  0.00    -0.056 A 
ATOM     19  CD1 MOL d          37.137  44.128  -0.710  0.00  0.00    -0.077 A 
ATOM     20  CE1 MOL d          38.005  44.673   0.242  0.00  0.00    -0.082 A 
ATOM     21  H7  MOL d          36.816  44.687  -1.581  0.00  0.00     0.084 H 
ATOM     22  CZ  MOL d          38.410  43.981   1.374  0.00  0.00    -0.083 A 
ATOM     23  H9  MOL d          38.377  45.679   0.088  0.00  0.00     0.083 H 
ATOM     24  CE2 MOL d          37.947  42.692   1.539  0.00  0.00    -0.082 A 
ATOM     25  H11 MOL d          39.067  44.438   2.104  0.00  0.00     0.083 H 
ATOM     26  CD2 MOL d          37.154  42.121   0.637  0.00  0.00    -0.077 A 
ATOM     27  H10 MOL d          38.235  42.133   2.423  0.00  0.00     0.083 H 
ATOM     28  H8  MOL d          36.851  41.088   0.773  0.00  0.00     0.084 H 
ENDBRANCH  15  18
ENDBRANCH   9  15
ENDBRANCH   6   9
ENDBRANCH   3   6
ENDBRANCH   1   3
BRANCH   1  29
ATOM     29  CB  MOL d          39.002  38.382  -4.698  0.00  0.00    -0.029 C 
ATOM     30  H15 MOL d          39.975  38.894  -4.665  0.00  0.00     0.041 H 
ATOM     31  H16 MOL d          39.007  37.637  -5.508  0.00  0.00     0.041 H 
BRANCH  29  32
ATOM     32  CG  MOL d          38.822  37.643  -3.391  0.00  0.00    -0.057 A 
ATOM     33  CD1 MOL d          38.028  36.509  -3.310  0.00  0.00    -0.077 A 
ATOM     34  CE1 MOL d          37.855  35.837  -2.116  0.00  0.00    -0.082 A 
ATOM     35  H17 MOL d          37.533  36.143  -4.201  0.00  0.00     0.084 H 
ATOM     36  CZ  MOL d          38.499  36.307  -0.986  0.00  0.00    -0.083 A 
ATOM     37  H19 MOL d          37.227  34.955  -2.065  0.00  0.00     0.083 H 
ATOM     38  CE2 MOL d          39.293  37.440  -1.053  0.00  0.00    -0.082 A 
ATOM     39  H21 MOL d          38.381  35.786  -0.043  0.00  0.00     0.083 H 
ATOM     40  CD2 MOL d          39.482  38.088  -2.257  0.00  0.00    -0.077 A 
ATOM     41  H20 MOL d          39.768  37.819  -0.156  0.00  0.00     0.083 H 
ATOM     42  H18 MOL d          40.145  38.943  -2.315  0.00  0.00     0.084 H 
ENDBRANCH  29  32
ENDBRANCH   1  29
BRANCH   1  43
ATOM     43  C   MOL d          36.860  38.853  -5.967  0.00  0.00     0.223 C 
ATOM     44  O   MOL d          36.760  37.655  -6.218  0.00  0.00    -0.273 OA
ATOM     45  N   MOL d          36.036  39.743  -6.468  0.00  0.00    -0.346 N 
ATOM     46  H22 MOL d          36.205  40.668  -6.129  0.00  0.00     0.163 HD
BRANCH  45  47
ATOM     47  CA  MOL d          34.935  39.675  -7.406  0.00  0.00     0.100 C 
ATOM     48  H23 MOL d          35.226  39.105  -8.300  0.00  0.00     0.090 H 
BRANCH  47  49
ATOM     49  CB  MOL d          33.797  38.979  -6.713  0.00  0.00    -0.013 C 
ATOM     50  H24 MOL d          33.094  39.780  -6.438  0.00  0.00     0.043 H 
ATOM     51  H25 MOL d          34.235  38.547  -5.802  0.00  0.00     0.043 H 
BRANCH  49  52
ATOM     52  CG  MOL d          32.950  37.895  -7.292  0.00  0.00    -0.056 A 
ATOM     53  CD1 MOL d          31.835  38.178  -8.055  0.00  0.00    -0.077 A 
ATOM     54  CE1 MOL d          31.049  37.190  -8.621  0.00  0.00    -0.082 A 
ATOM     55  H26 MOL d          31.565  39.215  -8.216  0.00  0.00     0.084 H 
ATOM     56  CZ  MOL d          31.396  35.867  -8.410  0.00  0.00    -0.083 A 
ATOM     57  H28 MOL d          30.181  37.447  -9.218  0.00  0.00     0.083 H 
ATOM     58  CE2 MOL d          32.508  35.559  -7.642  0.00  0.00    -0.082 A 
ATOM     59  H30 MOL d          30.798  35.073  -8.844  0.00  0.00     0.083 H 
ATOM     60  CD2 MOL d          33.283  36.561  -7.090  0.00  0.00    -0.077 A 
ATOM     61  H29 MOL d          32.773  34.522  -7.474  0.00  0.00     0.083 H 
ATOM     62  H27 MOL d          34.154  36.305  -6.497  0.00  0.00     0.084 H 
ENDBRANCH  49  52
ENDBRANCH  47  49
BRANCH  47  63
ATOM     63  C   MOL d          34.580  41.109  -7.805  0.00  0.00     0.197 C 
ATOM     64  O   MOL d          33.443  41.322  -8.264  0.00  0.00    -0.646 OA
ATOM     65  OXT MOL d          35.422  41.990  -7.650  0.00  0.00    -0.646 OA
ENDBRANCH  47  63
ENDBRANCH  45  47
ENDBRANCH   1  43
TORSDOF 13
ENDMDL
MODEL 8
REMARK VINA RESULT:      -7.2      2.218      6.037
REMARK  13 active torsions:
REMARK  status: ('A' for Active; 'I' for Inactive)
REMARK    1  A    between atoms: CA_2  and  N_1 
REMARK    2  A    between atoms: P_3  and  CA_2 
REMARK    3  A    between atoms: CA_2  and  CB_6 
REMARK    4  A    between atoms: CM_13  and  P_3 
REMARK    5  A    between atoms: CB_6  and  CG_7 
REMARK    6  A    between atoms: CA_14  and  CM_13 
REMARK    7  A    between atoms: CA_14  and  CB_15 
REMARK    8  A    between atoms: C_22  and  CA_14 
REMARK    9  A    between atoms: CB_15  and  CG_16 
REMARK       I    between atoms: C_22  and  N_24 
REMARK   10  A    between atoms: N_24  and  CA_25 
REMARK   11  A    between atoms: CA_25  and  CB_28 
REMARK   12  A    between atoms: CA_25  and  C_26 
REMARK   13  A    between atoms: CB_28  and  CG_29 
ROOT
ATOM      1  CA  MOL d          38.781  38.809  -3.739  0.00  0.00     0.036 C 
ATOM      2  H14 MOL d          37.901  38.237  -3.409  0.00  0.00     0.056 H 
ENDROOT
BRANCH   1   3
ATOM      3  CM  MOL d          39.195  38.234  -5.108  0.00  0.00     0.021 C 
ATOM      4  H12 MOL d          38.723  38.851  -5.887  0.00  0.00     0.050 H 
ATOM      5  H13 MOL d          40.289  38.314  -5.189  0.00  0.00     0.050 H 
BRANCH   3   6
ATOM      6  P   MOL d          38.754  36.558  -5.408  0.00  0.00     0.138 P 
ATOM      7  O1P MOL d          37.646  36.133  -4.492  0.00  0.00    -0.666 OA
ATOM      8  O2P MOL d          39.881  35.631  -5.178  0.00  0.00    -0.666 OA
BRANCH   6   9
ATOM      9  CA  MOL d          38.399  36.683  -7.085  0.00  0.00     0.177 C 
ATOM     10  H4  MOL d          38.457  37.762  -7.292  0.00  0.00     0.101 H 
BRANCH   9  11
ATOM     11  N   MOL d          39.431  35.980  -7.880  0.00  0.00    -0.065 N 
ATOM     12  H1  MOL d          40.174  36.621  -8.108  0.00  0.00     0.275 HD
ATOM     13  H2  MOL d          39.018  35.629  -8.730  0.00  0.00     0.275 HD
ATOM     14  H3  MOL d          39.802  35.212  -7.344  0.00  0.00     0.275 HD
ENDBRANCH   9  11
BRANCH   9  15
ATOM     15  CB  MOL d          37.172  36.214  -7.747  0.00  0.00    -0.005 C 
ATOM     16  H5  MOL d          36.576  35.648  -7.016  0.00  0.00     0.044 H 
ATOM     17  H6  MOL d          37.455  35.553  -8.580  0.00  0.00     0.044 H 
BRANCH  15  18
ATOM     18  CG  MOL d          36.312  37.346  -8.300  0.00  0.00    -0.056 A 
ATOM     19  CD1 MOL d          35.852  38.322  -7.404  0.00  0.00    -0.077 A 
ATOM     20  CE1 MOL d          35.056  39.330  -7.955  0.00  0.00    -0.082 A 
ATOM     21  H7  MOL d          36.097  38.295  -6.349  0.00  0.00     0.084 H 
ATOM     22  CZ  MOL d          34.749  39.393  -9.307  0.00  0.00    -0.083 A 
ATOM     23  H9  MOL d          34.662  40.098  -7.298  0.00  0.00     0.083 H 
ATOM     24  CE2 MOL d          35.237  38.393 -10.123  0.00  0.00    -0.082 A 
ATOM     25  H11 MOL d          34.147  40.199  -9.708  0.00  0.00     0.083 H 
ATOM     26  CD2 MOL d          35.962  37.392  -9.633  0.00  0.00    -0.077 A 
ATOM     27  H10 MOL d          35.025  38.424 -11.186  0.00  0.00     0.083 H 
ATOM     28  H8  MOL d          36.285  36.595 -10.294  0.00  0.00     0.084 H 
ENDBRANCH  15  18
ENDBRANCH   9  15
ENDBRANCH   6   9
ENDBRANCH   3   6
ENDBRANCH   1   3
BRANCH   1  29
ATOM     29  CB  MOL d          39.907  38.557  -2.720  0.00  0.00    -0.029 C 
ATOM     30  H15 MOL d          39.903  39.390  -2.001  0.00  0.00     0.041 H 
ATOM     31  H16 MOL d          40.861  38.549  -3.268  0.00  0.00     0.041 H 
BRANCH  29  32
ATOM     32  CG  MOL d          39.810  37.267  -1.936  0.00  0.00    -0.057 A 
ATOM     33  CD1 MOL d          38.614  36.861  -1.365  0.00  0.00    -0.077 A 
ATOM     34  CE1 MOL d          38.524  35.689  -0.642  0.00  0.00    -0.082 A 
ATOM     35  H17 MOL d          37.731  37.478  -1.490  0.00  0.00     0.084 H 
ATOM     36  CZ  MOL d          39.653  34.906  -0.497  0.00  0.00    -0.083 A 
ATOM     37  H19 MOL d          37.583  35.387  -0.196  0.00  0.00     0.083 H 
ATOM     38  CE2 MOL d          40.856  35.301  -1.061  0.00  0.00    -0.082 A 
ATOM     39  H21 MOL d          39.598  33.978   0.059  0.00  0.00     0.083 H 
ATOM     40  CD2 MOL d          40.929  36.460  -1.806  0.00  0.00    -0.077 A 
ATOM     41  H20 MOL d          41.743  34.696  -0.915  0.00  0.00     0.083 H 
ATOM     42  H18 MOL d          41.859  36.739  -2.288  0.00  0.00     0.084 H 
ENDBRANCH  29  32
ENDBRANCH   1  29
BRANCH   1  43
ATOM     43  C   MOL d          38.361  40.284  -3.745  0.00  0.00     0.223 C 
ATOM     44  O   MOL d          39.160  41.212  -3.837  0.00  0.00    -0.273 OA
ATOM     45  N   MOL d          37.067  40.480  -3.666  0.00  0.00    -0.346 N 
ATOM     46  H22 MOL d          36.541  39.630  -3.654  0.00  0.00     0.163 HD
BRANCH  45  47
ATOM     47  CA  MOL d          36.235  41.664  -3.593  0.00  0.00     0.100 C 
ATOM     48  H23 MOL d          35.302  41.447  -3.054  0.00  0.00     0.090 H 
BRANCH  47  49
ATOM     49  CB  MOL d          37.013  42.714  -2.851  0.00  0.00    -0.013 C 
ATOM     50  H24 MOL d          36.494  43.661  -3.064  0.00  0.00     0.043 H 
ATOM     51  H25 MOL d          38.005  42.727  -3.325  0.00  0.00     0.043 H 
BRANCH  49  52
ATOM     52  CG  MOL d          37.280  42.734  -1.383  0.00  0.00    -0.056 A 
ATOM     53  CD1 MOL d          38.180  43.618  -0.823  0.00  0.00    -0.077 A 
ATOM     54  CE1 MOL d          38.426  43.670   0.538  0.00  0.00    -0.082 A 
ATOM     55  H26 MOL d          38.715  44.298  -1.475  0.00  0.00     0.084 H 
ATOM     56  CZ  MOL d          37.742  42.798   1.366  0.00  0.00    -0.083 A 
ATOM     57  H28 MOL d          39.137  44.379   0.946  0.00  0.00     0.083 H 
ATOM     58  CE2 MOL d          36.837  41.898   0.826  0.00  0.00    -0.082 A 
ATOM     59  H30 MOL d          37.913  42.819   2.437  0.00  0.00     0.083 H 
ATOM     60  CD2 MOL d          36.602  41.865  -0.535  0.00  0.00    -0.077 A 
ATOM     61  H29 MOL d          36.308  41.212   1.478  0.00  0.00     0.083 H 
ATOM     62  H27 MOL d          35.887  41.160  -0.944  0.00  0.00     0.084 H 
ENDBRANCH  49  52
ENDBRANCH  47  49
BRANCH  47  63
ATOM     63  C   MOL d          35.911  42.088  -5.028  0.00  0.00     0.197 C 
ATOM     64  O   MOL d          36.782  42.712  -5.662  0.00  0.00    -0.646 OA
ATOM     65  OXT MOL d          34.815  41.792  -5.497  0.00  0.00    -0.646 OA
ENDBRANCH  47  63
ENDBRANCH  45  47
ENDBRANCH   1  43
TORSDOF 13
ENDMDL
MODEL 9
REMARK VINA RESULT:      -6.7      1.906      7.098
REMARK  13 active torsions:
REMARK  status: ('A' for Active; 'I' for Inactive)
REMARK    1  A    between atoms: CA_2  and  N_1 
REMARK    2  A    between atoms: P_3  and  CA_2 
REMARK    3  A    between atoms: CA_2  and  CB_6 
REMARK    4  A    between atoms: CM_13  and  P_3 
REMARK    5  A    between atoms: CB_6  and  CG_7 
REMARK    6  A    between atoms: CA_14  and  CM_13 
REMARK    7  A    between atoms: CA_14  and  CB_15 
REMARK    8  A    between atoms: C_22  and  CA_14 
REMARK    9  A    between atoms: CB_15  and  CG_16 
REMARK       I    between atoms: C_22  and  N_24 
REMARK   10  A    between atoms: N_24  and  CA_25 
REMARK   11  A    between atoms: CA_25  and  CB_28 
REMARK   12  A    between atoms: CA_25  and  C_26 
REMARK   13  A    between atoms: CB_28  and  CG_29 
ROOT
ATOM      1  CA  MOL d          35.405  39.081  -7.195  0.00  0.00     0.036 C 
ATOM      2  H14 MOL d          34.442  38.637  -6.901  0.00  0.00     0.056 H 
ENDROOT
BRANCH   1   3
ATOM      3  CM  MOL d          35.928  39.856  -5.969  0.00  0.00     0.021 C 
ATOM      4  H12 MOL d          35.491  39.397  -5.070  0.00  0.00     0.050 H 
ATOM      5  H13 MOL d          37.022  39.744  -5.943  0.00  0.00     0.050 H 
BRANCH   3   6
ATOM      6  P   MOL d          35.561  41.576  -5.928  0.00  0.00     0.138 P 
ATOM      7  O1P MOL d          34.081  41.801  -6.026  0.00  0.00    -0.666 OA
ATOM      8  O2P MOL d          36.182  42.310  -7.048  0.00  0.00    -0.666 OA
BRANCH   6   9
ATOM      9  CA  MOL d          36.330  41.966  -4.441  0.00  0.00     0.177 C 
ATOM     10  H4  MOL d          36.294  41.029  -3.866  0.00  0.00     0.101 H 
BRANCH   9  11
ATOM     11  N   MOL d          37.744  42.335  -4.679  0.00  0.00    -0.065 N 
ATOM     12  H1  MOL d          38.258  42.270  -3.814  0.00  0.00     0.275 HD
ATOM     13  H2  MOL d          37.790  43.280  -5.026  0.00  0.00     0.275 HD
ATOM     14  H3  MOL d          38.146  41.707  -5.357  0.00  0.00     0.275 HD
ENDBRANCH   9  11
BRANCH   9  15
ATOM     15  CB  MOL d          35.921  43.026  -3.507  0.00  0.00    -0.005 C 
ATOM     16  H5  MOL d          34.822  43.070  -3.489  0.00  0.00     0.044 H 
ATOM     17  H6  MOL d          36.320  43.984  -3.869  0.00  0.00     0.044 H 
BRANCH  15  18
ATOM     18  CG  MOL d          36.419  42.802  -2.083  0.00  0.00    -0.056 A 
ATOM     19  CD1 MOL d          37.068  43.865  -1.437  0.00  0.00    -0.077 A 
ATOM     20  CE1 MOL d          37.518  43.607  -0.139  0.00  0.00    -0.082 A 
ATOM     21  H7  MOL d          37.211  44.827  -1.915  0.00  0.00     0.084 H 
ATOM     22  CZ  MOL d          37.325  42.389   0.496  0.00  0.00    -0.083 A 
ATOM     23  H9  MOL d          38.041  44.393   0.394  0.00  0.00     0.083 H 
ATOM     24  CE2 MOL d          36.681  41.392  -0.207  0.00  0.00    -0.082 A 
ATOM     25  H11 MOL d          37.668  42.226   1.511  0.00  0.00     0.083 H 
ATOM     26  CD2 MOL d          36.274  41.582  -1.459  0.00  0.00    -0.077 A 
ATOM     27  H10 MOL d          36.504  40.435   0.270  0.00  0.00     0.083 H 
ATOM     28  H8  MOL d          35.818  40.760  -2.000  0.00  0.00     0.084 H 
ENDBRANCH  15  18
ENDBRANCH   9  15
ENDBRANCH   6   9
ENDBRANCH   3   6
ENDBRANCH   1   3
BRANCH   1  29
ATOM     29  CB  MOL d          35.129  40.069  -8.342  0.00  0.00    -0.029 C 
ATOM     30  H15 MOL d          35.818  39.829  -9.165  0.00  0.00     0.041 H 
ATOM     31  H16 MOL d          35.339  41.083  -7.971  0.00  0.00     0.041 H 
BRANCH  29  32
ATOM     32  CG  MOL d          33.722  40.059  -8.897  0.00  0.00    -0.057 A 
ATOM     33  CD1 MOL d          33.217  41.149  -9.590  0.00  0.00    -0.077 A 
ATOM     34  CE1 MOL d          31.930  41.147 -10.092  0.00  0.00    -0.082 A 
ATOM     35  H17 MOL d          33.844  42.020  -9.741  0.00  0.00     0.084 H 
ATOM     36  CZ  MOL d          31.141  40.028  -9.902  0.00  0.00    -0.083 A 
ATOM     37  H19 MOL d          31.545  42.008 -10.626  0.00  0.00     0.083 H 
ATOM     38  CE2 MOL d          31.634  38.933  -9.209  0.00  0.00    -0.082 A 
ATOM     39  H21 MOL d          30.133  40.006 -10.296  0.00  0.00     0.083 H 
ATOM     40  CD2 MOL d          32.931  38.934  -8.736  0.00  0.00    -0.077 A 
ATOM     41  H20 MOL d          30.997  38.073  -9.038  0.00  0.00     0.083 H 
ATOM     42  H18 MOL d          33.328  38.056  -8.241  0.00  0.00     0.084 H 
ENDBRANCH  29  32
ENDBRANCH   1  29
BRANCH   1  43
ATOM     43  C   MOL d          36.290  37.921  -7.665  0.00  0.00     0.223 C 
ATOM     44  O   MOL d          36.181  37.395  -8.769  0.00  0.00    -0.273 OA
ATOM     45  N   MOL d          37.199  37.544  -6.797  0.00  0.00    -0.346 N 
ATOM     46  H22 MOL d          37.204  38.101  -5.968  0.00  0.00     0.163 HD
BRANCH  45  47
ATOM     47  CA  MOL d          38.196  36.495  -6.782  0.00  0.00     0.100 C 
ATOM     48  H23 MOL d          38.721  36.447  -7.748  0.00  0.00     0.090 H 
BRANCH  47  49
ATOM     49  CB  MOL d          39.177  36.822  -5.691  0.00  0.00    -0.013 C 
ATOM     50  H24 MOL d          39.891  37.525  -6.146  0.00  0.00     0.043 H 
ATOM     51  H25 MOL d          39.687  35.874  -5.468  0.00  0.00     0.043 H 
BRANCH  49  52
ATOM     52  CG  MOL d          38.843  37.410  -4.360  0.00  0.00    -0.056 A 
ATOM     53  CD1 MOL d          38.468  36.618  -3.294  0.00  0.00    -0.077 A 
ATOM     54  CE1 MOL d          38.176  37.138  -2.045  0.00  0.00    -0.082 A 
ATOM     55  H26 MOL d          38.399  35.546  -3.440  0.00  0.00     0.084 H 
ATOM     56  CZ  MOL d          38.263  38.508  -1.863  0.00  0.00    -0.083 A 
ATOM     57  H28 MOL d          37.887  36.488  -1.227  0.00  0.00     0.083 H 
ATOM     58  CE2 MOL d          38.632  39.323  -2.922  0.00  0.00    -0.082 A 
ATOM     59  H30 MOL d          38.042  38.942  -0.895  0.00  0.00     0.083 H 
ATOM     60  CD2 MOL d          38.924  38.783  -4.159  0.00  0.00    -0.077 A 
ATOM     61  H29 MOL d          38.692  40.395  -2.777  0.00  0.00     0.083 H 
ATOM     62  H27 MOL d          39.218  39.432  -4.977  0.00  0.00     0.084 H 
ENDBRANCH  49  52
ENDBRANCH  47  49
BRANCH  47  63
ATOM     63  C   MOL d          37.469  35.172  -6.529  0.00  0.00     0.197 C 
ATOM     64  O   MOL d          37.969  34.132  -6.996  0.00  0.00    -0.646 OA
ATOM     65  OXT MOL d          36.432  35.186  -5.871  0.00  0.00    -0.646 OA
ENDBRANCH  47  63
ENDBRANCH  45  47
ENDBRANCH   1  43
TORSDOF 13
ENDMDL
MODEL 10
REMARK VINA RESULT:      -6.6      1.770      6.997
REMARK  13 active torsions:
REMARK  status: ('A' for Active; 'I' for Inactive)
REMARK    1  A    between atoms: CA_2  and  N_1 
REMARK    2  A    between atoms: P_3  and  CA_2 
REMARK    3  A    between atoms: CA_2  and  CB_6 
REMARK    4  A    between atoms: CM_13  and  P_3 
REMARK    5  A    between atoms: CB_6  and  CG_7 
REMARK    6  A    between atoms: CA_14  and  CM_13 
REMARK    7  A    between atoms: CA_14  and  CB_15 
REMARK    8  A    between atoms: C_22  and  CA_14 
REMARK    9  A    between atoms: CB_15  and  CG_16 
REMARK       I    between atoms: C_22  and  N_24 
REMARK   10  A    between atoms: N_24  and  CA_25 
REMARK   11  A    between atoms: CA_25  and  CB_28 
REMARK   12  A    between atoms: CA_25  and  C_26 
REMARK   13  A    between atoms: CB_28  and  CG_29 
ROOT
ATOM      1  CA  MOL d          35.784  38.878  -6.559  0.00  0.00     0.036 C 
ATOM      2  H14 MOL d          34.978  38.378  -6.001  0.00  0.00     0.056 H 
ENDROOT
BRANCH   1   3
ATOM      3  CM  MOL d          36.358  39.965  -5.629  0.00  0.00     0.021 C 
ATOM      4  H12 MOL d          36.317  39.582  -4.599  0.00  0.00     0.050 H 
ATOM      5  H13 MOL d          37.406  40.134  -5.916  0.00  0.00     0.050 H 
BRANCH   3   6
ATOM      6  P   MOL d          35.535  41.520  -5.657  0.00  0.00     0.138 P 
ATOM      7  O1P MOL d          34.087  41.343  -6.004  0.00  0.00    -0.666 OA
ATOM      8  O2P MOL d          36.108  42.440  -6.660  0.00  0.00    -0.666 OA
BRANCH   6   9
ATOM      9  CA  MOL d          35.916  42.040  -4.064  0.00  0.00     0.177 C 
ATOM     10  H4  MOL d          36.085  43.121  -4.166  0.00  0.00     0.101 H 
BRANCH   9  11
ATOM     11  N   MOL d          34.765  41.811  -3.162  0.00  0.00    -0.065 N 
ATOM     12  H1  MOL d          34.462  40.853  -3.239  0.00  0.00     0.275 HD
ATOM     13  H2  MOL d          34.008  42.424  -3.422  0.00  0.00     0.275 HD
ATOM     14  H3  MOL d          35.040  42.001  -2.211  0.00  0.00     0.275 HD
ENDBRANCH   9  11
BRANCH   9  15
ATOM     15  CB  MOL d          37.022  41.539  -3.232  0.00  0.00    -0.005 C 
ATOM     16  H5  MOL d          37.945  41.561  -3.830  0.00  0.00     0.044 H 
ATOM     17  H6  MOL d          36.798  40.503  -2.940  0.00  0.00     0.044 H 
BRANCH  15  18
ATOM     18  CG  MOL d          37.246  42.360  -1.966  0.00  0.00    -0.056 A 
ATOM     19  CD1 MOL d          37.465  43.739  -2.105  0.00  0.00    -0.077 A 
ATOM     20  CE1 MOL d          37.679  44.445  -0.918  0.00  0.00    -0.082 A 
ATOM     21  H7  MOL d          37.468  44.226  -3.073  0.00  0.00     0.084 H 
ATOM     22  CZ  MOL d          37.657  43.842   0.332  0.00  0.00    -0.083 A 
ATOM     23  H9  MOL d          37.870  45.511  -0.976  0.00  0.00     0.083 H 
ATOM     24  CE2 MOL d          37.440  42.481   0.384  0.00  0.00    -0.082 A 
ATOM     25  H11 MOL d          37.806  44.420   1.235  0.00  0.00     0.083 H 
ATOM     26  CD2 MOL d          37.273  41.764  -0.724  0.00  0.00    -0.077 A 
ATOM     27  H10 MOL d          37.403  41.986   1.348  0.00  0.00     0.083 H 
ATOM     28  H8  MOL d          37.157  40.688  -0.648  0.00  0.00     0.084 H 
ENDBRANCH  15  18
ENDBRANCH   9  15
ENDBRANCH   6   9
ENDBRANCH   3   6
ENDBRANCH   1   3
BRANCH   1  29
ATOM     29  CB  MOL d          35.150  39.546  -7.792  0.00  0.00    -0.029 C 
ATOM     30  H15 MOL d          35.810  39.361  -8.652  0.00  0.00     0.041 H 
ATOM     31  H16 MOL d          35.095  40.628  -7.598  0.00  0.00     0.041 H 
BRANCH  29  32
ATOM     32  CG  MOL d          33.763  39.069  -8.160  0.00  0.00    -0.057 A 
ATOM     33  CD1 MOL d          33.116  39.546  -9.290  0.00  0.00    -0.077 A 
ATOM     34  CE1 MOL d          31.847  39.119  -9.626  0.00  0.00    -0.082 A 
ATOM     35  H17 MOL d          33.617  40.270  -9.923  0.00  0.00     0.084 H 
ATOM     36  CZ  MOL d          31.220  38.189  -8.817  0.00  0.00    -0.083 A 
ATOM     37  H19 MOL d          31.350  39.506 -10.508  0.00  0.00     0.083 H 
ATOM     38  CE2 MOL d          31.855  37.706  -7.685  0.00  0.00    -0.082 A 
ATOM     39  H21 MOL d          30.228  37.836  -9.071  0.00  0.00     0.083 H 
ATOM     40  CD2 MOL d          33.135  38.118  -7.373  0.00  0.00    -0.077 A 
ATOM     41  H20 MOL d          31.343  37.001  -7.040  0.00  0.00     0.083 H 
ATOM     42  H18 MOL d          33.647  37.698  -6.515  0.00  0.00     0.084 H 
ENDBRANCH  29  32
ENDBRANCH   1  29
BRANCH   1  43
ATOM     43  C   MOL d          36.770  37.779  -6.972  0.00  0.00     0.223 C 
ATOM     44  O   MOL d          36.717  37.196  -8.051  0.00  0.00    -0.273 OA
ATOM     45  N   MOL d          37.701  37.523  -6.083  0.00  0.00    -0.346 N 
ATOM     46  H22 MOL d          37.651  38.116  -5.280  0.00  0.00     0.163 HD
BRANCH  45  47
ATOM     47  CA  MOL d          38.786  36.566  -6.016  0.00  0.00     0.100 C 
ATOM     48  H23 MOL d          39.243  36.430  -7.007  0.00  0.00     0.090 H 
BRANCH  47  49
ATOM     49  CB  MOL d          39.809  37.112  -5.060  0.00  0.00    -0.013 C 
ATOM     50  H24 MOL d          39.863  38.189  -5.280  0.00  0.00     0.043 H 
ATOM     51  H25 MOL d          40.756  36.632  -5.344  0.00  0.00     0.043 H 
BRANCH  49  52
ATOM     52  CG  MOL d          39.754  37.019  -3.571  0.00  0.00    -0.056 A 
ATOM     53  CD1 MOL d          40.517  36.103  -2.875  0.00  0.00    -0.077 A 
ATOM     54  CE1 MOL d          40.500  36.015  -1.494  0.00  0.00    -0.082 A 
ATOM     55  H26 MOL d          41.153  35.426  -3.433  0.00  0.00     0.084 H 
ATOM     56  CZ  MOL d          39.683  36.879  -0.787  0.00  0.00    -0.083 A 
ATOM     57  H28 MOL d          41.114  35.285  -0.978  0.00  0.00     0.083 H 
ATOM     58  CE2 MOL d          38.905  37.804  -1.465  0.00  0.00    -0.082 A 
ATOM     59  H30 MOL d          39.653  36.833   0.296  0.00  0.00     0.083 H 
ATOM     60  CD2 MOL d          38.940  37.880  -2.844  0.00  0.00    -0.077 A 
ATOM     61  H29 MOL d          38.261  38.475  -0.907  0.00  0.00     0.083 H 
ATOM     62  H27 MOL d          38.330  38.612  -3.360  0.00  0.00     0.084 H 
ENDBRANCH  49  52
ENDBRANCH  47  49
BRANCH  47  63
ATOM     63  C   MOL d          38.198  35.236  -5.536  0.00  0.00     0.197 C 
ATOM     64  O   MOL d          37.197  35.274  -4.797  0.00  0.00    -0.646 OA
ATOM     65  OXT MOL d          38.728  34.191  -5.903  0.00  0.00    -0.646 OA
ENDBRANCH  47  63
ENDBRANCH  45  47
ENDBRANCH   1  43
TORSDOF 13
ENDMDL
