MODEL 1
REMARK VINA RESULT:      -7.2      0.000      0.000
REMARK  19 active torsions:
REMARK  status: ('A' for Active; 'I' for Inactive)
REMARK    1  A    between atoms: NA1_2  and  OA7_3 
REMARK    2  A    between atoms: CA2_4  and  OA2_5 
REMARK    3  A    between atoms: CA3_6  and  OA3_7 
REMARK    4  A    between atoms: CA4_8  and  OA4_9 
REMARK    5  A    between atoms: OA4_9  and  CB1_14 
REMARK    6  A    between atoms: CA5_10  and  CA6_12 
REMARK    7  A    between atoms: CA6_12  and  OA6_13 
REMARK    8  A    between atoms: CB2_15  and  OB2_20 
REMARK    9  A    between atoms: CB3_16  and  OB3_21 
REMARK   10  A    between atoms: CB4_17  and  OB4_22 
REMARK   11  A    between atoms: CB5_18  and  CB6_19 
REMARK   12  A    between atoms: CB6_19  and  OB6_24 
REMARK   13  A    between atoms: OB4_22  and  CD1_25 
REMARK   14  A    between atoms: CD2_26  and  OD2_31 
REMARK   15  A    between atoms: CD3_27  and  OD3_32 
REMARK   16  A    between atoms: CD4_28  and  OD4_33 
REMARK   17  A    between atoms: CD5_29  and  CD6_30 
REMARK   18  A    between atoms: CD6_30  and  OD6_35 
REMARK   19  A    between atoms: OD4_33  and  CD7_36 
ROOT
ATOM      1  CB1 MOL d          13.634  17.519  40.129  0.00  0.00     0.159 C 
ATOM      2  CB2 MOL d          13.405  17.885  38.585  0.00  0.00     0.110 C 
ATOM      3  CB3 MOL d          13.431  16.620  37.651  0.00  0.00     0.092 C 
ATOM      4  CB4 MOL d          14.825  15.937  37.837  0.00  0.00     0.096 C 
ATOM      5  CB5 MOL d          14.943  15.494  39.440  0.00  0.00     0.089 C 
ATOM      6  OB5 MOL d          14.873  16.715  40.277  0.00  0.00    -0.348 OA
ATOM      7  H12 MOL d          13.750  18.446  40.708  0.00  0.00     0.133 H 
ATOM      8  H13 MOL d          14.222  18.547  38.264  0.00  0.00     0.094 H 
ATOM      9  H14 MOL d          12.630  15.920  37.929  0.00  0.00     0.091 H 
ATOM     10  H15 MOL d          15.634  16.633  37.575  0.00  0.00     0.091 H 
ATOM     11  H16 MOL d          14.111  14.819  39.687  0.00  0.00     0.090 H 
ENDROOT
BRANCH   4  12
ATOM     12  OB4 MOL d          14.884  14.792  37.002  0.00  0.00    -0.348 OA
BRANCH  12  13
ATOM     13  CD1 MOL d          16.062  14.832  36.129  0.00  0.00     0.159 C 
ATOM     14  CD2 MOL d          15.738  14.751  34.583  0.00  0.00     0.110 C 
ATOM     15  CD3 MOL d          15.036  13.354  34.294  0.00  0.00     0.092 C 
ATOM     16  H23 MOL d          16.665  14.826  33.994  0.00  0.00     0.094 H 
ATOM     17  CD4 MOL d          16.032  12.210  34.669  0.00  0.00     0.092 C 
ATOM     18  H24 MOL d          14.113  13.265  34.886  0.00  0.00     0.091 H 
ATOM     19  CD5 MOL d          16.394  12.334  36.261  0.00  0.00     0.089 C 
ATOM     20  H25 MOL d          16.948  12.309  34.069  0.00  0.00     0.091 H 
ATOM     21  OD5 MOL d          16.981  13.694  36.504  0.00  0.00    -0.348 OA
ATOM     22  H26 MOL d          15.475  12.220  36.853  0.00  0.00     0.090 H 
ATOM     23  H22 MOL d          16.583  15.783  36.312  0.00  0.00     0.133 H 
BRANCH  14  24
ATOM     24  OD2 MOL d          14.871  15.858  34.268  0.00  0.00    -0.388 OA
ATOM     25  H29 MOL d          14.279  16.013  34.995  0.00  0.00     0.210 HD
ENDBRANCH  14  24
BRANCH  15  26
ATOM     26  OD3 MOL d          14.743  13.254  32.924  0.00  0.00    -0.390 OA
ATOM     27  H30 MOL d          15.270  13.881  32.442  0.00  0.00     0.210 HD
ENDBRANCH  15  26
BRANCH  17  28
ATOM     28  OD4 MOL d          15.424  10.895  34.423  0.00  0.00    -0.385 OA
BRANCH  28  29
ATOM     29  CD7 MOL d          16.026  10.145  33.335  0.00  0.00     0.005 C 
ATOM     30  H32 MOL d          15.294  10.028  32.521  0.00  0.00     0.066 H 
ATOM     31  H33 MOL d          16.331   9.152  33.699  0.00  0.00     0.066 H 
ATOM     32  H34 MOL d          16.908  10.685  32.960  0.00  0.00     0.066 H 
ENDBRANCH  28  29
ENDBRANCH  17  28
BRANCH  19  33
ATOM     33  CD6 MOL d          17.410  11.233  36.687  0.00  0.00     0.043 C 
ATOM     34  H27 MOL d          17.776  11.460  37.700  0.00  0.00     0.078 H 
ATOM     35  H28 MOL d          18.254  11.235  35.983  0.00  0.00     0.078 H 
BRANCH  33  36
ATOM     36  OD6 MOL d          16.810   9.933  36.691  0.00  0.00    -0.398 OA
ATOM     37  H31 MOL d          17.255   9.379  36.060  0.00  0.00     0.209 HD
ENDBRANCH  33  36
ENDBRANCH  19  33
ENDBRANCH  12  13
ENDBRANCH   4  12
BRANCH   3  38
ATOM     38  OB3 MOL d          13.242  17.055  36.281  0.00  0.00    -0.390 OA
ATOM     39  H20 MOL d          13.218  18.005  36.252  0.00  0.00     0.210 HD
ENDBRANCH   3  38
BRANCH   5  40
ATOM     40  CB6 MOL d          16.257  14.809  39.764  0.00  0.00     0.043 C 
ATOM     41  H17 MOL d          17.084  15.509  39.577  0.00  0.00     0.078 H 
ATOM     42  H18 MOL d          16.372  13.926  39.119  0.00  0.00     0.078 H 
BRANCH  40  43
ATOM     43  OB6 MOL d          16.288  14.411  41.092  0.00  0.00    -0.398 OA
ATOM     44  H21 MOL d          15.426  14.521  41.476  0.00  0.00     0.209 HD
ENDBRANCH  40  43
ENDBRANCH   5  40
BRANCH   2  45
ATOM     45  OB2 MOL d          12.160  18.615  38.484  0.00  0.00    -0.388 OA
ATOM     46  H19 MOL d          12.069  18.964  37.605  0.00  0.00     0.210 HD
ENDBRANCH   2  45
BRANCH   1  47
ATOM     47  OA4 MOL d          12.480  16.832  40.593  0.00  0.00    -0.348 OA
BRANCH  47  48
ATOM     48  CA4 MOL d          12.416  16.739  41.914  0.00  0.00     0.090 C 
ATOM     49  CA3 MOL d          11.556  17.931  42.473  0.00  0.00     0.094 C 
ATOM     50  CA2 MOL d          11.023  17.588  43.909  0.00  0.00     0.121 C 
ATOM     51  H4  MOL d          10.692  18.065  41.805  0.00  0.00     0.091 H 
ATOM     52  CA1 MOL d          10.261  16.251  43.843  0.00  0.00     0.159 C 
ATOM     53  H2  MOL d          11.902  17.440  44.554  0.00  0.00     0.099 H 
ATOM     54  NA1 MOL d           9.203  16.089  44.624  0.00  0.00    -0.120 NA
ATOM     55  NA5 MOL d          10.688  15.194  42.981  0.00  0.00    -0.365 N 
ATOM     56  CA5 MOL d          11.822  15.373  42.054  0.00  0.00     0.059 C 
ATOM     57  H8  MOL d          10.195  14.289  43.007  0.00  0.00     0.161 HD
ATOM     58  H7  MOL d          11.486  15.063  41.054  0.00  0.00     0.079 H 
ATOM     59  H6  MOL d          13.412  16.773  42.377  0.00  0.00     0.090 H 
BRANCH  49  60
ATOM     60  OA3 MOL d          12.229  19.075  42.506  0.00  0.00    -0.390 OA
ATOM     61  H5  MOL d          11.770  19.694  43.062  0.00  0.00     0.210 HD
ENDBRANCH  49  60
BRANCH  50  62
ATOM     62  OA2 MOL d          10.289  18.557  44.478  0.00  0.00    -0.385 OA
ATOM     63  H3  MOL d          10.403  19.365  43.993  0.00  0.00     0.210 HD
ENDBRANCH  50  62
BRANCH  54  64
ATOM     64  OA7 MOL d           8.561  14.934  44.550  0.00  0.00    -0.265 OA
ATOM     65  H1  MOL d           7.627  15.097  44.479  0.00  0.00     0.247 HD
ENDBRANCH  54  64
BRANCH  56  66
ATOM     66  CA6 MOL d          12.934  14.399  42.558  0.00  0.00     0.038 C 
ATOM     67  H9  MOL d          13.061  13.587  41.827  0.00  0.00     0.077 H 
ATOM     68  H10 MOL d          12.630  13.975  43.527  0.00  0.00     0.077 H 
BRANCH  66  69
ATOM     69  OA6 MOL d          14.127  15.059  42.710  0.00  0.00    -0.399 OA
ATOM     70  H11 MOL d          14.775  14.676  42.130  0.00  0.00     0.209 HD
ENDBRANCH  66  69
ENDBRANCH  56  66
ENDBRANCH  47  48
ENDBRANCH   1  47
TORSDOF 19
ENDMDL
MODEL 2
REMARK VINA RESULT:      -6.0      1.820      2.725
REMARK  19 active torsions:
REMARK  status: ('A' for Active; 'I' for Inactive)
REMARK    1  A    between atoms: NA1_2  and  OA7_3 
REMARK    2  A    between atoms: CA2_4  and  OA2_5 
REMARK    3  A    between atoms: CA3_6  and  OA3_7 
REMARK    4  A    between atoms: CA4_8  and  OA4_9 
REMARK    5  A    between atoms: OA4_9  and  CB1_14 
REMARK    6  A    between atoms: CA5_10  and  CA6_12 
REMARK    7  A    between atoms: CA6_12  and  OA6_13 
REMARK    8  A    between atoms: CB2_15  and  OB2_20 
REMARK    9  A    between atoms: CB3_16  and  OB3_21 
REMARK   10  A    between atoms: CB4_17  and  OB4_22 
REMARK   11  A    between atoms: CB5_18  and  CB6_19 
REMARK   12  A    between atoms: CB6_19  and  OB6_24 
REMARK   13  A    between atoms: OB4_22  and  CD1_25 
REMARK   14  A    between atoms: CD2_26  and  OD2_31 
REMARK   15  A    between atoms: CD3_27  and  OD3_32 
REMARK   16  A    between atoms: CD4_28  and  OD4_33 
REMARK   17  A    between atoms: CD5_29  and  CD6_30 
REMARK   18  A    between atoms: CD6_30  and  OD6_35 
REMARK   19  A    between atoms: OD4_33  and  CD7_36 
ROOT
ATOM      1  CB1 MOL d          12.018  16.662  38.700  0.00  0.00     0.159 C 
ATOM      2  CB2 MOL d          12.027  16.644  37.097  0.00  0.00     0.110 C 
ATOM      3  CB3 MOL d          12.748  15.377  36.507  0.00  0.00     0.092 C 
ATOM      4  CB4 MOL d          14.215  15.387  37.049  0.00  0.00     0.096 C 
ATOM      5  CB5 MOL d          14.124  15.299  38.712  0.00  0.00     0.089 C 
ATOM      6  OB5 MOL d          13.402  16.493  39.212  0.00  0.00    -0.348 OA
ATOM      7  H12 MOL d          11.635  17.631  39.050  0.00  0.00     0.133 H 
ATOM      8  H13 MOL d          12.577  17.529  36.746  0.00  0.00     0.094 H 
ATOM      9  H14 MOL d          12.237  14.458  36.829  0.00  0.00     0.091 H 
ATOM     10  H15 MOL d          14.732  16.309  36.745  0.00  0.00     0.091 H 
ATOM     11  H16 MOL d          13.582  14.385  38.992  0.00  0.00     0.090 H 
ENDROOT
BRANCH   4  12
ATOM     12  OB4 MOL d          14.898  14.258  36.531  0.00  0.00    -0.348 OA
BRANCH  12  13
ATOM     13  CD1 MOL d          16.235  14.620  36.049  0.00  0.00     0.159 C 
ATOM     14  CD2 MOL d          16.369  14.695  34.474  0.00  0.00     0.110 C 
ATOM     15  CD3 MOL d          16.076  13.248  33.881  0.00  0.00     0.092 C 
ATOM     16  H23 MOL d          17.385  15.009  34.191  0.00  0.00     0.094 H 
ATOM     17  CD4 MOL d          17.145  12.256  34.440  0.00  0.00     0.092 C 
ATOM     18  H24 MOL d          15.065  12.921  34.167  0.00  0.00     0.091 H 
ATOM     19  CD5 MOL d          17.026  12.224  36.073  0.00  0.00     0.089 C 
ATOM     20  H25 MOL d          18.149  12.594  34.145  0.00  0.00     0.091 H 
ATOM     21  OD5 MOL d          17.231  13.621  36.585  0.00  0.00    -0.348 OA
ATOM     22  H26 MOL d          16.024  11.872  36.357  0.00  0.00     0.090 H 
ATOM     23  H22 MOL d          16.478  15.615  36.451  0.00  0.00     0.133 H 
BRANCH  14  24
ATOM     24  OD2 MOL d          15.411  15.666  34.007  0.00  0.00    -0.388 OA
ATOM     25  H29 MOL d          14.764  15.823  34.685  0.00  0.00     0.210 HD
ENDBRANCH  14  24
BRANCH  15  26
ATOM     26  OD3 MOL d          16.194  13.286  32.482  0.00  0.00    -0.390 OA
ATOM     27  H30 MOL d          16.253  12.399  32.146  0.00  0.00     0.210 HD
ENDBRANCH  15  26
BRANCH  17  28
ATOM     28  OD4 MOL d          16.912  10.901  33.922  0.00  0.00    -0.385 OA
BRANCH  28  29
ATOM     29  CD7 MOL d          15.542  10.434  34.045  0.00  0.00     0.005 C 
ATOM     30  H32 MOL d          15.540   9.366  34.309  0.00  0.00     0.066 H 
ATOM     31  H33 MOL d          15.019  10.574  33.087  0.00  0.00     0.066 H 
ATOM     32  H34 MOL d          15.027  11.007  34.831  0.00  0.00     0.066 H 
ENDBRANCH  28  29
ENDBRANCH  17  28
BRANCH  19  33
ATOM     33  CD6 MOL d          18.091  11.271  36.689  0.00  0.00     0.043 C 
ATOM     34  H27 MOL d          17.965  10.268  36.255  0.00  0.00     0.078 H 
ATOM     35  H28 MOL d          17.937  11.221  37.778  0.00  0.00     0.078 H 
BRANCH  33  36
ATOM     36  OD6 MOL d          19.423  11.727  36.428  0.00  0.00    -0.398 OA
ATOM     37  H31 MOL d          19.983  11.500  37.162  0.00  0.00     0.209 HD
ENDBRANCH  33  36
ENDBRANCH  19  33
ENDBRANCH  12  13
ENDBRANCH   4  12
BRANCH   3  38
ATOM     38  OB3 MOL d          12.726  15.466  35.061  0.00  0.00    -0.390 OA
ATOM     39  H20 MOL d          13.484  15.954  34.763  0.00  0.00     0.210 HD
ENDBRANCH   3  38
BRANCH   5  40
ATOM     40  CB6 MOL d          15.487  15.296  39.374  0.00  0.00     0.043 C 
ATOM     41  H17 MOL d          15.360  15.393  40.463  0.00  0.00     0.078 H 
ATOM     42  H18 MOL d          16.074  16.147  38.997  0.00  0.00     0.078 H 
BRANCH  40  43
ATOM     43  OB6 MOL d          16.165  14.118  39.099  0.00  0.00    -0.398 OA
ATOM     44  H21 MOL d          17.072  14.204  39.370  0.00  0.00     0.209 HD
ENDBRANCH  40  43
ENDBRANCH   5  40
BRANCH   2  45
ATOM     45  OB2 MOL d          10.656  16.753  36.647  0.00  0.00    -0.388 OA
ATOM     46  H19 MOL d          10.482  17.647  36.379  0.00  0.00     0.210 HD
ENDBRANCH   2  45
BRANCH   1  47
ATOM     47  OA4 MOL d          11.143  15.635  39.146  0.00  0.00    -0.348 OA
BRANCH  47  48
ATOM     48  CA4 MOL d          10.826  15.731  40.429  0.00  0.00     0.090 C 
ATOM     49  CA3 MOL d          12.054  15.272  41.298  0.00  0.00     0.094 C 
ATOM     50  CA2 MOL d          11.932  15.845  42.754  0.00  0.00     0.121 C 
ATOM     51  H4  MOL d          12.965  15.683  40.838  0.00  0.00     0.091 H 
ATOM     52  CA1 MOL d          11.771  17.374  42.669  0.00  0.00     0.159 C 
ATOM     53  H2  MOL d          11.007  15.435  43.188  0.00  0.00     0.099 H 
ATOM     54  NA1 MOL d          12.319  18.120  43.616  0.00  0.00    -0.120 NA
ATOM     55  NA5 MOL d          11.031  17.985  41.609  0.00  0.00    -0.365 N 
ATOM     56  CA5 MOL d          10.469  17.182  40.507  0.00  0.00     0.059 C 
ATOM     57  H8  MOL d          10.888  19.005  41.615  0.00  0.00     0.161 HD
ATOM     58  H7  MOL d          10.790  17.644  39.561  0.00  0.00     0.079 H 
ATOM     59  H6  MOL d           9.958  15.108  40.686  0.00  0.00     0.090 H 
BRANCH  49  60
ATOM     60  OA3 MOL d          12.181  13.951  41.345  0.00  0.00    -0.390 OA
ATOM     61  H5  MOL d          11.749  13.566  40.591  0.00  0.00     0.210 HD
ENDBRANCH  49  60
BRANCH  50  62
ATOM     62  OA2 MOL d          12.930  15.490  43.579  0.00  0.00    -0.385 OA
ATOM     63  H3  MOL d          13.702  15.280  43.068  0.00  0.00     0.210 HD
ENDBRANCH  50  62
BRANCH  54  64
ATOM     64  OA7 MOL d          12.172  19.432  43.522  0.00  0.00    -0.265 OA
ATOM     65  H1  MOL d          12.985  19.820  43.221  0.00  0.00     0.247 HD
ENDBRANCH  54  64
BRANCH  56  66
ATOM     66  CA6 MOL d           8.917  17.302  40.649  0.00  0.00     0.038 C 
ATOM     67  H9  MOL d           8.460  16.320  40.460  0.00  0.00     0.077 H 
ATOM     68  H10 MOL d           8.543  18.029  39.912  0.00  0.00     0.077 H 
BRANCH  66  69
ATOM     69  OA6 MOL d           8.576  17.723  41.909  0.00  0.00    -0.399 OA
ATOM     70  H11 MOL d           9.100  18.480  42.142  0.00  0.00     0.209 HD
ENDBRANCH  66  69
ENDBRANCH  56  66
ENDBRANCH  47  48
ENDBRANCH   1  47
TORSDOF 19
ENDMDL
MODEL 3
REMARK VINA RESULT:      -5.8      3.122      8.877
REMARK  19 active torsions:
REMARK  status: ('A' for Active; 'I' for Inactive)
REMARK    1  A    between atoms: NA1_2  and  OA7_3 
REMARK    2  A    between atoms: CA2_4  and  OA2_5 
REMARK    3  A    between atoms: CA3_6  and  OA3_7 
REMARK    4  A    between atoms: CA4_8  and  OA4_9 
REMARK    5  A    between atoms: OA4_9  and  CB1_14 
REMARK    6  A    between atoms: CA5_10  and  CA6_12 
REMARK    7  A    between atoms: CA6_12  and  OA6_13 
REMARK    8  A    between atoms: CB2_15  and  OB2_20 
REMARK    9  A    between atoms: CB3_16  and  OB3_21 
REMARK   10  A    between atoms: CB4_17  and  OB4_22 
REMARK   11  A    between atoms: CB5_18  and  CB6_19 
REMARK   12  A    between atoms: CB6_19  and  OB6_24 
REMARK   13  A    between atoms: OB4_22  and  CD1_25 
REMARK   14  A    between atoms: CD2_26  and  OD2_31 
REMARK   15  A    between atoms: CD3_27  and  OD3_32 
REMARK   16  A    between atoms: CD4_28  and  OD4_33 
REMARK   17  A    between atoms: CD5_29  and  CD6_30 
REMARK   18  A    between atoms: CD6_30  and  OD6_35 
REMARK   19  A    between atoms: OD4_33  and  CD7_36 
ROOT
ATOM      1  CB1 MOL d          15.948  14.176  36.233  0.00  0.00     0.159 C 
ATOM      2  CB2 MOL d          16.353  14.154  37.783  0.00  0.00     0.110 C 
ATOM      3  CB3 MOL d          15.207  14.688  38.719  0.00  0.00     0.092 C 
ATOM      4  CB4 MOL d          14.890  16.152  38.270  0.00  0.00     0.096 C 
ATOM      5  CB5 MOL d          14.378  16.079  36.685  0.00  0.00     0.089 C 
ATOM      6  OB5 MOL d          15.478  15.533  35.856  0.00  0.00    -0.348 OA
ATOM      7  H12 MOL d          16.830  13.932  35.623  0.00  0.00     0.133 H 
ATOM      8  H13 MOL d          17.223  14.812  37.921  0.00  0.00     0.094 H 
ATOM      9  H14 MOL d          14.307  14.063  38.620  0.00  0.00     0.091 H 
ATOM     10  H15 MOL d          15.787  16.783  38.351  0.00  0.00     0.091 H 
ATOM     11  H16 MOL d          13.497  15.424  36.624  0.00  0.00     0.090 H 
ENDROOT
BRANCH   4  12
ATOM     12  OB4 MOL d          13.862  16.668  39.099  0.00  0.00    -0.348 OA
BRANCH  12  13
ATOM     13  CD1 MOL d          12.718  15.751  39.159  0.00  0.00     0.159 C 
ATOM     14  CD2 MOL d          11.305  16.453  39.052  0.00  0.00     0.110 C 
ATOM     15  CD3 MOL d          11.139  17.430  40.296  0.00  0.00     0.092 C 
ATOM     16  H23 MOL d          10.502  15.702  39.066  0.00  0.00     0.094 H 
ATOM     17  CD4 MOL d          11.190  16.580  41.606  0.00  0.00     0.092 C 
ATOM     18  H24 MOL d          11.944  18.181  40.297  0.00  0.00     0.091 H 
ATOM     19  CD5 MOL d          12.640  15.822  41.680  0.00  0.00     0.089 C 
ATOM     20  H25 MOL d          10.380  15.836  41.592  0.00  0.00     0.091 H 
ATOM     21  OD5 MOL d          12.788  14.973  40.451  0.00  0.00    -0.348 OA
ATOM     22  H26 MOL d          13.442  16.573  41.707  0.00  0.00     0.090 H 
ATOM     23  H22 MOL d          12.806  15.049  38.317  0.00  0.00     0.133 H 
BRANCH  14  24
ATOM     24  OD2 MOL d          11.277  17.173  37.803  0.00  0.00    -0.388 OA
ATOM     25  H29 MOL d          11.407  16.565  37.085  0.00  0.00     0.210 HD
ENDBRANCH  14  24
BRANCH  15  26
ATOM     26  OD3 MOL d           9.887  18.064  40.228  0.00  0.00    -0.390 OA
ATOM     27  H30 MOL d           9.552  18.197  41.107  0.00  0.00     0.210 HD
ENDBRANCH  15  26
BRANCH  17  28
ATOM     28  OD4 MOL d          11.046  17.442  42.786  0.00  0.00    -0.385 OA
BRANCH  28  29
ATOM     29  CD7 MOL d           9.910  17.121  43.634  0.00  0.00     0.005 C 
ATOM     30  H32 MOL d           9.187  17.950  43.607  0.00  0.00     0.066 H 
ATOM     31  H33 MOL d          10.255  16.970  44.668  0.00  0.00     0.066 H 
ATOM     32  H34 MOL d           9.428  16.202  43.269  0.00  0.00     0.066 H 
ENDBRANCH  28  29
ENDBRANCH  17  28
BRANCH  19  33
ATOM     33  CD6 MOL d          12.737  14.933  42.955  0.00  0.00     0.043 C 
ATOM     34  H27 MOL d          13.508  14.164  42.795  0.00  0.00     0.078 H 
ATOM     35  H28 MOL d          11.765  14.447  43.126  0.00  0.00     0.078 H 
BRANCH  33  36
ATOM     36  OD6 MOL d          13.081  15.703  44.112  0.00  0.00    -0.398 OA
ATOM     37  H31 MOL d          13.863  15.340  44.512  0.00  0.00     0.209 HD
ENDBRANCH  33  36
ENDBRANCH  19  33
ENDBRANCH  12  13
ENDBRANCH   4  12
BRANCH   3  38
ATOM     38  OB3 MOL d          15.676  14.652  40.089  0.00  0.00    -0.390 OA
ATOM     39  H20 MOL d          15.098  15.173  40.635  0.00  0.00     0.210 HD
ENDBRANCH   3  38
BRANCH   5  40
ATOM     40  CB6 MOL d          14.030  17.441  36.118  0.00  0.00     0.043 C 
ATOM     41  H17 MOL d          14.625  18.210  36.633  0.00  0.00     0.078 H 
ATOM     42  H18 MOL d          12.960  17.637  36.281  0.00  0.00     0.078 H 
BRANCH  40  43
ATOM     43  OB6 MOL d          14.300  17.491  34.758  0.00  0.00    -0.398 OA
ATOM     44  H21 MOL d          13.667  16.958  34.291  0.00  0.00     0.209 HD
ENDBRANCH  40  43
ENDBRANCH   5  40
BRANCH   2  45
ATOM     45  OB2 MOL d          16.747  12.802  38.118  0.00  0.00    -0.388 OA
ATOM     46  H19 MOL d          16.596  12.235  37.371  0.00  0.00     0.210 HD
ENDBRANCH   2  45
BRANCH   1  47
ATOM     47  OA4 MOL d          14.958  13.179  36.024  0.00  0.00    -0.348 OA
BRANCH  47  48
ATOM     48  CA4 MOL d          14.807  12.843  34.750  0.00  0.00     0.090 C 
ATOM     49  CA3 MOL d          15.504  11.456  34.497  0.00  0.00     0.094 C 
ATOM     50  CA2 MOL d          14.924  10.787  33.201  0.00  0.00     0.121 C 
ATOM     51  H4  MOL d          15.279  10.805  35.355  0.00  0.00     0.091 H 
ATOM     52  CA1 MOL d          13.393  10.695  33.339  0.00  0.00     0.159 C 
ATOM     53  H2  MOL d          15.145  11.462  32.361  0.00  0.00     0.099 H 
ATOM     54  NA1 MOL d          12.774   9.648  32.813  0.00  0.00    -0.120 NA
ATOM     55  NA5 MOL d          12.643  11.720  33.996  0.00  0.00    -0.365 N 
ATOM     56  CA5 MOL d          13.314  12.860  34.646  0.00  0.00     0.059 C 
ATOM     57  H8  MOL d          11.615  11.660  34.015  0.00  0.00     0.161 HD
ATOM     58  H7  MOL d          12.921  12.937  35.671  0.00  0.00     0.079 H 
ATOM     59  H6  MOL d          15.247  13.589  34.073  0.00  0.00     0.090 H 
BRANCH  49  60
ATOM     60  OA3 MOL d          16.823  11.558  34.398  0.00  0.00    -0.390 OA
ATOM     61  H5  MOL d          17.045  12.019  33.596  0.00  0.00     0.210 HD
ENDBRANCH  49  60
BRANCH  50  62
ATOM     62  OA2 MOL d          15.473   9.601  32.892  0.00  0.00    -0.385 OA
ATOM     63  H3  MOL d          15.585   9.541  31.951  0.00  0.00     0.210 HD
ENDBRANCH  50  62
BRANCH  54  64
ATOM     64  OA7 MOL d          11.458   9.587  32.945  0.00  0.00    -0.265 OA
ATOM     65  H1  MOL d          11.211   8.717  33.235  0.00  0.00     0.247 HD
ENDBRANCH  54  64
BRANCH  56  66
ATOM     66  CA6 MOL d          12.890  14.120  33.826  0.00  0.00     0.038 C 
ATOM     67  H9  MOL d          12.286  14.781  34.466  0.00  0.00     0.077 H 
ATOM     68  H10 MOL d          12.291  13.802  32.959  0.00  0.00     0.077 H 
BRANCH  66  69
ATOM     69  OA6 MOL d          13.992  14.807  33.384  0.00  0.00    -0.399 OA
ATOM     70  H11 MOL d          13.906  15.724  33.618  0.00  0.00     0.209 HD
ENDBRANCH  66  69
ENDBRANCH  56  66
ENDBRANCH  47  48
ENDBRANCH   1  47
TORSDOF 19
ENDMDL
MODEL 4
REMARK VINA RESULT:      -5.8      1.994      2.916
REMARK  19 active torsions:
REMARK  status: ('A' for Active; 'I' for Inactive)
REMARK    1  A    between atoms: NA1_2  and  OA7_3 
REMARK    2  A    between atoms: CA2_4  and  OA2_5 
REMARK    3  A    between atoms: CA3_6  and  OA3_7 
REMARK    4  A    between atoms: CA4_8  and  OA4_9 
REMARK    5  A    between atoms: OA4_9  and  CB1_14 
REMARK    6  A    between atoms: CA5_10  and  CA6_12 
REMARK    7  A    between atoms: CA6_12  and  OA6_13 
REMARK    8  A    between atoms: CB2_15  and  OB2_20 
REMARK    9  A    between atoms: CB3_16  and  OB3_21 
REMARK   10  A    between atoms: CB4_17  and  OB4_22 
REMARK   11  A    between atoms: CB5_18  and  CB6_19 
REMARK   12  A    between atoms: CB6_19  and  OB6_24 
REMARK   13  A    between atoms: OB4_22  and  CD1_25 
REMARK   14  A    between atoms: CD2_26  and  OD2_31 
REMARK   15  A    between atoms: CD3_27  and  OD3_32 
REMARK   16  A    between atoms: CD4_28  and  OD4_33 
REMARK   17  A    between atoms: CD5_29  and  CD6_30 
REMARK   18  A    between atoms: CD6_30  and  OD6_35 
REMARK   19  A    between atoms: OD4_33  and  CD7_36 
ROOT
ATOM      1  CB1 MOL d          12.349  16.702  37.496  0.00  0.00     0.159 C 
ATOM      2  CB2 MOL d          11.561  16.127  36.225  0.00  0.00     0.110 C 
ATOM      3  CB3 MOL d          12.008  14.669  35.841  0.00  0.00     0.092 C 
ATOM      4  CB4 MOL d          13.542  14.721  35.540  0.00  0.00     0.096 C 
ATOM      5  CB5 MOL d          14.299  15.226  36.937  0.00  0.00     0.089 C 
ATOM      6  OB5 MOL d          13.813  16.585  37.275  0.00  0.00    -0.348 OA
ATOM      7  H12 MOL d          12.102  17.765  37.627  0.00  0.00     0.133 H 
ATOM      8  H13 MOL d          11.778  16.775  35.363  0.00  0.00     0.094 H 
ATOM      9  H14 MOL d          11.813  13.975  36.672  0.00  0.00     0.091 H 
ATOM     10  H15 MOL d          13.750  15.423  34.719  0.00  0.00     0.091 H 
ATOM     11  H16 MOL d          14.056  14.525  37.748  0.00  0.00     0.090 H 
ENDROOT
BRANCH   4  12
ATOM     12  OB4 MOL d          13.978  13.420  35.184  0.00  0.00    -0.348 OA
BRANCH  12  13
ATOM     13  CD1 MOL d          14.396  13.366  33.778  0.00  0.00     0.159 C 
ATOM     14  CD2 MOL d          14.132  11.978  33.067  0.00  0.00     0.110 C 
ATOM     15  CD3 MOL d          14.989  10.865  33.813  0.00  0.00     0.092 C 
ATOM     16  H23 MOL d          14.433  12.026  32.010  0.00  0.00     0.094 H 
ATOM     17  CD4 MOL d          16.502  11.230  33.679  0.00  0.00     0.092 C 
ATOM     18  H24 MOL d          14.701  10.815  34.874  0.00  0.00     0.091 H 
ATOM     19  CD5 MOL d          16.752  12.689  34.378  0.00  0.00     0.089 C 
ATOM     20  H25 MOL d          16.776  11.274  32.614  0.00  0.00     0.091 H 
ATOM     21  OD5 MOL d          15.867  13.693  33.697  0.00  0.00    -0.348 OA
ATOM     22  H26 MOL d          16.488  12.631  35.444  0.00  0.00     0.090 H 
ATOM     23  H22 MOL d          13.830  14.134  33.231  0.00  0.00     0.133 H 
BRANCH  14  24
ATOM     24  OD2 MOL d          12.718  11.710  33.157  0.00  0.00    -0.388 OA
ATOM     25  H29 MOL d          12.520  11.347  34.013  0.00  0.00     0.210 HD
ENDBRANCH  14  24
BRANCH  15  26
ATOM     26  OD3 MOL d          14.776   9.621  33.195  0.00  0.00    -0.390 OA
ATOM     27  H30 MOL d          15.445   9.009  33.480  0.00  0.00     0.210 HD
ENDBRANCH  15  26
BRANCH  17  28
ATOM     28  OD4 MOL d          17.336  10.230  34.359  0.00  0.00    -0.385 OA
BRANCH  28  29
ATOM     29  CD7 MOL d          17.079  10.095  35.782  0.00  0.00     0.005 C 
ATOM     30  H32 MOL d          17.857  10.628  36.348  0.00  0.00     0.066 H 
ATOM     31  H33 MOL d          17.091   9.029  36.057  0.00  0.00     0.066 H 
ATOM     32  H34 MOL d          16.093  10.524  36.020  0.00  0.00     0.066 H 
ENDBRANCH  28  29
ENDBRANCH  17  28
BRANCH  19  33
ATOM     33  CD6 MOL d          18.242  13.120  34.249  0.00  0.00     0.043 C 
ATOM     34  H27 MOL d          18.299  14.024  33.623  0.00  0.00     0.078 H 
ATOM     35  H28 MOL d          18.808  12.307  33.770  0.00  0.00     0.078 H 
BRANCH  33  36
ATOM     36  OD6 MOL d          18.824  13.402  35.527  0.00  0.00    -0.398 OA
ATOM     37  H31 MOL d          19.183  12.602  35.893  0.00  0.00     0.209 HD
ENDBRANCH  33  36
ENDBRANCH  19  33
ENDBRANCH  12  13
ENDBRANCH   4  12
BRANCH   3  38
ATOM     38  OB3 MOL d          11.260  14.250  34.672  0.00  0.00    -0.390 OA
ATOM     39  H20 MOL d          10.934  13.368  34.805  0.00  0.00     0.210 HD
ENDBRANCH   3  38
BRANCH   5  40
ATOM     40  CB6 MOL d          15.804  15.318  36.787  0.00  0.00     0.043 C 
ATOM     41  H17 MOL d          16.110  16.373  36.851  0.00  0.00     0.078 H 
ATOM     42  H18 MOL d          16.095  14.911  35.807  0.00  0.00     0.078 H 
BRANCH  40  43
ATOM     43  OB6 MOL d          16.442  14.599  37.787  0.00  0.00    -0.398 OA
ATOM     44  H21 MOL d          17.358  14.849  37.821  0.00  0.00     0.209 HD
ENDBRANCH  40  43
ENDBRANCH   5  40
BRANCH   2  45
ATOM     45  OB2 MOL d          10.144  16.208  36.510  0.00  0.00    -0.388 OA
ATOM     46  H19 MOL d           9.664  15.698  35.869  0.00  0.00     0.210 HD
ENDBRANCH   2  45
BRANCH   1  47
ATOM     47  OA4 MOL d          11.913  15.987  38.644  0.00  0.00    -0.348 OA
BRANCH  47  48
ATOM     48  CA4 MOL d          12.153  16.620  39.784  0.00  0.00     0.090 C 
ATOM     49  CA3 MOL d          10.788  17.067  40.423  0.00  0.00     0.094 C 
ATOM     50  CA2 MOL d          10.969  17.333  41.959  0.00  0.00     0.121 C 
ATOM     51  H4  MOL d          10.070  16.243  40.295  0.00  0.00     0.091 H 
ATOM     52  CA1 MOL d          11.573  16.073  42.607  0.00  0.00     0.159 C 
ATOM     53  H2  MOL d          11.702  18.146  42.063  0.00  0.00     0.099 H 
ATOM     54  NA1 MOL d          11.201  15.756  43.838  0.00  0.00    -0.120 NA
ATOM     55  NA5 MOL d          12.531  15.268  41.915  0.00  0.00    -0.365 N 
ATOM     56  CA5 MOL d          12.911  15.560  40.520  0.00  0.00     0.059 C 
ATOM     57  H8  MOL d          12.964  14.469  42.400  0.00  0.00     0.161 HD
ATOM     58  H7  MOL d          12.805  14.629  39.944  0.00  0.00     0.079 H 
ATOM     59  H6  MOL d          12.783  17.509  39.636  0.00  0.00     0.090 H 
BRANCH  49  60
ATOM     60  OA3 MOL d          10.279  18.145  39.838  0.00  0.00    -0.390 OA
ATOM     61  H5  MOL d          10.924  18.518  39.249  0.00  0.00     0.210 HD
ENDBRANCH  49  60
BRANCH  50  62
ATOM     62  OA2 MOL d           9.856  17.738  42.590  0.00  0.00    -0.385 OA
ATOM     63  H3  MOL d           9.094  17.420  42.121  0.00  0.00     0.210 HD
ENDBRANCH  50  62
BRANCH  54  64
ATOM     64  OA7 MOL d          11.730  14.668  44.375  0.00  0.00    -0.265 OA
ATOM     65  H1  MOL d          11.193  13.916  44.156  0.00  0.00     0.247 HD
ENDBRANCH  54  64
BRANCH  56  66
ATOM     66  CA6 MOL d          14.416  15.975  40.574  0.00  0.00     0.038 C 
ATOM     67  H9  MOL d          14.618  16.477  41.531  0.00  0.00     0.077 H 
ATOM     68  H10 MOL d          14.630  16.667  39.745  0.00  0.00     0.077 H 
BRANCH  66  69
ATOM     69  OA6 MOL d          15.228  14.876  40.462  0.00  0.00    -0.399 OA
ATOM     70  H11 MOL d          14.779  14.115  40.810  0.00  0.00     0.209 HD
ENDBRANCH  66  69
ENDBRANCH  56  66
ENDBRANCH  47  48
ENDBRANCH   1  47
TORSDOF 19
ENDMDL
MODEL 5
REMARK VINA RESULT:      -5.6      3.615      9.035
REMARK  19 active torsions:
REMARK  status: ('A' for Active; 'I' for Inactive)
REMARK    1  A    between atoms: NA1_2  and  OA7_3 
REMARK    2  A    between atoms: CA2_4  and  OA2_5 
REMARK    3  A    between atoms: CA3_6  and  OA3_7 
REMARK    4  A    between atoms: CA4_8  and  OA4_9 
REMARK    5  A    between atoms: OA4_9  and  CB1_14 
REMARK    6  A    between atoms: CA5_10  and  CA6_12 
REMARK    7  A    between atoms: CA6_12  and  OA6_13 
REMARK    8  A    between atoms: CB2_15  and  OB2_20 
REMARK    9  A    between atoms: CB3_16  and  OB3_21 
REMARK   10  A    between atoms: CB4_17  and  OB4_22 
REMARK   11  A    between atoms: CB5_18  and  CB6_19 
REMARK   12  A    between atoms: CB6_19  and  OB6_24 
REMARK   13  A    between atoms: OB4_22  and  CD1_25 
REMARK   14  A    between atoms: CD2_26  and  OD2_31 
REMARK   15  A    between atoms: CD3_27  and  OD3_32 
REMARK   16  A    between atoms: CD4_28  and  OD4_33 
REMARK   17  A    between atoms: CD5_29  and  CD6_30 
REMARK   18  A    between atoms: CD6_30  and  OD6_35 
REMARK   19  A    between atoms: OD4_33  and  CD7_36 
ROOT
ATOM      1  CB1 MOL d          13.946  13.992  35.769  0.00  0.00     0.159 C 
ATOM      2  CB2 MOL d          12.369  14.188  35.562  0.00  0.00     0.110 C 
ATOM      3  CB3 MOL d          11.753  15.247  36.548  0.00  0.00     0.092 C 
ATOM      4  CB4 MOL d          12.043  14.748  38.001  0.00  0.00     0.096 C 
ATOM      5  CB5 MOL d          13.700  14.669  38.171  0.00  0.00     0.089 C 
ATOM      6  OB5 MOL d          14.232  13.690  37.194  0.00  0.00    -0.348 OA
ATOM      7  H12 MOL d          14.290  13.144  35.159  0.00  0.00     0.133 H 
ATOM      8  H13 MOL d          11.873  13.227  35.761  0.00  0.00     0.094 H 
ATOM      9  H14 MOL d          12.215  16.233  36.391  0.00  0.00     0.091 H 
ATOM     10  H15 MOL d          11.597  13.756  38.164  0.00  0.00     0.091 H 
ATOM     11  H16 MOL d          14.126  15.665  37.979  0.00  0.00     0.090 H 
ENDROOT
BRANCH   4  12
ATOM     12  OB4 MOL d          11.495  15.680  38.918  0.00  0.00    -0.348 OA
BRANCH  12  13
ATOM     13  CD1 MOL d          10.437  15.068  39.729  0.00  0.00     0.159 C 
ATOM     14  CD2 MOL d           9.204  16.013  40.024  0.00  0.00     0.110 C 
ATOM     15  CD3 MOL d           9.722  17.260  40.864  0.00  0.00     0.092 C 
ATOM     16  H23 MOL d           8.437  15.474  40.601  0.00  0.00     0.094 H 
ATOM     17  CD4 MOL d          10.304  16.740  42.217  0.00  0.00     0.092 C 
ATOM     18  H24 MOL d          10.496  17.801  40.299  0.00  0.00     0.091 H 
ATOM     19  CD5 MOL d          11.549  15.726  41.896  0.00  0.00     0.089 C 
ATOM     20  H25 MOL d           9.519  16.204  42.772  0.00  0.00     0.091 H 
ATOM     21  OD5 MOL d          11.033  14.608  41.038  0.00  0.00    -0.348 OA
ATOM     22  H26 MOL d          12.332  16.274  41.354  0.00  0.00     0.090 H 
ATOM     23  H22 MOL d          10.061  14.190  39.183  0.00  0.00     0.133 H 
BRANCH  14  24
ATOM     24  OD2 MOL d           8.659  16.419  38.752  0.00  0.00    -0.388 OA
ATOM     25  H29 MOL d           9.365  16.697  38.180  0.00  0.00     0.210 HD
ENDBRANCH  14  24
BRANCH  15  26
ATOM     26  OD3 MOL d           8.643  18.115  41.145  0.00  0.00    -0.390 OA
ATOM     27  H30 MOL d           8.527  18.724  40.425  0.00  0.00     0.210 HD
ENDBRANCH  15  26
BRANCH  17  28
ATOM     28  OD4 MOL d          10.801  17.859  43.029  0.00  0.00    -0.385 OA
BRANCH  28  29
ATOM     29  CD7 MOL d          12.071  18.409  42.587  0.00  0.00     0.005 C 
ATOM     30  H32 MOL d          11.967  19.494  42.434  0.00  0.00     0.066 H 
ATOM     31  H33 MOL d          12.368  17.932  41.641  0.00  0.00     0.066 H 
ATOM     32  H34 MOL d          12.839  18.219  43.352  0.00  0.00     0.066 H 
ENDBRANCH  28  29
ENDBRANCH  17  28
BRANCH  19  33
ATOM     33  CD6 MOL d          12.151  15.151  43.212  0.00  0.00     0.043 C 
ATOM     34  H27 MOL d          13.110  15.652  43.414  0.00  0.00     0.078 H 
ATOM     35  H28 MOL d          12.320  14.072  43.085  0.00  0.00     0.078 H 
BRANCH  33  36
ATOM     36  OD6 MOL d          11.277  15.356  44.328  0.00  0.00    -0.398 OA
ATOM     37  H31 MOL d          11.575  14.833  45.063  0.00  0.00     0.209 HD
ENDBRANCH  33  36
ENDBRANCH  19  33
ENDBRANCH  12  13
ENDBRANCH   4  12
BRANCH   3  38
ATOM     38  OB3 MOL d          10.328  15.334  36.300  0.00  0.00    -0.390 OA
ATOM     39  H20 MOL d          10.177  15.780  35.475  0.00  0.00     0.210 HD
ENDBRANCH   3  38
BRANCH   5  40
ATOM     40  CB6 MOL d          14.126  14.199  39.548  0.00  0.00     0.043 C 
ATOM     41  H17 MOL d          14.993  13.530  39.448  0.00  0.00     0.078 H 
ATOM     42  H18 MOL d          13.294  13.653  40.016  0.00  0.00     0.078 H 
BRANCH  40  43
ATOM     43  OB6 MOL d          14.473  15.277  40.349  0.00  0.00    -0.398 OA
ATOM     44  H21 MOL d          14.753  14.959  41.200  0.00  0.00     0.209 HD
ENDBRANCH  40  43
ENDBRANCH   5  40
BRANCH   2  45
ATOM     45  OB2 MOL d          12.145  14.536  34.175  0.00  0.00    -0.388 OA
ATOM     46  H19 MOL d          11.963  15.466  34.108  0.00  0.00     0.210 HD
ENDBRANCH   2  45
BRANCH   1  47
ATOM     47  OA4 MOL d          14.598  15.172  35.320  0.00  0.00    -0.348 OA
BRANCH  47  48
ATOM     48  CA4 MOL d          15.836  14.962  34.896  0.00  0.00     0.090 C 
ATOM     49  CA3 MOL d          16.572  14.007  35.905  0.00  0.00     0.094 C 
ATOM     50  CA2 MOL d          17.803  13.328  35.208  0.00  0.00     0.121 C 
ATOM     51  H4  MOL d          15.863  13.220  36.201  0.00  0.00     0.091 H 
ATOM     52  CA1 MOL d          17.316  12.622  33.928  0.00  0.00     0.159 C 
ATOM     53  H2  MOL d          18.489  14.133  34.905  0.00  0.00     0.099 H 
ATOM     54  NA1 MOL d          17.902  11.489  33.571  0.00  0.00    -0.120 NA
ATOM     55  NA5 MOL d          16.272  13.178  33.125  0.00  0.00    -0.365 N 
ATOM     56  CA5 MOL d          15.559  14.401  33.537  0.00  0.00     0.059 C 
ATOM     57  H8  MOL d          16.014  12.715  32.242  0.00  0.00     0.161 HD
ATOM     58  H7  MOL d          14.481  14.190  33.489  0.00  0.00     0.079 H 
ATOM     59  H6  MOL d          16.407  15.899  34.815  0.00  0.00     0.090 H 
BRANCH  49  60
ATOM     60  OA3 MOL d          16.969  14.634  37.005  0.00  0.00    -0.390 OA
ATOM     61  H5  MOL d          16.862  14.057  37.753  0.00  0.00     0.210 HD
ENDBRANCH  49  60
BRANCH  50  62
ATOM     62  OA2 MOL d          18.508  12.503  35.999  0.00  0.00    -0.385 OA
ATOM     63  H3  MOL d          18.015  11.704  36.141  0.00  0.00     0.210 HD
ENDBRANCH  50  62
BRANCH  54  64
ATOM     64  OA7 MOL d          17.466  10.897  32.470  0.00  0.00    -0.265 OA
ATOM     65  H1  MOL d          18.023  11.139  31.740  0.00  0.00     0.247 HD
ENDBRANCH  54  64
BRANCH  56  66
ATOM     66  CA6 MOL d          15.930  15.482  32.470  0.00  0.00     0.038 C 
ATOM     67  H9  MOL d          15.736  15.078  31.466  0.00  0.00     0.077 H 
ATOM     68  H10 MOL d          16.997  15.731  32.565  0.00  0.00     0.077 H 
BRANCH  66  69
ATOM     69  OA6 MOL d          15.184  16.619  32.650  0.00  0.00    -0.399 OA
ATOM     70  H11 MOL d          14.711  16.559  33.471  0.00  0.00     0.209 HD
ENDBRANCH  66  69
ENDBRANCH  56  66
ENDBRANCH  47  48
ENDBRANCH   1  47
TORSDOF 19
ENDMDL
MODEL 6
REMARK VINA RESULT:      -5.5      2.111      3.513
REMARK  19 active torsions:
REMARK  status: ('A' for Active; 'I' for Inactive)
REMARK    1  A    between atoms: NA1_2  and  OA7_3 
REMARK    2  A    between atoms: CA2_4  and  OA2_5 
REMARK    3  A    between atoms: CA3_6  and  OA3_7 
REMARK    4  A    between atoms: CA4_8  and  OA4_9 
REMARK    5  A    between atoms: OA4_9  and  CB1_14 
REMARK    6  A    between atoms: CA5_10  and  CA6_12 
REMARK    7  A    between atoms: CA6_12  and  OA6_13 
REMARK    8  A    between atoms: CB2_15  and  OB2_20 
REMARK    9  A    between atoms: CB3_16  and  OB3_21 
REMARK   10  A    between atoms: CB4_17  and  OB4_22 
REMARK   11  A    between atoms: CB5_18  and  CB6_19 
REMARK   12  A    between atoms: CB6_19  and  OB6_24 
REMARK   13  A    between atoms: OB4_22  and  CD1_25 
REMARK   14  A    between atoms: CD2_26  and  OD2_31 
REMARK   15  A    between atoms: CD3_27  and  OD3_32 
REMARK   16  A    between atoms: CD4_28  and  OD4_33 
REMARK   17  A    between atoms: CD5_29  and  CD6_30 
REMARK   18  A    between atoms: CD6_30  and  OD6_35 
REMARK   19  A    between atoms: OD4_33  and  CD7_36 
ROOT
ATOM      1  CB1 MOL d          11.583  16.414  38.025  0.00  0.00     0.159 C 
ATOM      2  CB2 MOL d          11.598  16.158  36.443  0.00  0.00     0.110 C 
ATOM      3  CB3 MOL d          12.686  15.110  36.006  0.00  0.00     0.092 C 
ATOM      4  CB4 MOL d          14.073  15.663  36.471  0.00  0.00     0.096 C 
ATOM      5  CB5 MOL d          14.013  15.802  38.132  0.00  0.00     0.089 C 
ATOM      6  OB5 MOL d          12.948  16.768  38.490  0.00  0.00    -0.348 OA
ATOM      7  H12 MOL d          10.910  17.254  38.251  0.00  0.00     0.133 H 
ATOM      8  H13 MOL d          11.838  17.108  35.943  0.00  0.00     0.094 H 
ATOM      9  H14 MOL d          12.493  14.136  36.480  0.00  0.00     0.091 H 
ATOM     10  H15 MOL d          14.269  16.644  36.015  0.00  0.00     0.091 H 
ATOM     11  H16 MOL d          13.791  14.816  38.565  0.00  0.00     0.090 H 
ENDROOT
BRANCH   4  12
ATOM     12  OB4 MOL d          15.080  14.742  36.088  0.00  0.00    -0.348 OA
BRANCH  12  13
ATOM     13  CD1 MOL d          14.825  13.411  36.650  0.00  0.00     0.159 C 
ATOM     14  CD2 MOL d          16.100  12.700  37.259  0.00  0.00     0.110 C 
ATOM     15  CD3 MOL d          17.152  12.477  36.087  0.00  0.00     0.092 C 
ATOM     16  H23 MOL d          15.824  11.728  37.695  0.00  0.00     0.094 H 
ATOM     17  CD4 MOL d          16.508  11.544  35.012  0.00  0.00     0.092 C 
ATOM     18  H24 MOL d          17.428  13.443  35.638  0.00  0.00     0.091 H 
ATOM     19  CD5 MOL d          15.165  12.272  34.425  0.00  0.00     0.089 C 
ATOM     20  H25 MOL d          16.241  10.582  35.474  0.00  0.00     0.091 H 
ATOM     21  OD5 MOL d          14.234  12.534  35.573  0.00  0.00    -0.348 OA
ATOM     22  H26 MOL d          15.445  13.225  33.954  0.00  0.00     0.090 H 
ATOM     23  H22 MOL d          14.089  13.525  37.459  0.00  0.00     0.133 H 
BRANCH  14  24
ATOM     24  OD2 MOL d          16.624  13.563  38.288  0.00  0.00    -0.388 OA
ATOM     25  H29 MOL d          17.465  13.230  38.581  0.00  0.00     0.210 HD
ENDBRANCH  14  24
BRANCH  15  26
ATOM     26  OD3 MOL d          18.294  11.839  36.601  0.00  0.00    -0.390 OA
ATOM     27  H30 MOL d          18.631  11.228  35.957  0.00  0.00     0.210 HD
ENDBRANCH  15  26
BRANCH  17  28
ATOM     28  OD4 MOL d          17.444  11.312  33.904  0.00  0.00    -0.385 OA
BRANCH  28  29
ATOM     29  CD7 MOL d          17.909   9.940  33.781  0.00  0.00     0.005 C 
ATOM     30  H32 MOL d          17.087   9.306  33.417  0.00  0.00     0.066 H 
ATOM     31  H33 MOL d          18.245   9.577  34.763  0.00  0.00     0.066 H 
ATOM     32  H34 MOL d          18.747   9.900  33.068  0.00  0.00     0.066 H 
ENDBRANCH  28  29
ENDBRANCH  17  28
BRANCH  19  33
ATOM     33  CD6 MOL d          14.462  11.372  33.367  0.00  0.00     0.043 C 
ATOM     34  H27 MOL d          15.161  11.184  32.538  0.00  0.00     0.078 H 
ATOM     35  H28 MOL d          13.574  11.897  32.985  0.00  0.00     0.078 H 
BRANCH  33  36
ATOM     36  OD6 MOL d          14.056  10.117  33.925  0.00  0.00    -0.398 OA
ATOM     37  H31 MOL d          13.132  10.153  34.143  0.00  0.00     0.209 HD
ENDBRANCH  33  36
ENDBRANCH  19  33
ENDBRANCH  12  13
ENDBRANCH   4  12
BRANCH   3  38
ATOM     38  OB3 MOL d          12.637  14.968  34.565  0.00  0.00    -0.390 OA
ATOM     39  H20 MOL d          12.672  15.828  34.162  0.00  0.00     0.210 HD
ENDBRANCH   3  38
BRANCH   5  40
ATOM     40  CB6 MOL d          15.306  16.329  38.723  0.00  0.00     0.043 C 
ATOM     41  H17 MOL d          15.224  17.417  38.859  0.00  0.00     0.078 H 
ATOM     42  H18 MOL d          16.134  16.107  38.034  0.00  0.00     0.078 H 
BRANCH  40  43
ATOM     43  OB6 MOL d          15.563  15.735  39.950  0.00  0.00    -0.398 OA
ATOM     44  H21 MOL d          15.165  14.872  39.972  0.00  0.00     0.209 HD
ENDBRANCH  40  43
ENDBRANCH   5  40
BRANCH   2  45
ATOM     45  OB2 MOL d          10.264  15.760  36.047  0.00  0.00    -0.388 OA
ATOM     46  H19 MOL d           9.735  16.535  35.897  0.00  0.00     0.210 HD
ENDBRANCH   2  45
BRANCH   1  47
ATOM     47  OA4 MOL d          11.080  15.243  38.654  0.00  0.00    -0.348 OA
BRANCH  47  48
ATOM     48  CA4 MOL d          10.875  15.389  39.956  0.00  0.00     0.090 C 
ATOM     49  CA3 MOL d          12.205  15.058  40.727  0.00  0.00     0.094 C 
ATOM     50  CA2 MOL d          12.175  15.701  42.158  0.00  0.00     0.121 C 
ATOM     51  H4  MOL d          13.040  15.502  40.164  0.00  0.00     0.091 H 
ATOM     52  CA1 MOL d          11.901  17.210  42.013  0.00  0.00     0.159 C 
ATOM     53  H2  MOL d          11.325  15.257  42.696  0.00  0.00     0.099 H 
ATOM     54  NA1 MOL d          12.479  18.041  42.868  0.00  0.00    -0.120 NA
ATOM     55  NA5 MOL d          11.028  17.712  40.999  0.00  0.00    -0.365 N 
ATOM     56  CA5 MOL d          10.425  16.815  39.995  0.00  0.00     0.059 C 
ATOM     57  H8  MOL d          10.815  18.720  40.969  0.00  0.00     0.161 HD
ATOM     58  H7  MOL d          10.626  17.244  39.002  0.00  0.00     0.079 H 
ATOM     59  H6  MOL d          10.079  14.725  40.323  0.00  0.00     0.090 H 
BRANCH  49  60
ATOM     60  OA3 MOL d          12.428  13.754  40.826  0.00  0.00    -0.390 OA
ATOM     61  H5  MOL d          13.031  13.484  40.143  0.00  0.00     0.210 HD
ENDBRANCH  49  60
BRANCH  50  62
ATOM     62  OA2 MOL d          13.266  15.458  42.902  0.00  0.00    -0.385 OA
ATOM     63  H3  MOL d          13.972  16.030  42.623  0.00  0.00     0.210 HD
ENDBRANCH  50  62
BRANCH  54  64
ATOM     64  OA7 MOL d          12.233  19.334  42.723  0.00  0.00    -0.265 OA
ATOM     65  H1  MOL d          12.116  19.532  41.802  0.00  0.00     0.247 HD
ENDBRANCH  54  64
BRANCH  56  66
ATOM     66  CA6 MOL d           8.889  16.842  40.277  0.00  0.00     0.038 C 
ATOM     67  H9  MOL d           8.594  15.901  40.763  0.00  0.00     0.077 H 
ATOM     68  H10 MOL d           8.349  16.947  39.323  0.00  0.00     0.077 H 
BRANCH  66  69
ATOM     69  OA6 MOL d           8.562  17.893  41.095  0.00  0.00    -0.399 OA
ATOM     70  H11 MOL d           8.188  18.594  40.575  0.00  0.00     0.209 HD
ENDBRANCH  66  69
ENDBRANCH  56  66
ENDBRANCH  47  48
ENDBRANCH   1  47
TORSDOF 19
ENDMDL
MODEL 7
REMARK VINA RESULT:      -5.2      3.437      8.968
REMARK  19 active torsions:
REMARK  status: ('A' for Active; 'I' for Inactive)
REMARK    1  A    between atoms: NA1_2  and  OA7_3 
REMARK    2  A    between atoms: CA2_4  and  OA2_5 
REMARK    3  A    between atoms: CA3_6  and  OA3_7 
REMARK    4  A    between atoms: CA4_8  and  OA4_9 
REMARK    5  A    between atoms: OA4_9  and  CB1_14 
REMARK    6  A    between atoms: CA5_10  and  CA6_12 
REMARK    7  A    between atoms: CA6_12  and  OA6_13 
REMARK    8  A    between atoms: CB2_15  and  OB2_20 
REMARK    9  A    between atoms: CB3_16  and  OB3_21 
REMARK   10  A    between atoms: CB4_17  and  OB4_22 
REMARK   11  A    between atoms: CB5_18  and  CB6_19 
REMARK   12  A    between atoms: CB6_19  and  OB6_24 
REMARK   13  A    between atoms: OB4_22  and  CD1_25 
REMARK   14  A    between atoms: CD2_26  and  OD2_31 
REMARK   15  A    between atoms: CD3_27  and  OD3_32 
REMARK   16  A    between atoms: CD4_28  and  OD4_33 
REMARK   17  A    between atoms: CD5_29  and  CD6_30 
REMARK   18  A    between atoms: CD6_30  and  OD6_35 
REMARK   19  A    between atoms: OD4_33  and  CD7_36 
ROOT
ATOM      1  CB1 MOL d          13.031  15.192  35.077  0.00  0.00     0.159 C 
ATOM      2  CB2 MOL d          13.607  16.401  35.958  0.00  0.00     0.110 C 
ATOM      3  CB3 MOL d          13.008  16.433  37.412  0.00  0.00     0.092 C 
ATOM      4  CB4 MOL d          11.456  16.567  37.269  0.00  0.00     0.096 C 
ATOM      5  CB5 MOL d          10.923  15.225  36.435  0.00  0.00     0.089 C 
ATOM      6  OB5 MOL d          11.547  15.222  35.091  0.00  0.00    -0.348 OA
ATOM      7  H12 MOL d          13.371  15.306  34.038  0.00  0.00     0.133 H 
ATOM      8  H13 MOL d          13.330  17.346  35.468  0.00  0.00     0.094 H 
ATOM      9  H14 MOL d          13.256  15.506  37.950  0.00  0.00     0.091 H 
ATOM     10  H15 MOL d          11.198  17.483  36.719  0.00  0.00     0.091 H 
ATOM     11  H16 MOL d          11.215  14.321  36.990  0.00  0.00     0.090 H 
ENDROOT
BRANCH   4  12
ATOM     12  OB4 MOL d          10.883  16.604  38.565  0.00  0.00    -0.348 OA
BRANCH  12  13
ATOM     13  CD1 MOL d          11.507  15.614  39.451  0.00  0.00     0.159 C 
ATOM     14  CD2 MOL d          10.485  14.680  40.216  0.00  0.00     0.110 C 
ATOM     15  CD3 MOL d           9.586  15.593  41.158  0.00  0.00     0.092 C 
ATOM     16  H23 MOL d          11.025  13.942  40.827  0.00  0.00     0.094 H 
ATOM     17  CD4 MOL d          10.513  16.299  42.198  0.00  0.00     0.092 C 
ATOM     18  H24 MOL d           9.047  16.341  40.556  0.00  0.00     0.091 H 
ATOM     19  CD5 MOL d          11.594  17.225  41.391  0.00  0.00     0.089 C 
ATOM     20  H25 MOL d          11.041  15.539  42.793  0.00  0.00     0.091 H 
ATOM     21  OD5 MOL d          12.367  16.338  40.458  0.00  0.00    -0.348 OA
ATOM     22  H26 MOL d          11.057  17.989  40.810  0.00  0.00     0.090 H 
ATOM     23  H22 MOL d          12.149  14.970  38.833  0.00  0.00     0.133 H 
BRANCH  14  24
ATOM     24  OD2 MOL d           9.694  14.002  39.220  0.00  0.00    -0.388 OA
ATOM     25  H29 MOL d          10.089  14.126  38.364  0.00  0.00     0.210 HD
ENDBRANCH  14  24
BRANCH  15  26
ATOM     26  OD3 MOL d           8.671  14.785  41.855  0.00  0.00    -0.390 OA
ATOM     27  H30 MOL d           8.689  13.906  41.494  0.00  0.00     0.210 HD
ENDBRANCH  15  26
BRANCH  17  28
ATOM     28  OD4 MOL d           9.725  17.160  43.090  0.00  0.00    -0.385 OA
BRANCH  28  29
ATOM     29  CD7 MOL d           9.623  16.682  44.459  0.00  0.00     0.005 C 
ATOM     30  H32 MOL d          10.424  15.953  44.653  0.00  0.00     0.066 H 
ATOM     31  H33 MOL d           8.645  16.200  44.607  0.00  0.00     0.066 H 
ATOM     32  H34 MOL d           9.724  17.530  45.152  0.00  0.00     0.066 H 
ENDBRANCH  28  29
ENDBRANCH  17  28
BRANCH  19  33
ATOM     33  CD6 MOL d          12.567  17.933  42.379  0.00  0.00     0.043 C 
ATOM     34  H27 MOL d          13.456  18.271  41.824  0.00  0.00     0.078 H 
ATOM     35  H28 MOL d          12.871  17.216  43.155  0.00  0.00     0.078 H 
BRANCH  33  36
ATOM     36  OD6 MOL d          11.953  19.065  43.006  0.00  0.00    -0.398 OA
ATOM     37  H31 MOL d          11.284  19.419  42.432  0.00  0.00     0.209 HD
ENDBRANCH  33  36
ENDBRANCH  19  33
ENDBRANCH  12  13
ENDBRANCH   4  12
BRANCH   3  38
ATOM     38  OB3 MOL d          13.567  17.569  38.116  0.00  0.00    -0.390 OA
ATOM     39  H20 MOL d          14.009  17.267  38.902  0.00  0.00     0.210 HD
ENDBRANCH   3  38
BRANCH   5  40
ATOM     40  CB6 MOL d           9.422  15.222  36.227  0.00  0.00     0.043 C 
ATOM     41  H17 MOL d           8.995  14.319  36.688  0.00  0.00     0.078 H 
ATOM     42  H18 MOL d           9.207  15.219  35.148  0.00  0.00     0.078 H 
BRANCH  40  43
ATOM     43  OB6 MOL d           8.844  16.344  36.804  0.00  0.00    -0.398 OA
ATOM     44  H21 MOL d           8.148  16.073  37.391  0.00  0.00     0.209 HD
ENDBRANCH  40  43
ENDBRANCH   5  40
BRANCH   2  45
ATOM     45  OB2 MOL d          15.050  16.296  35.963  0.00  0.00    -0.388 OA
ATOM     46  H19 MOL d          15.397  16.742  36.726  0.00  0.00     0.210 HD
ENDBRANCH   2  45
BRANCH   1  47
ATOM     47  OA4 MOL d          13.557  13.980  35.600  0.00  0.00    -0.348 OA
BRANCH  47  48
ATOM     48  CA4 MOL d          14.854  13.824  35.372  0.00  0.00     0.090 C 
ATOM     49  CA3 MOL d          15.517  13.137  36.621  0.00  0.00     0.094 C 
ATOM     50  CA2 MOL d          16.880  12.472  36.214  0.00  0.00     0.121 C 
ATOM     51  H4  MOL d          14.836  12.346  36.971  0.00  0.00     0.091 H 
ATOM     52  CA1 MOL d          16.625  11.510  35.039  0.00  0.00     0.159 C 
ATOM     53  H2  MOL d          17.537  13.276  35.852  0.00  0.00     0.099 H 
ATOM     54  NA1 MOL d          17.339  10.396  34.970  0.00  0.00    -0.120 NA
ATOM     55  NA5 MOL d          15.661  11.811  34.028  0.00  0.00    -0.365 N 
ATOM     56  CA5 MOL d          14.807  13.010  34.117  0.00  0.00     0.059 C 
ATOM     57  H8  MOL d          15.560  11.178  33.221  0.00  0.00     0.161 HD
ATOM     58  H7  MOL d          13.764  12.688  33.981  0.00  0.00     0.079 H 
ATOM     59  H6  MOL d          15.357  14.784  35.188  0.00  0.00     0.090 H 
BRANCH  49  60
ATOM     60  OA3 MOL d          15.712  13.982  37.626  0.00  0.00    -0.390 OA
ATOM     61  H5  MOL d          15.313  14.818  37.416  0.00  0.00     0.210 HD
ENDBRANCH  49  60
BRANCH  50  62
ATOM     62  OA2 MOL d          17.531  11.872  37.223  0.00  0.00    -0.385 OA
ATOM     63  H3  MOL d          18.467  11.946  37.082  0.00  0.00     0.210 HD
ENDBRANCH  50  62
BRANCH  54  64
ATOM     64  OA7 MOL d          17.102   9.581  33.955  0.00  0.00    -0.265 OA
ATOM     65  H1  MOL d          16.433   9.958  33.397  0.00  0.00     0.247 HD
ENDBRANCH  54  64
BRANCH  56  66
ATOM     66  CA6 MOL d          15.235  13.920  32.921  0.00  0.00     0.038 C 
ATOM     67  H9  MOL d          14.348  14.166  32.320  0.00  0.00     0.077 H 
ATOM     68  H10 MOL d          15.962  13.377  32.298  0.00  0.00     0.077 H 
BRANCH  66  69
ATOM     69  OA6 MOL d          15.809  15.081  33.373  0.00  0.00    -0.399 OA
ATOM     70  H11 MOL d          15.227  15.497  33.998  0.00  0.00     0.209 HD
ENDBRANCH  66  69
ENDBRANCH  56  66
ENDBRANCH  47  48
ENDBRANCH   1  47
TORSDOF 19
ENDMDL
MODEL 8
REMARK VINA RESULT:      -5.2      3.271      9.143
REMARK  19 active torsions:
REMARK  status: ('A' for Active; 'I' for Inactive)
REMARK    1  A    between atoms: NA1_2  and  OA7_3 
REMARK    2  A    between atoms: CA2_4  and  OA2_5 
REMARK    3  A    between atoms: CA3_6  and  OA3_7 
REMARK    4  A    between atoms: CA4_8  and  OA4_9 
REMARK    5  A    between atoms: OA4_9  and  CB1_14 
REMARK    6  A    between atoms: CA5_10  and  CA6_12 
REMARK    7  A    between atoms: CA6_12  and  OA6_13 
REMARK    8  A    between atoms: CB2_15  and  OB2_20 
REMARK    9  A    between atoms: CB3_16  and  OB3_21 
REMARK   10  A    between atoms: CB4_17  and  OB4_22 
REMARK   11  A    between atoms: CB5_18  and  CB6_19 
REMARK   12  A    between atoms: CB6_19  and  OB6_24 
REMARK   13  A    between atoms: OB4_22  and  CD1_25 
REMARK   14  A    between atoms: CD2_26  and  OD2_31 
REMARK   15  A    between atoms: CD3_27  and  OD3_32 
REMARK   16  A    between atoms: CD4_28  and  OD4_33 
REMARK   17  A    between atoms: CD5_29  and  CD6_30 
REMARK   18  A    between atoms: CD6_30  and  OD6_35 
REMARK   19  A    between atoms: OD4_33  and  CD7_36 
ROOT
ATOM      1  CB1 MOL d          15.143  14.447  37.137  0.00  0.00     0.159 C 
ATOM      2  CB2 MOL d          15.193  15.061  38.617  0.00  0.00     0.110 C 
ATOM      3  CB3 MOL d          13.855  14.840  39.413  0.00  0.00     0.092 C 
ATOM      4  CB4 MOL d          12.711  15.519  38.591  0.00  0.00     0.096 C 
ATOM      5  CB5 MOL d          12.654  14.758  37.108  0.00  0.00     0.089 C 
ATOM      6  OB5 MOL d          13.950  14.962  36.419  0.00  0.00    -0.348 OA
ATOM      7  H12 MOL d          16.042  14.757  36.585  0.00  0.00     0.133 H 
ATOM      8  H13 MOL d          15.350  16.147  38.534  0.00  0.00     0.094 H 
ATOM      9  H14 MOL d          13.648  13.766  39.526  0.00  0.00     0.091 H 
ATOM     10  H15 MOL d          12.915  16.591  38.459  0.00  0.00     0.091 H 
ATOM     11  H16 MOL d          12.475  13.684  37.265  0.00  0.00     0.090 H 
ENDROOT
BRANCH   4  12
ATOM     12  OB4 MOL d          11.488  15.342  39.285  0.00  0.00    -0.348 OA
BRANCH  12  13
ATOM     13  CD1 MOL d          10.698  16.579  39.294  0.00  0.00     0.159 C 
ATOM     14  CD2 MOL d          11.502  17.869  39.729  0.00  0.00     0.110 C 
ATOM     15  CD3 MOL d          11.998  17.665  41.226  0.00  0.00     0.092 C 
ATOM     16  H23 MOL d          10.857  18.759  39.673  0.00  0.00     0.094 H 
ATOM     17  CD4 MOL d          10.747  17.507  42.147  0.00  0.00     0.092 C 
ATOM     18  H24 MOL d          12.638  16.773  41.294  0.00  0.00     0.091 H 
ATOM     19  CD5 MOL d           9.899  16.195  41.656  0.00  0.00     0.089 C 
ATOM     20  H25 MOL d          10.119  18.408  42.071  0.00  0.00     0.091 H 
ATOM     21  OD5 MOL d           9.519  16.394  40.217  0.00  0.00    -0.348 OA
ATOM     22  H26 MOL d          10.530  15.300  41.749  0.00  0.00     0.090 H 
ATOM     23  H22 MOL d          10.326  16.746  38.272  0.00  0.00     0.133 H 
BRANCH  14  24
ATOM     24  OD2 MOL d          12.609  18.014  38.816  0.00  0.00    -0.388 OA
ATOM     25  H29 MOL d          12.934  17.154  38.574  0.00  0.00     0.210 HD
ENDBRANCH  14  24
BRANCH  15  26
ATOM     26  OD3 MOL d          12.712  18.803  41.639  0.00  0.00    -0.390 OA
ATOM     27  H30 MOL d          12.777  18.808  42.587  0.00  0.00     0.210 HD
ENDBRANCH  15  26
BRANCH  17  28
ATOM     28  OD4 MOL d          11.156  17.311  43.544  0.00  0.00    -0.385 OA
BRANCH  28  29
ATOM     29  CD7 MOL d          12.130  16.252  43.747  0.00  0.00     0.005 C 
ATOM     30  H32 MOL d          12.411  16.211  44.809  0.00  0.00     0.066 H 
ATOM     31  H33 MOL d          13.024  16.455  43.138  0.00  0.00     0.066 H 
ATOM     32  H34 MOL d          11.692  15.288  43.446  0.00  0.00     0.066 H 
ENDBRANCH  28  29
ENDBRANCH  17  28
BRANCH  19  33
ATOM     33  CD6 MOL d           8.620  16.004  42.522  0.00  0.00     0.043 C 
ATOM     34  H27 MOL d           8.609  14.978  42.921  0.00  0.00     0.078 H 
ATOM     35  H28 MOL d           7.734  16.160  41.889  0.00  0.00     0.078 H 
BRANCH  33  36
ATOM     36  OD6 MOL d           8.578  16.928  43.616  0.00  0.00    -0.398 OA
ATOM     37  H31 MOL d           8.133  16.526  44.352  0.00  0.00     0.209 HD
ENDBRANCH  33  36
ENDBRANCH  19  33
ENDBRANCH  12  13
ENDBRANCH   4  12
BRANCH   3  38
ATOM     38  OB3 MOL d          13.990  15.449  40.721  0.00  0.00    -0.390 OA
ATOM     39  H20 MOL d          13.458  16.236  40.759  0.00  0.00     0.210 HD
ENDBRANCH   3  38
BRANCH   5  40
ATOM     40  CB6 MOL d          11.576  15.318  36.202  0.00  0.00     0.043 C 
ATOM     41  H17 MOL d          10.596  15.193  36.685  0.00  0.00     0.078 H 
ATOM     42  H18 MOL d          11.587  14.771  35.248  0.00  0.00     0.078 H 
BRANCH  40  43
ATOM     43  OB6 MOL d          11.793  16.666  35.956  0.00  0.00    -0.398 OA
ATOM     44  H21 MOL d          11.317  16.926  35.176  0.00  0.00     0.209 HD
ENDBRANCH  40  43
ENDBRANCH   5  40
BRANCH   2  45
ATOM     45  OB2 MOL d          16.335  14.487  39.295  0.00  0.00    -0.388 OA
ATOM     46  H19 MOL d          17.074  14.457  38.699  0.00  0.00     0.210 HD
ENDBRANCH   2  45
BRANCH   1  47
ATOM     47  OA4 MOL d          15.141  13.031  37.250  0.00  0.00    -0.348 OA
BRANCH  47  48
ATOM     48  CA4 MOL d          15.636  12.415  36.185  0.00  0.00     0.090 C 
ATOM     49  CA3 MOL d          15.053  13.083  34.887  0.00  0.00     0.094 C 
ATOM     50  CA2 MOL d          15.971  12.764  33.654  0.00  0.00     0.121 C 
ATOM     51  H4  MOL d          15.047  14.172  35.042  0.00  0.00     0.091 H 
ATOM     52  CA1 MOL d          17.410  13.204  33.986  0.00  0.00     0.159 C 
ATOM     53  H2  MOL d          15.977  11.671  33.528  0.00  0.00     0.099 H 
ATOM     54  NA1 MOL d          18.162  13.688  33.010  0.00  0.00    -0.120 NA
ATOM     55  NA5 MOL d          17.939  13.078  35.308  0.00  0.00    -0.365 N 
ATOM     56  CA5 MOL d          17.100  12.605  36.426  0.00  0.00     0.059 C 
ATOM     57  H8  MOL d          18.924  13.321  35.484  0.00  0.00     0.161 HD
ATOM     58  H7  MOL d          17.201  13.330  37.247  0.00  0.00     0.079 H 
ATOM     59  H6  MOL d          15.385  11.345  36.176  0.00  0.00     0.090 H 
BRANCH  49  60
ATOM     60  OA3 MOL d          13.809  12.701  34.630  0.00  0.00    -0.390 OA
ATOM     61  H5  MOL d          13.360  13.388  34.150  0.00  0.00     0.210 HD
ENDBRANCH  49  60
BRANCH  50  62
ATOM     62  OA2 MOL d          15.544  13.280  32.491  0.00  0.00    -0.385 OA
ATOM     63  H3  MOL d          15.598  14.228  32.528  0.00  0.00     0.210 HD
ENDBRANCH  50  62
BRANCH  54  64
ATOM     64  OA7 MOL d          19.394  14.064  33.317  0.00  0.00    -0.265 OA
ATOM     65  H1  MOL d          19.610  14.856  32.840  0.00  0.00     0.247 HD
ENDBRANCH  54  64
BRANCH  56  66
ATOM     66  CA6 MOL d          17.713  11.235  36.859  0.00  0.00     0.038 C 
ATOM     67  H9  MOL d          17.936  11.264  37.936  0.00  0.00     0.077 H 
ATOM     68  H10 MOL d          18.643  11.061  36.297  0.00  0.00     0.077 H 
BRANCH  66  69
ATOM     69  OA6 MOL d          16.838  10.209  36.608  0.00  0.00    -0.399 OA
ATOM     70  H11 MOL d          16.392  10.370  35.785  0.00  0.00     0.209 HD
ENDBRANCH  66  69
ENDBRANCH  56  66
ENDBRANCH  47  48
ENDBRANCH   1  47
TORSDOF 19
ENDMDL
MODEL 9
REMARK VINA RESULT:      -5.1      3.301      9.188
REMARK  19 active torsions:
REMARK  status: ('A' for Active; 'I' for Inactive)
REMARK    1  A    between atoms: NA1_2  and  OA7_3 
REMARK    2  A    between atoms: CA2_4  and  OA2_5 
REMARK    3  A    between atoms: CA3_6  and  OA3_7 
REMARK    4  A    between atoms: CA4_8  and  OA4_9 
REMARK    5  A    between atoms: OA4_9  and  CB1_14 
REMARK    6  A    between atoms: CA5_10  and  CA6_12 
REMARK    7  A    between atoms: CA6_12  and  OA6_13 
REMARK    8  A    between atoms: CB2_15  and  OB2_20 
REMARK    9  A    between atoms: CB3_16  and  OB3_21 
REMARK   10  A    between atoms: CB4_17  and  OB4_22 
REMARK   11  A    between atoms: CB5_18  and  CB6_19 
REMARK   12  A    between atoms: CB6_19  and  OB6_24 
REMARK   13  A    between atoms: OB4_22  and  CD1_25 
REMARK   14  A    between atoms: CD2_26  and  OD2_31 
REMARK   15  A    between atoms: CD3_27  and  OD3_32 
REMARK   16  A    between atoms: CD4_28  and  OD4_33 
REMARK   17  A    between atoms: CD5_29  and  CD6_30 
REMARK   18  A    between atoms: CD6_30  and  OD6_35 
REMARK   19  A    between atoms: OD4_33  and  CD7_36 
ROOT
ATOM      1  CB1 MOL d          14.039  15.505  36.352  0.00  0.00     0.159 C 
ATOM      2  CB2 MOL d          14.308  15.922  37.876  0.00  0.00     0.110 C 
ATOM      3  CB3 MOL d          13.227  15.348  38.863  0.00  0.00     0.092 C 
ATOM      4  CB4 MOL d          11.839  15.895  38.397  0.00  0.00     0.096 C 
ATOM      5  CB5 MOL d          11.586  15.334  36.847  0.00  0.00     0.089 C 
ATOM      6  OB5 MOL d          12.652  15.870  35.968  0.00  0.00    -0.348 OA
ATOM      7  H12 MOL d          14.735  16.050  35.698  0.00  0.00     0.133 H 
ATOM      8  H13 MOL d          14.266  17.019  37.945  0.00  0.00     0.094 H 
ATOM      9  H14 MOL d          13.225  14.249  38.834  0.00  0.00     0.091 H 
ATOM     10  H15 MOL d          11.834  16.995  38.408  0.00  0.00     0.091 H 
ATOM     11  H16 MOL d          11.620  14.235  36.855  0.00  0.00     0.090 H 
ENDROOT
BRANCH   4  12
ATOM     12  OB4 MOL d          10.839  15.399  39.271  0.00  0.00    -0.348 OA
BRANCH  12  13
ATOM     13  CD1 MOL d           9.879  16.449  39.630  0.00  0.00     0.159 C 
ATOM     14  CD2 MOL d          10.534  17.830  40.036  0.00  0.00     0.110 C 
ATOM     15  CD3 MOL d          11.421  17.596  41.336  0.00  0.00     0.092 C 
ATOM     16  H23 MOL d           9.754  18.575  40.252  0.00  0.00     0.094 H 
ATOM     17  CD4 MOL d          10.489  17.112  42.492  0.00  0.00     0.092 C 
ATOM     18  H24 MOL d          12.199  16.846  41.132  0.00  0.00     0.091 H 
ATOM     19  CD5 MOL d           9.782  15.706  42.039  0.00  0.00     0.089 C 
ATOM     20  H25 MOL d           9.719  17.873  42.686  0.00  0.00     0.091 H 
ATOM     21  OD5 MOL d           9.021  15.953  40.769  0.00  0.00    -0.348 OA
ATOM     22  H26 MOL d          10.559  14.949  41.861  0.00  0.00     0.090 H 
ATOM     23  H22 MOL d           9.237  16.629  38.755  0.00  0.00     0.133 H 
BRANCH  14  24
ATOM     24  OD2 MOL d          11.333  18.271  38.920  0.00  0.00    -0.388 OA
ATOM     25  H29 MOL d          11.677  17.515  38.459  0.00  0.00     0.210 HD
ENDBRANCH  14  24
BRANCH  15  26
ATOM     26  OD3 MOL d          12.011  18.812  41.721  0.00  0.00    -0.390 OA
ATOM     27  H30 MOL d          12.003  19.414  40.986  0.00  0.00     0.210 HD
ENDBRANCH  15  26
BRANCH  17  28
ATOM     28  OD4 MOL d          11.267  16.877  43.717  0.00  0.00    -0.385 OA
BRANCH  28  29
ATOM     29  CD7 MOL d          12.365  15.938  43.566  0.00  0.00     0.005 C 
ATOM     30  H32 MOL d          13.320  16.482  43.600  0.00  0.00     0.066 H 
ATOM     31  H33 MOL d          12.274  15.419  42.600  0.00  0.00     0.066 H 
ATOM     32  H34 MOL d          12.332  15.202  44.383  0.00  0.00     0.066 H 
ENDBRANCH  28  29
ENDBRANCH  17  28
BRANCH  19  33
ATOM     33  CD6 MOL d           8.816  15.189  43.145  0.00  0.00     0.043 C 
ATOM     34  H27 MOL d           9.261  14.302  43.621  0.00  0.00     0.078 H 
ATOM     35  H28 MOL d           7.857  14.913  42.681  0.00  0.00     0.078 H 
BRANCH  33  36
ATOM     36  OD6 MOL d           8.578  16.184  44.147  0.00  0.00    -0.398 OA
ATOM     37  H31 MOL d           8.985  15.914  44.962  0.00  0.00     0.209 HD
ENDBRANCH  33  36
ENDBRANCH  19  33
ENDBRANCH  12  13
ENDBRANCH   4  12
BRANCH   3  38
ATOM     38  OB3 MOL d          13.542  15.799  40.204  0.00  0.00    -0.390 OA
ATOM     39  H20 MOL d          14.083  15.148  40.637  0.00  0.00     0.210 HD
ENDBRANCH   3  38
BRANCH   5  40
ATOM     40  CB6 MOL d          10.262  15.790  36.267  0.00  0.00     0.043 C 
ATOM     41  H17 MOL d           9.442  15.403  36.890  0.00  0.00     0.078 H 
ATOM     42  H18 MOL d          10.161  15.395  35.245  0.00  0.00     0.078 H 
BRANCH  40  43
ATOM     43  OB6 MOL d          10.192  17.174  36.230  0.00  0.00    -0.398 OA
ATOM     44  H21 MOL d          11.018  17.524  35.916  0.00  0.00     0.209 HD
ENDBRANCH  40  43
ENDBRANCH   5  40
BRANCH   2  45
ATOM     45  OB2 MOL d          15.647  15.496  38.221  0.00  0.00    -0.388 OA
ATOM     46  H19 MOL d          15.873  14.724  37.715  0.00  0.00     0.210 HD
ENDBRANCH   2  45
BRANCH   1  47
ATOM     47  OA4 MOL d          14.290  14.112  36.227  0.00  0.00    -0.348 OA
BRANCH  47  48
ATOM     48  CA4 MOL d          15.418  13.833  35.590  0.00  0.00     0.090 C 
ATOM     49  CA3 MOL d          16.181  12.698  36.365  0.00  0.00     0.094 C 
ATOM     50  CA2 MOL d          17.207  11.987  35.414  0.00  0.00     0.121 C 
ATOM     51  H4  MOL d          15.438  11.955  36.691  0.00  0.00     0.091 H 
ATOM     52  CA1 MOL d          16.456  11.488  34.166  0.00  0.00     0.159 C 
ATOM     53  H2  MOL d          17.929  12.750  35.087  0.00  0.00     0.099 H 
ATOM     54  NA1 MOL d          16.846  10.353  33.606  0.00  0.00    -0.120 NA
ATOM     55  NA5 MOL d          15.375  12.234  33.601  0.00  0.00    -0.365 N 
ATOM     56  CA5 MOL d          14.878  13.466  34.244  0.00  0.00     0.059 C 
ATOM     57  H8  MOL d          14.935  11.906  32.730  0.00  0.00     0.161 HD
ATOM     58  H7  MOL d          13.787  13.369  34.350  0.00  0.00     0.079 H 
ATOM     59  H6  MOL d          16.075  14.712  35.512  0.00  0.00     0.090 H 
BRANCH  49  60
ATOM     60  OA3 MOL d          16.808  13.149  37.445  0.00  0.00    -0.390 OA
ATOM     61  H5  MOL d          16.853  14.098  37.410  0.00  0.00     0.210 HD
ENDBRANCH  49  60
BRANCH  50  62
ATOM     62  OA2 MOL d          17.922  11.010  35.994  0.00  0.00    -0.385 OA
ATOM     63  H3  MOL d          17.348  10.472  36.526  0.00  0.00     0.210 HD
ENDBRANCH  50  62
BRANCH  54  64
ATOM     64  OA7 MOL d          16.185   9.940  32.537  0.00  0.00    -0.265 OA
ATOM     65  H1  MOL d          15.364   9.545  32.806  0.00  0.00     0.247 HD
ENDBRANCH  54  64
BRANCH  56  66
ATOM     66  CA6 MOL d          15.207  14.622  33.245  0.00  0.00     0.038 C 
ATOM     67  H9  MOL d          15.143  14.239  32.216  0.00  0.00     0.077 H 
ATOM     68  H10 MOL d          16.227  14.986  33.439  0.00  0.00     0.077 H 
BRANCH  66  69
ATOM     69  OA6 MOL d          14.323  15.660  33.395  0.00  0.00    -0.399 OA
ATOM     70  H11 MOL d          14.726  16.463  33.085  0.00  0.00     0.209 HD
ENDBRANCH  66  69
ENDBRANCH  56  66
ENDBRANCH  47  48
ENDBRANCH   1  47
TORSDOF 19
ENDMDL
MODEL 10
REMARK VINA RESULT:      -5.1      3.304      8.582
REMARK  19 active torsions:
REMARK  status: ('A' for Active; 'I' for Inactive)
REMARK    1  A    between atoms: NA1_2  and  OA7_3 
REMARK    2  A    between atoms: CA2_4  and  OA2_5 
REMARK    3  A    between atoms: CA3_6  and  OA3_7 
REMARK    4  A    between atoms: CA4_8  and  OA4_9 
REMARK    5  A    between atoms: OA4_9  and  CB1_14 
REMARK    6  A    between atoms: CA5_10  and  CA6_12 
REMARK    7  A    between atoms: CA6_12  and  OA6_13 
REMARK    8  A    between atoms: CB2_15  and  OB2_20 
REMARK    9  A    between atoms: CB3_16  and  OB3_21 
REMARK   10  A    between atoms: CB4_17  and  OB4_22 
REMARK   11  A    between atoms: CB5_18  and  CB6_19 
REMARK   12  A    between atoms: CB6_19  and  OB6_24 
REMARK   13  A    between atoms: OB4_22  and  CD1_25 
REMARK   14  A    between atoms: CD2_26  and  OD2_31 
REMARK   15  A    between atoms: CD3_27  and  OD3_32 
REMARK   16  A    between atoms: CD4_28  and  OD4_33 
REMARK   17  A    between atoms: CD5_29  and  CD6_30 
REMARK   18  A    between atoms: CD6_30  and  OD6_35 
REMARK   19  A    between atoms: OD4_33  and  CD7_36 
ROOT
ATOM      1  CB1 MOL d          12.909  15.171  35.461  0.00  0.00     0.159 C 
ATOM      2  CB2 MOL d          13.540  16.400  36.275  0.00  0.00     0.110 C 
ATOM      3  CB3 MOL d          13.038  16.464  37.764  0.00  0.00     0.092 C 
ATOM      4  CB4 MOL d          11.481  16.595  37.721  0.00  0.00     0.096 C 
ATOM      5  CB5 MOL d          10.895  15.235  36.955  0.00  0.00     0.089 C 
ATOM      6  OB5 MOL d          11.429  15.202  35.573  0.00  0.00    -0.348 OA
ATOM      7  H12 MOL d          13.179  15.262  34.399  0.00  0.00     0.133 H 
ATOM      8  H13 MOL d          13.230  17.334  35.783  0.00  0.00     0.094 H 
ATOM      9  H14 MOL d          13.322  15.550  38.305  0.00  0.00     0.091 H 
ATOM     10  H15 MOL d          11.184  17.499  37.169  0.00  0.00     0.091 H 
ATOM     11  H16 MOL d          11.224  14.344  37.508  0.00  0.00     0.090 H 
ENDROOT
BRANCH   4  12
ATOM     12  OB4 MOL d          10.994  16.661  39.051  0.00  0.00    -0.348 OA
BRANCH  12  13
ATOM     13  CD1 MOL d          10.909  15.326  39.653  0.00  0.00     0.159 C 
ATOM     14  CD2 MOL d           9.851  15.197  40.822  0.00  0.00     0.110 C 
ATOM     15  CD3 MOL d          10.291  16.172  42.000  0.00  0.00     0.092 C 
ATOM     16  H23 MOL d           9.817  14.163  41.195  0.00  0.00     0.094 H 
ATOM     17  CD4 MOL d          11.691  15.719  42.523  0.00  0.00     0.092 C 
ATOM     18  H24 MOL d          10.337  17.209  41.634  0.00  0.00     0.091 H 
ATOM     19  CD5 MOL d          12.765  15.812  41.292  0.00  0.00     0.089 C 
ATOM     20  H25 MOL d          11.628  14.682  42.887  0.00  0.00     0.091 H 
ATOM     21  OD5 MOL d          12.272  14.940  40.173  0.00  0.00    -0.348 OA
ATOM     22  H26 MOL d          12.830  16.853  40.944  0.00  0.00     0.090 H 
ATOM     23  H22 MOL d          10.618  14.620  38.861  0.00  0.00     0.133 H 
BRANCH  14  24
ATOM     24  OD2 MOL d           8.566  15.563  40.281  0.00  0.00    -0.388 OA
ATOM     25  H29 MOL d           8.610  15.559  39.331  0.00  0.00     0.210 HD
ENDBRANCH  14  24
BRANCH  15  26
ATOM     26  OD3 MOL d           9.368  16.072  43.055  0.00  0.00    -0.390 OA
ATOM     27  H30 MOL d           9.830  16.128  43.884  0.00  0.00     0.210 HD
ENDBRANCH  15  26
BRANCH  17  28
ATOM     28  OD4 MOL d          12.142  16.595  43.613  0.00  0.00    -0.385 OA
BRANCH  28  29
ATOM     29  CD7 MOL d          12.144  18.011  43.289  0.00  0.00     0.005 C 
ATOM     30  H32 MOL d          11.108  18.364  43.180  0.00  0.00     0.066 H 
ATOM     31  H33 MOL d          12.687  18.171  42.345  0.00  0.00     0.066 H 
ATOM     32  H34 MOL d          12.639  18.571  44.097  0.00  0.00     0.066 H 
ENDBRANCH  28  29
ENDBRANCH  17  28
BRANCH  19  33
ATOM     33  CD6 MOL d          14.177  15.343  41.749  0.00  0.00     0.043 C 
ATOM     34  H27 MOL d          14.068  14.455  42.390  0.00  0.00     0.078 H 
ATOM     35  H28 MOL d          14.654  16.152  42.321  0.00  0.00     0.078 H 
BRANCH  33  36
ATOM     36  OD6 MOL d          15.011  15.009  40.632  0.00  0.00    -0.398 OA
ATOM     37  H31 MOL d          14.488  15.003  39.839  0.00  0.00     0.209 HD
ENDBRANCH  33  36
ENDBRANCH  19  33
ENDBRANCH  12  13
ENDBRANCH   4  12
BRANCH   3  38
ATOM     38  OB3 MOL d          13.641  17.616  38.404  0.00  0.00    -0.390 OA
ATOM     39  H20 MOL d          13.002  18.316  38.461  0.00  0.00     0.210 HD
ENDBRANCH   3  38
BRANCH   5  40
ATOM     40  CB6 MOL d           9.383  15.228  36.847  0.00  0.00     0.043 C 
ATOM     41  H17 MOL d           8.981  14.407  37.459  0.00  0.00     0.078 H 
ATOM     42  H18 MOL d           9.097  15.074  35.795  0.00  0.00     0.078 H 
BRANCH  40  43
ATOM     43  OB6 MOL d           8.853  16.430  37.291  0.00  0.00    -0.398 OA
ATOM     44  H21 MOL d           9.002  17.102  36.636  0.00  0.00     0.209 HD
ENDBRANCH  40  43
ENDBRANCH   5  40
BRANCH   2  45
ATOM     45  OB2 MOL d          14.980  16.295  36.186  0.00  0.00    -0.388 OA
ATOM     46  H19 MOL d          15.217  15.415  35.918  0.00  0.00     0.210 HD
ENDBRANCH   2  45
BRANCH   1  47
ATOM     47  OA4 MOL d          13.470  13.971  35.974  0.00  0.00    -0.348 OA
BRANCH  47  48
ATOM     48  CA4 MOL d          14.751  13.815  35.673  0.00  0.00     0.090 C 
ATOM     49  CA3 MOL d          15.481  13.114  36.876  0.00  0.00     0.094 C 
ATOM     50  CA2 MOL d          16.817  12.451  36.388  0.00  0.00     0.121 C 
ATOM     51  H4  MOL d          14.819  12.321  37.256  0.00  0.00     0.091 H 
ATOM     52  CA1 MOL d          16.496  11.501  35.218  0.00  0.00     0.159 C 
ATOM     53  H2  MOL d          17.455  13.258  35.997  0.00  0.00     0.099 H 
ATOM     54  NA1 MOL d          17.202  10.387  35.099  0.00  0.00    -0.120 NA
ATOM     55  NA5 MOL d          15.477  11.815  34.266  0.00  0.00    -0.365 N 
ATOM     56  CA5 MOL d          14.633  13.015  34.415  0.00  0.00     0.059 C 
ATOM     57  H8  MOL d          15.330  11.190  33.460  0.00  0.00     0.161 HD
ATOM     58  H7  MOL d          13.583  12.696  34.334  0.00  0.00     0.079 H 
ATOM     59  H6  MOL d          15.246  14.777  35.472  0.00  0.00     0.090 H 
BRANCH  49  60
ATOM     60  OA3 MOL d          15.734  13.948  37.877  0.00  0.00    -0.390 OA
ATOM     61  H5  MOL d          15.028  14.581  37.947  0.00  0.00     0.210 HD
ENDBRANCH  49  60
BRANCH  50  62
ATOM     62  OA2 MOL d          17.522  11.839  37.352  0.00  0.00    -0.385 OA
ATOM     63  H3  MOL d          17.562  12.400  38.118  0.00  0.00     0.210 HD
ENDBRANCH  50  62
BRANCH  54  64
ATOM     64  OA7 MOL d          16.907   9.583  34.089  0.00  0.00    -0.265 OA
ATOM     65  H1  MOL d          17.229   8.709  34.277  0.00  0.00     0.247 HD
ENDBRANCH  54  64
BRANCH  56  66
ATOM     66  CA6 MOL d          14.996  13.936  33.206  0.00  0.00     0.038 C 
ATOM     67  H9  MOL d          14.080  14.412  32.827  0.00  0.00     0.077 H 
ATOM     68  H10 MOL d          15.448  13.325  32.410  0.00  0.00     0.077 H 
BRANCH  66  69
ATOM     69  OA6 MOL d          15.885  14.909  33.586  0.00  0.00    -0.399 OA
ATOM     70  H11 MOL d          15.627  15.259  34.431  0.00  0.00     0.209 HD
ENDBRANCH  66  69
ENDBRANCH  56  66
ENDBRANCH  47  48
ENDBRANCH   1  47
TORSDOF 19
ENDMDL
