MODEL 1
REMARK VINA RESULT:      -6.9      0.000      0.000
REMARK  7 active torsions:
REMARK  status: ('A' for Active; 'I' for Inactive)
REMARK    1  A    between atoms: C13_2  and  C15_3 
REMARK       I    between atoms: C13_2  and  N12_13 
REMARK    2  A    between atoms: C19_7  and  C21_8 
REMARK    3  A    between atoms: C21_8  and  N22_9 
REMARK    4  A    between atoms: N22_9  and  C23_10 
REMARK    5  A    between atoms: N22_9  and  C24_11 
REMARK    6  A    between atoms: N12_13  and  C10_14 
REMARK    7  A    between atoms: C6_16  and  C2_20 
ROOT
ATOM      1  C15 DN3 d          -9.973  56.985  11.246  0.00  0.00     0.032 A 
ATOM      2  C16 DN3 d          -9.514  57.848  10.252  0.00  0.00    -0.068 A 
ATOM      3  C17 DN3 d         -10.235  59.008   9.969  0.00  0.00    -0.081 A 
ATOM      4  C18 DN3 d         -11.421  59.293  10.636  0.00  0.00    -0.075 A 
ATOM      5  C19 DN3 d         -11.819  58.482  11.699  0.00  0.00    -0.032 A 
ATOM      6  C20 DN3 d         -11.107  57.323  11.978  0.00  0.00    -0.060 A 
ATOM      7  H1  DN3 d          -8.607  57.620   9.705  0.00  0.00     0.085 H 
ATOM      8  H2  DN3 d          -9.866  59.696   9.218  0.00  0.00     0.083 H 
ATOM      9  H3  DN3 d         -12.029  60.138  10.333  0.00  0.00     0.084 H 
ATOM     10  H13 DN3 d         -11.441  56.671  12.778  0.00  0.00     0.086 H 
ENDROOT
BRANCH   1  11
ATOM     11  C13 DN3 d          -9.173  55.767  11.647  0.00  0.00     0.256 C 
ATOM     12  O14 DN3 d          -9.624  54.650  11.415  0.00  0.00    -0.267 OA
ATOM     13  N12 DN3 d          -7.985  55.949  12.238  0.00  0.00    -0.323 N 
ATOM     14  H14 DN3 d          -7.655  56.887  12.342  0.00  0.00     0.169 HD
BRANCH  13  15
ATOM     15  C10 DN3 d          -7.166  54.905  12.726  0.00  0.00     0.035 A 
ATOM     16  C11 DN3 d          -5.966  54.662  12.064  0.00  0.00    -0.043 A 
ATOM     17  C6  DN3 d          -5.100  53.669  12.511  0.00  0.00     0.017 A 
ATOM     18  H15 DN3 d          -5.703  55.251  11.194  0.00  0.00     0.088 H 
ATOM     19  C7  DN3 d          -5.422  52.903  13.627  0.00  0.00    -0.069 A 
ATOM     20  C8  DN3 d          -6.604  53.157  14.306  0.00  0.00    -0.080 A 
ATOM     21  H16 DN3 d          -4.757  52.117  13.962  0.00  0.00     0.085 H 
ATOM     22  C9  DN3 d          -7.492  54.138  13.845  0.00  0.00    -0.057 A 
ATOM     23  H17 DN3 d          -6.843  52.592  15.201  0.00  0.00     0.083 H 
ATOM     24  H18 DN3 d          -8.432  54.302  14.357  0.00  0.00     0.086 H 
BRANCH  17  25
ATOM     25  C2  DN3 d          -3.830  53.413  11.793  0.00  0.00     0.198 A 
ATOM     26  N1  DN3 d          -2.676  54.080  11.997  0.00  0.00    -0.139 NA
ATOM     27  N5  DN3 d          -1.714  53.586  11.125  0.00  0.00    -0.200 N 
ATOM     28  N4  DN3 d          -2.328  52.574  10.385  0.00  0.00     0.022 NA
ATOM     29  H19 DN3 d          -0.738  53.904  11.041  0.00  0.00     0.208 HD
ATOM     30  N3  DN3 d          -3.656  52.497  10.810  0.00  0.00    -0.136 NA
ENDBRANCH  17  25
ENDBRANCH  13  15
ENDBRANCH   1  11
BRANCH   5  31
ATOM     31  C21 DN3 d         -13.092  58.783  12.475  0.00  0.00     0.106 C 
ATOM     32  H4  DN3 d         -13.180  59.866  12.643  0.00  0.00     0.083 H 
ATOM     33  H5  DN3 d         -13.071  58.262  13.444  0.00  0.00     0.083 H 
BRANCH  31  34
ATOM     34  N22 DN3 d         -14.235  58.304  11.673  0.00  0.00    -0.075 N 
ATOM     35  H6  DN3 d         -13.904  58.007  10.769  0.00  0.00     0.279 HD
BRANCH  34  36
ATOM     36  C23 DN3 d         -14.854  57.166  12.375  0.00  0.00     0.066 C 
ATOM     37  H7  DN3 d         -14.068  56.479  12.723  0.00  0.00     0.068 H 
ATOM     38  H8  DN3 d         -15.528  56.635  11.687  0.00  0.00     0.068 H 
ATOM     39  H9  DN3 d         -15.427  57.536  13.238  0.00  0.00     0.068 H 
ENDBRANCH  34  36
BRANCH  34  40
ATOM     40  C24 DN3 d         -15.244  59.359  11.494  0.00  0.00     0.066 C 
ATOM     41  H10 DN3 d         -16.115  58.947  10.964  0.00  0.00     0.068 H 
ATOM     42  H11 DN3 d         -14.812  60.183  10.906  0.00  0.00     0.068 H 
ATOM     43  H12 DN3 d         -15.559  59.737  12.478  0.00  0.00     0.068 H 
ENDBRANCH  34  40
ENDBRANCH  31  34
ENDBRANCH   5  31
TORSDOF 7
ENDMDL
MODEL 2
REMARK VINA RESULT:      -6.8      2.164      3.228
REMARK  7 active torsions:
REMARK  status: ('A' for Active; 'I' for Inactive)
REMARK    1  A    between atoms: C13_2  and  C15_3 
REMARK       I    between atoms: C13_2  and  N12_13 
REMARK    2  A    between atoms: C19_7  and  C21_8 
REMARK    3  A    between atoms: C21_8  and  N22_9 
REMARK    4  A    between atoms: N22_9  and  C23_10 
REMARK    5  A    between atoms: N22_9  and  C24_11 
REMARK    6  A    between atoms: N12_13  and  C10_14 
REMARK    7  A    between atoms: C6_16  and  C2_20 
ROOT
ATOM      1  C15 DN3 d         -11.733  58.217  11.585  0.00  0.00     0.032 A 
ATOM      2  C16 DN3 d         -11.279  59.525  11.432  0.00  0.00    -0.068 A 
ATOM      3  C17 DN3 d         -12.124  60.585  11.762  0.00  0.00    -0.081 A 
ATOM      4  C18 DN3 d         -13.421  60.353  12.204  0.00  0.00    -0.075 A 
ATOM      5  C19 DN3 d         -13.835  59.045  12.454  0.00  0.00    -0.032 A 
ATOM      6  C20 DN3 d         -12.998  57.988  12.118  0.00  0.00    -0.060 A 
ATOM      7  H1  DN3 d         -10.279  59.718  11.060  0.00  0.00     0.085 H 
ATOM      8  H2  DN3 d         -11.763  61.603  11.672  0.00  0.00     0.083 H 
ATOM      9  H3  DN3 d         -14.104  61.182  12.353  0.00  0.00     0.084 H 
ATOM     10  H13 DN3 d         -13.335  56.970  12.275  0.00  0.00     0.086 H 
ENDROOT
BRANCH   1  11
ATOM     11  C13 DN3 d         -10.818  57.042  11.326  0.00  0.00     0.256 C 
ATOM     12  O14 DN3 d         -11.301  55.919  11.216  0.00  0.00    -0.267 OA
ATOM     13  N12 DN3 d          -9.503  57.269  11.217  0.00  0.00    -0.323 N 
ATOM     14  H14 DN3 d          -9.188  58.217  11.260  0.00  0.00     0.169 HD
BRANCH  13  15
ATOM     15  C10 DN3 d          -8.528  56.258  11.046  0.00  0.00     0.035 A 
ATOM     16  C11 DN3 d          -7.924  55.742  12.188  0.00  0.00    -0.043 A 
ATOM     17  C6  DN3 d          -6.979  54.726  12.091  0.00  0.00     0.017 A 
ATOM     18  H15 DN3 d          -8.193  56.135  13.162  0.00  0.00     0.088 H 
ATOM     19  C7  DN3 d          -6.624  54.211  10.849  0.00  0.00    -0.069 A 
ATOM     20  C8  DN3 d          -7.240  54.703   9.708  0.00  0.00    -0.080 A 
ATOM     21  H16 DN3 d          -5.873  53.434  10.773  0.00  0.00     0.085 H 
ATOM     22  C9  DN3 d          -8.173  55.745   9.798  0.00  0.00    -0.057 A 
ATOM     23  H17 DN3 d          -6.998  54.278   8.740  0.00  0.00     0.083 H 
ATOM     24  H18 DN3 d          -8.619  56.151   8.899  0.00  0.00     0.086 H 
BRANCH  17  25
ATOM     25  C2  DN3 d          -6.336  54.191  13.314  0.00  0.00     0.198 A 
ATOM     26  N1  DN3 d          -6.938  53.395  14.221  0.00  0.00    -0.139 NA
ATOM     27  N5  DN3 d          -6.035  53.120  15.241  0.00  0.00    -0.200 N 
ATOM     28  N4  DN3 d          -4.847  53.773  14.911  0.00  0.00     0.022 NA
ATOM     29  H19 DN3 d          -6.210  52.546  16.078  0.00  0.00     0.208 HD
ATOM     30  N3  DN3 d          -5.067  54.450  13.709  0.00  0.00    -0.136 NA
ENDBRANCH  17  25
ENDBRANCH  13  15
ENDBRANCH   1  11
BRANCH   5  31
ATOM     31  C21 DN3 d         -15.235  58.754  12.971  0.00  0.00     0.106 C 
ATOM     32  H4  DN3 d         -15.924  59.548  12.647  0.00  0.00     0.083 H 
ATOM     33  H5  DN3 d         -15.225  58.703  14.070  0.00  0.00     0.083 H 
BRANCH  31  34
ATOM     34  N22 DN3 d         -15.664  57.457  12.412  0.00  0.00    -0.075 N 
ATOM     35  H6  DN3 d         -14.850  56.915  12.168  0.00  0.00     0.279 HD
BRANCH  34  36
ATOM     36  C23 DN3 d         -16.447  56.744  13.436  0.00  0.00     0.066 C 
ATOM     37  H7  DN3 d         -15.886  56.729  14.382  0.00  0.00     0.068 H 
ATOM     38  H8  DN3 d         -16.631  55.712  13.103  0.00  0.00     0.068 H 
ATOM     39  H9  DN3 d         -17.407  57.258  13.586  0.00  0.00     0.068 H 
ENDBRANCH  34  36
BRANCH  34  40
ATOM     40  C24 DN3 d         -16.498  57.638  11.214  0.00  0.00     0.066 C 
ATOM     41  H10 DN3 d         -17.094  58.557  11.318  0.00  0.00     0.068 H 
ATOM     42  H11 DN3 d         -17.172  56.775  11.103  0.00  0.00     0.068 H 
ATOM     43  H12 DN3 d         -15.853  57.718  10.326  0.00  0.00     0.068 H 
ENDBRANCH  34  40
ENDBRANCH  31  34
ENDBRANCH   5  31
TORSDOF 7
ENDMDL
MODEL 3
REMARK VINA RESULT:      -6.7      1.526      9.065
REMARK  7 active torsions:
REMARK  status: ('A' for Active; 'I' for Inactive)
REMARK    1  A    between atoms: C13_2  and  C15_3 
REMARK       I    between atoms: C13_2  and  N12_13 
REMARK    2  A    between atoms: C19_7  and  C21_8 
REMARK    3  A    between atoms: C21_8  and  N22_9 
REMARK    4  A    between atoms: N22_9  and  C23_10 
REMARK    5  A    between atoms: N22_9  and  C24_11 
REMARK    6  A    between atoms: N12_13  and  C10_14 
REMARK    7  A    between atoms: C6_16  and  C2_20 
ROOT
ATOM      1  C15 DN3 d          -6.947  53.649  12.683  0.00  0.00     0.032 A 
ATOM      2  C16 DN3 d          -6.983  53.526  14.071  0.00  0.00    -0.068 A 
ATOM      3  C17 DN3 d          -5.902  52.942  14.733  0.00  0.00    -0.081 A 
ATOM      4  C18 DN3 d          -4.812  52.450  14.025  0.00  0.00    -0.075 A 
ATOM      5  C19 DN3 d          -4.734  52.669  12.650  0.00  0.00    -0.032 A 
ATOM      6  C20 DN3 d          -5.812  53.242  11.988  0.00  0.00    -0.060 A 
ATOM      7  H1  DN3 d          -7.841  53.879  14.630  0.00  0.00     0.085 H 
ATOM      8  H2  DN3 d          -5.914  52.872  15.815  0.00  0.00     0.083 H 
ATOM      9  H3  DN3 d          -4.029  51.901  14.538  0.00  0.00     0.084 H 
ATOM     10  H13 DN3 d          -5.768  53.375  10.913  0.00  0.00     0.086 H 
ENDROOT
BRANCH   1  11
ATOM     11  C13 DN3 d          -8.054  54.357  11.938  0.00  0.00     0.256 C 
ATOM     12  O14 DN3 d          -9.100  53.757  11.705  0.00  0.00    -0.267 OA
ATOM     13  N12 DN3 d          -7.860  55.627  11.560  0.00  0.00    -0.323 N 
ATOM     14  H14 DN3 d          -7.006  56.069  11.834  0.00  0.00     0.169 HD
BRANCH  13  15
ATOM     15  C10 DN3 d          -8.778  56.385  10.798  0.00  0.00     0.035 A 
ATOM     16  C11 DN3 d          -9.727  57.133  11.488  0.00  0.00    -0.043 A 
ATOM     17  C6  DN3 d         -10.642  57.924  10.800  0.00  0.00     0.017 A 
ATOM     18  H15 DN3 d          -9.754  57.100  12.571  0.00  0.00     0.088 H 
ATOM     19  C7  DN3 d         -10.621  57.978   9.410  0.00  0.00    -0.069 A 
ATOM     20  C8  DN3 d          -9.662  57.255   8.717  0.00  0.00    -0.080 A 
ATOM     21  H16 DN3 d         -11.346  58.578   8.875  0.00  0.00     0.085 H 
ATOM     22  C9  DN3 d          -8.756  56.436   9.404  0.00  0.00    -0.057 A 
ATOM     23  H17 DN3 d          -9.613  57.324   7.636  0.00  0.00     0.083 H 
ATOM     24  H18 DN3 d          -8.036  55.842   8.853  0.00  0.00     0.086 H 
BRANCH  17  25
ATOM     25  C2  DN3 d         -11.653  58.709  11.545  0.00  0.00     0.198 A 
ATOM     26  N1  DN3 d         -11.633  60.048  11.702  0.00  0.00    -0.139 NA
ATOM     27  N5  DN3 d         -12.722  60.422  12.480  0.00  0.00    -0.200 N 
ATOM     28  N4  DN3 d         -13.420  59.252  12.781  0.00  0.00     0.022 NA
ATOM     29  H19 DN3 d         -12.967  61.378  12.776  0.00  0.00     0.208 HD
ATOM     30  N3  DN3 d         -12.721  58.192  12.199  0.00  0.00    -0.136 NA
ENDBRANCH  17  25
ENDBRANCH  13  15
ENDBRANCH   1  11
BRANCH   5  31
ATOM     31  C21 DN3 d          -3.540  52.176  11.848  0.00  0.00     0.106 C 
ATOM     32  H4  DN3 d          -3.885  51.706  10.915  0.00  0.00     0.083 H 
ATOM     33  H5  DN3 d          -2.970  51.443  12.438  0.00  0.00     0.083 H 
BRANCH  31  34
ATOM     34  N22 DN3 d          -2.690  53.342  11.538  0.00  0.00    -0.075 N 
ATOM     35  H6  DN3 d          -3.267  54.087  11.181  0.00  0.00     0.279 HD
BRANCH  34  36
ATOM     36  C23 DN3 d          -2.026  53.779  12.778  0.00  0.00     0.066 C 
ATOM     37  H7  DN3 d          -2.339  54.806  13.019  0.00  0.00     0.068 H 
ATOM     38  H8  DN3 d          -0.936  53.750  12.640  0.00  0.00     0.068 H 
ATOM     39  H9  DN3 d          -2.309  53.106  13.602  0.00  0.00     0.068 H 
ENDBRANCH  34  36
BRANCH  34  40
ATOM     40  C24 DN3 d          -1.663  53.007  10.540  0.00  0.00     0.066 C 
ATOM     41  H10 DN3 d          -0.703  52.832  11.047  0.00  0.00     0.068 H 
ATOM     42  H11 DN3 d          -1.556  53.841   9.830  0.00  0.00     0.068 H 
ATOM     43  H12 DN3 d          -1.961  52.098   9.996  0.00  0.00     0.068 H 
ENDBRANCH  34  40
ENDBRANCH  31  34
ENDBRANCH   5  31
TORSDOF 7
ENDMDL
MODEL 4
REMARK VINA RESULT:      -6.1      1.954      2.448
REMARK  7 active torsions:
REMARK  status: ('A' for Active; 'I' for Inactive)
REMARK    1  A    between atoms: C13_2  and  C15_3 
REMARK       I    between atoms: C13_2  and  N12_13 
REMARK    2  A    between atoms: C19_7  and  C21_8 
REMARK    3  A    between atoms: C21_8  and  N22_9 
REMARK    4  A    between atoms: N22_9  and  C23_10 
REMARK    5  A    between atoms: N22_9  and  C24_11 
REMARK    6  A    between atoms: N12_13  and  C10_14 
REMARK    7  A    between atoms: C6_16  and  C2_20 
ROOT
ATOM      1  C15 DN3 d         -10.619  57.485  10.399  0.00  0.00     0.032 A 
ATOM      2  C16 DN3 d         -10.463  58.551  11.283  0.00  0.00    -0.068 A 
ATOM      3  C17 DN3 d         -11.389  59.594  11.264  0.00  0.00    -0.081 A 
ATOM      4  C18 DN3 d         -12.439  59.602  10.353  0.00  0.00    -0.075 A 
ATOM      5  C19 DN3 d         -12.649  58.485   9.543  0.00  0.00    -0.032 A 
ATOM      6  C20 DN3 d         -11.724  57.449   9.554  0.00  0.00    -0.060 A 
ATOM      7  H1  DN3 d          -9.632  58.570  11.978  0.00  0.00     0.085 H 
ATOM      8  H2  DN3 d         -11.289  60.410  11.970  0.00  0.00     0.083 H 
ATOM      9  H3  DN3 d         -13.088  60.467  10.273  0.00  0.00     0.084 H 
ATOM     10  H13 DN3 d         -11.866  56.600   8.896  0.00  0.00     0.086 H 
ENDROOT
BRANCH   1  11
ATOM     11  C13 DN3 d          -9.691  56.293  10.450  0.00  0.00     0.256 C 
ATOM     12  O14 DN3 d          -9.215  55.858   9.406  0.00  0.00    -0.267 OA
ATOM     13  N12 DN3 d          -9.412  55.751  11.642  0.00  0.00    -0.323 N 
ATOM     14  H14 DN3 d          -9.790  56.194  12.455  0.00  0.00     0.169 HD
BRANCH  13  15
ATOM     15  C10 DN3 d          -8.619  54.596  11.831  0.00  0.00     0.035 A 
ATOM     16  C11 DN3 d          -7.281  54.778  12.166  0.00  0.00    -0.043 A 
ATOM     17  C6  DN3 d          -6.453  53.683  12.393  0.00  0.00     0.017 A 
ATOM     18  H15 DN3 d          -6.879  55.781  12.250  0.00  0.00     0.088 H 
ATOM     19  C7  DN3 d          -6.952  52.389  12.289  0.00  0.00    -0.069 A 
ATOM     20  C8  DN3 d          -8.291  52.200  11.981  0.00  0.00    -0.080 A 
ATOM     21  H16 DN3 d          -6.302  51.537  12.447  0.00  0.00     0.085 H 
ATOM     22  C9  DN3 d          -9.122  53.299  11.724  0.00  0.00    -0.057 A 
ATOM     23  H17 DN3 d          -8.697  51.196  11.938  0.00  0.00     0.083 H 
ATOM     24  H18 DN3 d         -10.157  53.141  11.444  0.00  0.00     0.086 H 
BRANCH  17  25
ATOM     25  C2  DN3 d          -5.028  53.889  12.740  0.00  0.00     0.198 A 
ATOM     26  N1  DN3 d          -4.342  53.176  13.656  0.00  0.00    -0.139 NA
ATOM     27  N5  DN3 d          -3.046  53.672  13.729  0.00  0.00    -0.200 N 
ATOM     28  N4  DN3 d          -2.964  54.714  12.804  0.00  0.00     0.022 NA
ATOM     29  H19 DN3 d          -2.292  53.336  14.345  0.00  0.00     0.208 HD
ATOM     30  N3  DN3 d          -4.222  54.841  12.211  0.00  0.00    -0.136 NA
ENDBRANCH  17  25
ENDBRANCH  13  15
ENDBRANCH   1  11
BRANCH   5  31
ATOM     31  C21 DN3 d         -13.807  58.442   8.559  0.00  0.00     0.106 C 
ATOM     32  H4  DN3 d         -13.833  57.466   8.055  0.00  0.00     0.083 H 
ATOM     33  H5  DN3 d         -13.691  59.239   7.809  0.00  0.00     0.083 H 
BRANCH  31  34
ATOM     34  N22 DN3 d         -15.056  58.648   9.319  0.00  0.00    -0.075 N 
ATOM     35  H6  DN3 d         -14.905  59.356  10.020  0.00  0.00     0.279 HD
BRANCH  34  36
ATOM     36  C23 DN3 d         -16.105  59.091   8.385  0.00  0.00     0.066 C 
ATOM     37  H7  DN3 d         -17.001  58.467   8.517  0.00  0.00     0.068 H 
ATOM     38  H8  DN3 d         -15.740  58.993   7.352  0.00  0.00     0.068 H 
ATOM     39  H9  DN3 d         -16.356  60.142   8.588  0.00  0.00     0.068 H 
ENDBRANCH  34  36
BRANCH  34  40
ATOM     40  C24 DN3 d         -15.495  57.407   9.976  0.00  0.00     0.066 C 
ATOM     41  H10 DN3 d         -15.188  56.543   9.368  0.00  0.00     0.068 H 
ATOM     42  H11 DN3 d         -16.591  57.414  10.076  0.00  0.00     0.068 H 
ATOM     43  H12 DN3 d         -15.035  57.336  10.973  0.00  0.00     0.068 H 
ENDBRANCH  34  40
ENDBRANCH  31  34
ENDBRANCH   5  31
TORSDOF 7
ENDMDL
MODEL 5
REMARK VINA RESULT:      -6.0      1.770      9.137
REMARK  7 active torsions:
REMARK  status: ('A' for Active; 'I' for Inactive)
REMARK    1  A    between atoms: C13_2  and  C15_3 
REMARK       I    between atoms: C13_2  and  N12_13 
REMARK    2  A    between atoms: C19_7  and  C21_8 
REMARK    3  A    between atoms: C21_8  and  N22_9 
REMARK    4  A    between atoms: N22_9  and  C23_10 
REMARK    5  A    between atoms: N22_9  and  C24_11 
REMARK    6  A    between atoms: N12_13  and  C10_14 
REMARK    7  A    between atoms: C6_16  and  C2_20 
ROOT
ATOM      1  C15 DN3 d          -8.160  54.472  12.522  0.00  0.00     0.032 A 
ATOM      2  C16 DN3 d          -8.489  53.348  11.767  0.00  0.00    -0.068 A 
ATOM      3  C17 DN3 d          -7.721  52.191  11.895  0.00  0.00    -0.081 A 
ATOM      4  C18 DN3 d          -6.614  52.157  12.734  0.00  0.00    -0.075 A 
ATOM      5  C19 DN3 d          -6.351  53.248  13.563  0.00  0.00    -0.032 A 
ATOM      6  C20 DN3 d          -7.109  54.404  13.432  0.00  0.00    -0.060 A 
ATOM      7  H1  DN3 d          -9.333  53.373  11.087  0.00  0.00     0.085 H 
ATOM      8  H2  DN3 d          -7.992  51.305  11.332  0.00  0.00     0.083 H 
ATOM      9  H3  DN3 d          -5.961  51.291  12.744  0.00  0.00     0.084 H 
ATOM     10  H13 DN3 d          -6.879  55.266  14.048  0.00  0.00     0.086 H 
ENDROOT
BRANCH   1  11
ATOM     11  C13 DN3 d          -9.021  55.714  12.481  0.00  0.00     0.256 C 
ATOM     12  O14 DN3 d          -9.257  56.315  13.524  0.00  0.00    -0.267 OA
ATOM     13  N12 DN3 d          -9.494  56.125  11.297  0.00  0.00    -0.323 N 
ATOM     14  H14 DN3 d          -9.212  55.618  10.482  0.00  0.00     0.169 HD
BRANCH  13  15
ATOM     15  C10 DN3 d         -10.364  57.225  11.121  0.00  0.00     0.035 A 
ATOM     16  C11 DN3 d         -11.638  57.136  11.673  0.00  0.00    -0.043 A 
ATOM     17  C6  DN3 d         -12.533  58.195  11.561  0.00  0.00     0.017 A 
ATOM     18  H15 DN3 d         -11.936  56.234  12.194  0.00  0.00     0.088 H 
ATOM     19  C7  DN3 d         -12.166  59.360  10.895  0.00  0.00    -0.069 A 
ATOM     20  C8  DN3 d         -10.890  59.466  10.365  0.00  0.00    -0.080 A 
ATOM     21  H16 DN3 d         -12.871  60.176  10.792  0.00  0.00     0.085 H 
ATOM     22  C9  DN3 d          -9.994  58.392  10.452  0.00  0.00    -0.057 A 
ATOM     23  H17 DN3 d         -10.583  60.386   9.880  0.00  0.00     0.083 H 
ATOM     24  H18 DN3 d          -9.012  58.467   9.999  0.00  0.00     0.086 H 
BRANCH  17  25
ATOM     25  C2  DN3 d         -13.890  58.085  12.145  0.00  0.00     0.198 A 
ATOM     26  N1  DN3 d         -14.685  59.128  12.462  0.00  0.00    -0.139 NA
ATOM     27  N5  DN3 d         -15.865  58.639  13.010  0.00  0.00    -0.200 N 
ATOM     28  N4  DN3 d         -15.763  57.247  13.002  0.00  0.00     0.022 NA
ATOM     29  H19 DN3 d         -16.659  59.196  13.355  0.00  0.00     0.208 HD
ATOM     30  N3  DN3 d         -14.511  56.927  12.472  0.00  0.00    -0.136 NA
ENDBRANCH  17  25
ENDBRANCH  13  15
ENDBRANCH   1  11
BRANCH   5  31
ATOM     31  C21 DN3 d          -5.169  53.234  14.520  0.00  0.00     0.106 C 
ATOM     32  H4  DN3 d          -5.039  52.226  14.938  0.00  0.00     0.083 H 
ATOM     33  H5  DN3 d          -5.340  53.951  15.337  0.00  0.00     0.083 H 
BRANCH  31  34
ATOM     34  N22 DN3 d          -3.966  53.620  13.758  0.00  0.00    -0.075 N 
ATOM     35  H6  DN3 d          -3.256  53.941  14.398  0.00  0.00     0.279 HD
BRANCH  34  36
ATOM     36  C23 DN3 d          -3.476  52.439  13.026  0.00  0.00     0.066 C 
ATOM     37  H7  DN3 d          -2.925  52.764  12.131  0.00  0.00     0.068 H 
ATOM     38  H8  DN3 d          -4.330  51.815  12.725  0.00  0.00     0.068 H 
ATOM     39  H9  DN3 d          -2.808  51.856  13.677  0.00  0.00     0.068 H 
ENDBRANCH  34  36
BRANCH  34  40
ATOM     40  C24 DN3 d          -4.262  54.690  12.792  0.00  0.00     0.066 C 
ATOM     41  H10 DN3 d          -4.975  54.318  12.042  0.00  0.00     0.068 H 
ATOM     42  H11 DN3 d          -3.332  55.000  12.292  0.00  0.00     0.068 H 
ATOM     43  H12 DN3 d          -4.699  55.550  13.320  0.00  0.00     0.068 H 
ENDBRANCH  34  40
ENDBRANCH  31  34
ENDBRANCH   5  31
TORSDOF 7
ENDMDL
MODEL 6
REMARK VINA RESULT:      -5.7      2.602      4.382
REMARK  7 active torsions:
REMARK  status: ('A' for Active; 'I' for Inactive)
REMARK    1  A    between atoms: C13_2  and  C15_3 
REMARK       I    between atoms: C13_2  and  N12_13 
REMARK    2  A    between atoms: C19_7  and  C21_8 
REMARK    3  A    between atoms: C21_8  and  N22_9 
REMARK    4  A    between atoms: N22_9  and  C23_10 
REMARK    5  A    between atoms: N22_9  and  C24_11 
REMARK    6  A    between atoms: N12_13  and  C10_14 
REMARK    7  A    between atoms: C6_16  and  C2_20 
ROOT
ATOM      1  C15 DN3 d         -13.167  58.660  11.938  0.00  0.00     0.032 A 
ATOM      2  C16 DN3 d         -13.506  59.745  12.743  0.00  0.00    -0.068 A 
ATOM      3  C17 DN3 d         -14.838  59.932  13.111  0.00  0.00    -0.081 A 
ATOM      4  C18 DN3 d         -15.833  59.074  12.657  0.00  0.00    -0.075 A 
ATOM      5  C19 DN3 d         -15.476  57.932  11.939  0.00  0.00    -0.032 A 
ATOM      6  C20 DN3 d         -14.151  57.749  11.564  0.00  0.00    -0.060 A 
ATOM      7  H1  DN3 d         -12.743  60.438  13.079  0.00  0.00     0.085 H 
ATOM      8  H2  DN3 d         -15.102  60.758  13.762  0.00  0.00     0.083 H 
ATOM      9  H3  DN3 d         -16.876  59.290  12.859  0.00  0.00     0.084 H 
ATOM     10  H13 DN3 d         -13.880  56.882  10.972  0.00  0.00     0.086 H 
ENDROOT
BRANCH   1  11
ATOM     11  C13 DN3 d         -11.725  58.370  11.592  0.00  0.00     0.256 C 
ATOM     12  O14 DN3 d         -10.937  59.304  11.472  0.00  0.00    -0.267 OA
ATOM     13  N12 DN3 d         -11.350  57.094  11.434  0.00  0.00    -0.323 N 
ATOM     14  H14 DN3 d         -12.032  56.384  11.604  0.00  0.00     0.169 HD
BRANCH  13  15
ATOM     15  C10 DN3 d         -10.054  56.684  11.043  0.00  0.00     0.035 A 
ATOM     16  C11 DN3 d          -9.164  56.312  12.046  0.00  0.00    -0.043 A 
ATOM     17  C6  DN3 d          -7.884  55.870  11.727  0.00  0.00     0.017 A 
ATOM     18  H15 DN3 d          -9.470  56.367  13.084  0.00  0.00     0.088 H 
ATOM     19  C7  DN3 d          -7.475  55.793  10.400  0.00  0.00    -0.069 A 
ATOM     20  C8  DN3 d          -8.365  56.138   9.394  0.00  0.00    -0.080 A 
ATOM     21  H16 DN3 d          -6.471  55.468  10.154  0.00  0.00     0.085 H 
ATOM     22  C9  DN3 d          -9.647  56.609   9.711  0.00  0.00    -0.057 A 
ATOM     23  H17 DN3 d          -8.068  56.042   8.356  0.00  0.00     0.083 H 
ATOM     24  H18 DN3 d         -10.322  56.915   8.921  0.00  0.00     0.086 H 
BRANCH  17  25
ATOM     25  C2  DN3 d          -6.942  55.486  12.804  0.00  0.00     0.198 A 
ATOM     26  N1  DN3 d          -7.125  55.729  14.117  0.00  0.00    -0.139 NA
ATOM     27  N5  DN3 d          -6.024  55.251  14.817  0.00  0.00    -0.200 N 
ATOM     28  N4  DN3 d          -5.163  54.690  13.874  0.00  0.00     0.022 NA
ATOM     29  H19 DN3 d          -5.873  55.302  15.835  0.00  0.00     0.208 HD
ATOM     30  N3  DN3 d          -5.752  54.865  12.620  0.00  0.00    -0.136 NA
ENDBRANCH  17  25
ENDBRANCH  13  15
ENDBRANCH   1  11
BRANCH   5  31
ATOM     31  C21 DN3 d         -16.532  56.952  11.456  0.00  0.00     0.106 C 
ATOM     32  H4  DN3 d         -16.293  56.619  10.435  0.00  0.00     0.083 H 
ATOM     33  H5  DN3 d         -17.521  57.435  11.462  0.00  0.00     0.083 H 
BRANCH  31  34
ATOM     34  N22 DN3 d         -16.533  55.797  12.374  0.00  0.00    -0.075 N 
ATOM     35  H6  DN3 d         -17.438  55.354  12.349  0.00  0.00     0.279 HD
BRANCH  34  36
ATOM     36  C23 DN3 d         -15.501  54.845  11.927  0.00  0.00     0.066 C 
ATOM     37  H7  DN3 d         -15.842  54.337  11.013  0.00  0.00     0.068 H 
ATOM     38  H8  DN3 d         -15.324  54.100  12.717  0.00  0.00     0.068 H 
ATOM     39  H9  DN3 d         -14.568  55.387  11.719  0.00  0.00     0.068 H 
ENDBRANCH  34  36
BRANCH  34  40
ATOM     40  C24 DN3 d         -16.236  56.208  13.755  0.00  0.00     0.066 C 
ATOM     41  H10 DN3 d         -16.587  57.238  13.914  0.00  0.00     0.068 H 
ATOM     42  H11 DN3 d         -15.150  56.160  13.926  0.00  0.00     0.068 H 
ATOM     43  H12 DN3 d         -16.748  55.533  14.457  0.00  0.00     0.068 H 
ENDBRANCH  34  40
ENDBRANCH  31  34
ENDBRANCH   5  31
TORSDOF 7
ENDMDL
MODEL 7
REMARK VINA RESULT:      -5.3      2.058      9.082
REMARK  7 active torsions:
REMARK  status: ('A' for Active; 'I' for Inactive)
REMARK    1  A    between atoms: C13_2  and  C15_3 
REMARK       I    between atoms: C13_2  and  N12_13 
REMARK    2  A    between atoms: C19_7  and  C21_8 
REMARK    3  A    between atoms: C21_8  and  N22_9 
REMARK    4  A    between atoms: N22_9  and  C23_10 
REMARK    5  A    between atoms: N22_9  and  C24_11 
REMARK    6  A    between atoms: N12_13  and  C10_14 
REMARK    7  A    between atoms: C6_16  and  C2_20 
ROOT
ATOM      1  C15 DN3 d          -8.377  55.227  10.921  0.00  0.00     0.032 A 
ATOM      2  C16 DN3 d          -8.401  54.888   9.570  0.00  0.00    -0.068 A 
ATOM      3  C17 DN3 d          -7.598  53.843   9.114  0.00  0.00    -0.081 A 
ATOM      4  C18 DN3 d          -6.748  53.164   9.980  0.00  0.00    -0.075 A 
ATOM      5  C19 DN3 d          -6.805  53.438  11.347  0.00  0.00    -0.032 A 
ATOM      6  C20 DN3 d          -7.598  54.483  11.802  0.00  0.00    -0.060 A 
ATOM      7  H1  DN3 d          -9.038  55.430   8.880  0.00  0.00     0.085 H 
ATOM      8  H2  DN3 d          -7.636  53.556   8.070  0.00  0.00     0.083 H 
ATOM      9  H3  DN3 d          -6.050  52.428   9.597  0.00  0.00     0.084 H 
ATOM     10  H13 DN3 d          -7.611  54.722  12.859  0.00  0.00     0.086 H 
ENDROOT
BRANCH   1  11
ATOM     11  C13 DN3 d          -9.299  56.291  11.471  0.00  0.00     0.256 C 
ATOM     12  O14 DN3 d          -9.247  56.572  12.664  0.00  0.00    -0.267 OA
ATOM     13  N12 DN3 d         -10.144  56.901  10.630  0.00  0.00    -0.323 N 
ATOM     14  H14 DN3 d         -10.090  56.661   9.660  0.00  0.00     0.169 HD
BRANCH  13  15
ATOM     15  C10 DN3 d         -11.107  57.861  11.018  0.00  0.00     0.035 A 
ATOM     16  C11 DN3 d         -12.306  57.396  11.549  0.00  0.00    -0.043 A 
ATOM     17  C6  DN3 d         -13.283  58.288  11.979  0.00  0.00     0.017 A 
ATOM     18  H15 DN3 d         -12.480  56.329  11.630  0.00  0.00     0.088 H 
ATOM     19  C7  DN3 d         -13.075  59.660  11.882  0.00  0.00    -0.069 A 
ATOM     20  C8  DN3 d         -11.873  60.131  11.378  0.00  0.00    -0.080 A 
ATOM     21  H16 DN3 d         -13.845  60.353  12.199  0.00  0.00     0.085 H 
ATOM     22  C9  DN3 d         -10.896  59.236  10.920  0.00  0.00    -0.057 A 
ATOM     23  H17 DN3 d         -11.687  61.198  11.338  0.00  0.00     0.083 H 
ATOM     24  H18 DN3 d          -9.976  59.613  10.489  0.00  0.00     0.086 H 
BRANCH  17  25
ATOM     25  C2  DN3 d         -14.559  57.780  12.534  0.00  0.00     0.198 A 
ATOM     26  N1  DN3 d         -15.488  58.534  13.155  0.00  0.00    -0.139 NA
ATOM     27  N5  DN3 d         -16.531  57.711  13.563  0.00  0.00    -0.200 N 
ATOM     28  N4  DN3 d         -16.205  56.419  13.151  0.00  0.00     0.022 NA
ATOM     29  H19 DN3 d         -17.379  57.999  14.072  0.00  0.00     0.208 HD
ATOM     30  N3  DN3 d         -14.958  56.486  12.524  0.00  0.00    -0.136 NA
ENDBRANCH  17  25
ENDBRANCH  13  15
ENDBRANCH   1  11
BRANCH   5  31
ATOM     31  C21 DN3 d          -5.916  52.691  12.329  0.00  0.00     0.106 C 
ATOM     32  H4  DN3 d          -5.095  52.198  11.790  0.00  0.00     0.083 H 
ATOM     33  H5  DN3 d          -6.507  51.936  12.869  0.00  0.00     0.083 H 
BRANCH  31  34
ATOM     34  N22 DN3 d          -5.370  53.676  13.284  0.00  0.00    -0.075 N 
ATOM     35  H6  DN3 d          -5.788  54.576  13.108  0.00  0.00     0.279 HD
BRANCH  34  36
ATOM     36  C23 DN3 d          -5.698  53.234  14.650  0.00  0.00     0.066 C 
ATOM     37  H7  DN3 d          -4.798  53.289  15.280  0.00  0.00     0.068 H 
ATOM     38  H8  DN3 d          -6.063  52.197  14.622  0.00  0.00     0.068 H 
ATOM     39  H9  DN3 d          -6.479  53.886  15.069  0.00  0.00     0.068 H 
ENDBRANCH  34  36
BRANCH  34  40
ATOM     40  C24 DN3 d          -3.909  53.791  13.159  0.00  0.00     0.066 C 
ATOM     41  H10 DN3 d          -3.523  54.440  13.959  0.00  0.00     0.068 H 
ATOM     42  H11 DN3 d          -3.658  54.227  12.180  0.00  0.00     0.068 H 
ATOM     43  H12 DN3 d          -3.453  52.793  13.244  0.00  0.00     0.068 H 
ENDBRANCH  34  40
ENDBRANCH  31  34
ENDBRANCH   5  31
TORSDOF 7
ENDMDL
MODEL 8
REMARK VINA RESULT:      -5.0      2.505      3.414
REMARK  7 active torsions:
REMARK  status: ('A' for Active; 'I' for Inactive)
REMARK    1  A    between atoms: C13_2  and  C15_3 
REMARK       I    between atoms: C13_2  and  N12_13 
REMARK    2  A    between atoms: C19_7  and  C21_8 
REMARK    3  A    between atoms: C21_8  and  N22_9 
REMARK    4  A    between atoms: N22_9  and  C23_10 
REMARK    5  A    between atoms: N22_9  and  C24_11 
REMARK    6  A    between atoms: N12_13  and  C10_14 
REMARK    7  A    between atoms: C6_16  and  C2_20 
ROOT
ATOM      1  C15 DN3 d         -12.393  56.869   9.912  0.00  0.00     0.032 A 
ATOM      2  C16 DN3 d         -12.794  57.057   8.590  0.00  0.00    -0.068 A 
ATOM      3  C17 DN3 d         -13.523  58.196   8.253  0.00  0.00    -0.081 A 
ATOM      4  C18 DN3 d         -13.888  59.125   9.221  0.00  0.00    -0.075 A 
ATOM      5  C19 DN3 d         -13.397  58.986  10.520  0.00  0.00    -0.032 A 
ATOM      6  C20 DN3 d         -12.677  57.848  10.860  0.00  0.00    -0.060 A 
ATOM      7  H1  DN3 d         -12.540  56.324   7.832  0.00  0.00     0.085 H 
ATOM      8  H2  DN3 d         -13.810  58.361   7.220  0.00  0.00     0.083 H 
ATOM      9  H3  DN3 d         -14.546  59.949   8.969  0.00  0.00     0.084 H 
ATOM     10  H13 DN3 d         -12.331  57.721  11.879  0.00  0.00     0.086 H 
ENDROOT
BRANCH   1  11
ATOM     11  C13 DN3 d         -11.524  55.696  10.301  0.00  0.00     0.256 C 
ATOM     12  O14 DN3 d         -12.032  54.736  10.871  0.00  0.00    -0.267 OA
ATOM     13  N12 DN3 d         -10.220  55.740  10.001  0.00  0.00    -0.323 N 
ATOM     14  H14 DN3 d          -9.887  56.529   9.484  0.00  0.00     0.169 HD
BRANCH  13  15
ATOM     15  C10 DN3 d          -9.280  54.748  10.366  0.00  0.00     0.035 A 
ATOM     16  C11 DN3 d          -8.499  54.981  11.493  0.00  0.00    -0.043 A 
ATOM     17  C6  DN3 d          -7.576  54.033  11.923  0.00  0.00     0.017 A 
ATOM     18  H15 DN3 d          -8.609  55.909  12.041  0.00  0.00     0.088 H 
ATOM     19  C7  DN3 d          -7.422  52.836  11.231  0.00  0.00    -0.069 A 
ATOM     20  C8  DN3 d          -8.216  52.586  10.121  0.00  0.00    -0.080 A 
ATOM     21  H16 DN3 d          -6.690  52.107  11.555  0.00  0.00     0.085 H 
ATOM     22  C9  DN3 d          -9.127  53.549   9.669  0.00  0.00    -0.057 A 
ATOM     23  H17 DN3 d          -8.130  51.639   9.601  0.00  0.00     0.083 H 
ATOM     24  H18 DN3 d          -9.714  53.363   8.777  0.00  0.00     0.086 H 
BRANCH  17  25
ATOM     25  C2  DN3 d          -6.743  54.296  13.119  0.00  0.00     0.198 A 
ATOM     26  N1  DN3 d          -6.934  55.308  13.989  0.00  0.00    -0.139 NA
ATOM     27  N5  DN3 d          -5.945  55.252  14.963  0.00  0.00    -0.200 N 
ATOM     28  N4  DN3 d          -5.145  54.150  14.658  0.00  0.00     0.022 NA
ATOM     29  H19 DN3 d          -5.825  55.899  15.756  0.00  0.00     0.208 HD
ATOM     30  N3  DN3 d          -5.656  53.579  13.490  0.00  0.00    -0.136 NA
ENDBRANCH  17  25
ENDBRANCH  13  15
ENDBRANCH   1  11
BRANCH   5  31
ATOM     31  C21 DN3 d         -13.745  60.000  11.597  0.00  0.00     0.106 C 
ATOM     32  H4  DN3 d         -13.566  61.019  11.224  0.00  0.00     0.083 H 
ATOM     33  H5  DN3 d         -13.128  59.823  12.491  0.00  0.00     0.083 H 
BRANCH  31  34
ATOM     34  N22 DN3 d         -15.173  59.832  11.933  0.00  0.00    -0.075 N 
ATOM     35  H6  DN3 d         -15.451  58.884  11.734  0.00  0.00     0.279 HD
BRANCH  34  36
ATOM     36  C23 DN3 d         -15.351  60.111  13.368  0.00  0.00     0.066 C 
ATOM     37  H7  DN3 d         -15.492  61.192  13.517  0.00  0.00     0.068 H 
ATOM     38  H8  DN3 d         -14.460  59.778  13.920  0.00  0.00     0.068 H 
ATOM     39  H9  DN3 d         -16.236  59.572  13.739  0.00  0.00     0.068 H 
ENDBRANCH  34  36
BRANCH  34  40
ATOM     40  C24 DN3 d         -16.018  60.754  11.160  0.00  0.00     0.066 C 
ATOM     41  H10 DN3 d         -17.038  60.347  11.091  0.00  0.00     0.068 H 
ATOM     42  H11 DN3 d         -15.601  60.873  10.148  0.00  0.00     0.068 H 
ATOM     43  H12 DN3 d         -16.048  61.733  11.662  0.00  0.00     0.068 H 
ENDBRANCH  34  40
ENDBRANCH  31  34
ENDBRANCH   5  31
TORSDOF 7
ENDMDL
MODEL 9
REMARK VINA RESULT:      -4.5      2.374      9.456
REMARK  7 active torsions:
REMARK  status: ('A' for Active; 'I' for Inactive)
REMARK    1  A    between atoms: C13_2  and  C15_3 
REMARK       I    between atoms: C13_2  and  N12_13 
REMARK    2  A    between atoms: C19_7  and  C21_8 
REMARK    3  A    between atoms: C21_8  and  N22_9 
REMARK    4  A    between atoms: N22_9  and  C23_10 
REMARK    5  A    between atoms: N22_9  and  C24_11 
REMARK    6  A    between atoms: N12_13  and  C10_14 
REMARK    7  A    between atoms: C6_16  and  C2_20 
ROOT
ATOM      1  C15 DN3 d          -8.974  56.356  10.539  0.00  0.00     0.032 A 
ATOM      2  C16 DN3 d          -8.577  55.520   9.498  0.00  0.00    -0.068 A 
ATOM      3  C17 DN3 d          -7.544  54.607   9.711  0.00  0.00    -0.081 A 
ATOM      4  C18 DN3 d          -6.883  54.548  10.932  0.00  0.00    -0.075 A 
ATOM      5  C19 DN3 d          -7.352  55.313  12.001  0.00  0.00    -0.032 A 
ATOM      6  C20 DN3 d          -8.375  56.228  11.789  0.00  0.00    -0.060 A 
ATOM      7  H1  DN3 d          -9.066  55.578   8.532  0.00  0.00     0.085 H 
ATOM      8  H2  DN3 d          -7.253  53.934   8.913  0.00  0.00     0.083 H 
ATOM      9  H3  DN3 d          -6.013  53.913  11.053  0.00  0.00     0.084 H 
ATOM     10  H13 DN3 d          -8.712  56.851  12.609  0.00  0.00     0.086 H 
ENDROOT
BRANCH   1  11
ATOM     11  C13 DN3 d         -10.149  57.294  10.378  0.00  0.00     0.256 C 
ATOM     12  O14 DN3 d          -9.971  58.503  10.491  0.00  0.00    -0.267 OA
ATOM     13  N12 DN3 d         -11.351  56.771  10.106  0.00  0.00    -0.323 N 
ATOM     14  H14 DN3 d         -11.409  55.782   9.971  0.00  0.00     0.169 HD
BRANCH  13  15
ATOM     15  C10 DN3 d         -12.545  57.521   9.999  0.00  0.00     0.035 A 
ATOM     16  C11 DN3 d         -13.296  57.710  11.155  0.00  0.00    -0.043 A 
ATOM     17  C6  DN3 d         -14.465  58.463  11.124  0.00  0.00     0.017 A 
ATOM     18  H15 DN3 d         -12.967  57.267  12.088  0.00  0.00     0.088 H 
ATOM     19  C7  DN3 d         -14.900  59.039   9.935  0.00  0.00    -0.069 A 
ATOM     20  C8  DN3 d         -14.144  58.876   8.784  0.00  0.00    -0.080 A 
ATOM     21  H16 DN3 d         -15.822  59.608   9.908  0.00  0.00     0.085 H 
ATOM     22  C9  DN3 d         -12.980  58.096   8.805  0.00  0.00    -0.057 A 
ATOM     23  H17 DN3 d         -14.456  59.355   7.863  0.00  0.00     0.083 H 
ATOM     24  H18 DN3 d         -12.417  57.939   7.892  0.00  0.00     0.086 H 
BRANCH  17  25
ATOM     25  C2  DN3 d         -15.260  58.650  12.360  0.00  0.00     0.198 A 
ATOM     26  N1  DN3 d         -15.433  59.824  13.001  0.00  0.00    -0.139 NA
ATOM     27  N5  DN3 d         -16.211  59.605  14.131  0.00  0.00    -0.200 N 
ATOM     28  N4  DN3 d         -16.521  58.244  14.145  0.00  0.00     0.022 NA
ATOM     29  H19 DN3 d         -16.503  60.310  14.823  0.00  0.00     0.208 HD
ATOM     30  N3  DN3 d         -15.900  57.666  13.036  0.00  0.00    -0.136 NA
ENDBRANCH  17  25
ENDBRANCH  13  15
ENDBRANCH   1  11
BRANCH   5  31
ATOM     31  C21 DN3 d          -6.677  55.249  13.361  0.00  0.00     0.106 C 
ATOM     32  H4  DN3 d          -7.432  55.102  14.147  0.00  0.00     0.083 H 
ATOM     33  H5  DN3 d          -6.127  56.183  13.551  0.00  0.00     0.083 H 
BRANCH  31  34
ATOM     34  N22 DN3 d          -5.738  54.109  13.348  0.00  0.00    -0.075 N 
ATOM     35  H6  DN3 d          -5.994  53.477  12.606  0.00  0.00     0.279 HD
BRANCH  34  36
ATOM     36  C23 DN3 d          -4.379  54.626  13.113  0.00  0.00     0.066 C 
ATOM     37  H7  DN3 d          -3.837  53.941  12.443  0.00  0.00     0.068 H 
ATOM     38  H8  DN3 d          -3.845  54.701  14.071  0.00  0.00     0.068 H 
ATOM     39  H9  DN3 d          -4.441  55.621  12.648  0.00  0.00     0.068 H 
ENDBRANCH  34  36
BRANCH  34  40
ATOM     40  C24 DN3 d          -5.757  53.383  14.627  0.00  0.00     0.066 C 
ATOM     41  H10 DN3 d          -6.504  52.576  14.579  0.00  0.00     0.068 H 
ATOM     42  H11 DN3 d          -6.019  54.078  15.439  0.00  0.00     0.068 H 
ATOM     43  H12 DN3 d          -4.763  52.951  14.819  0.00  0.00     0.068 H 
ENDBRANCH  34  40
ENDBRANCH  31  34
ENDBRANCH   5  31
TORSDOF 7
ENDMDL
MODEL 10
REMARK VINA RESULT:      -4.4      2.556      9.036
REMARK  7 active torsions:
REMARK  status: ('A' for Active; 'I' for Inactive)
REMARK    1  A    between atoms: C13_2  and  C15_3 
REMARK       I    between atoms: C13_2  and  N12_13 
REMARK    2  A    between atoms: C19_7  and  C21_8 
REMARK    3  A    between atoms: C21_8  and  N22_9 
REMARK    4  A    between atoms: N22_9  and  C23_10 
REMARK    5  A    between atoms: N22_9  and  C24_11 
REMARK    6  A    between atoms: N12_13  and  C10_14 
REMARK    7  A    between atoms: C6_16  and  C2_20 
ROOT
ATOM      1  C15 DN3 d          -7.169  53.252  12.509  0.00  0.00     0.032 A 
ATOM      2  C16 DN3 d          -6.978  53.329  13.887  0.00  0.00    -0.068 A 
ATOM      3  C17 DN3 d          -5.734  52.995  14.423  0.00  0.00    -0.081 A 
ATOM      4  C18 DN3 d          -4.699  52.552  13.608  0.00  0.00    -0.075 A 
ATOM      5  C19 DN3 d          -4.863  52.576  12.223  0.00  0.00    -0.032 A 
ATOM      6  C20 DN3 d          -6.102  52.900  11.687  0.00  0.00    -0.060 A 
ATOM      7  H1  DN3 d          -7.787  53.645  14.535  0.00  0.00     0.085 H 
ATOM      8  H2  DN3 d          -5.573  53.082  15.492  0.00  0.00     0.083 H 
ATOM      9  H3  DN3 d          -3.775  52.191  14.045  0.00  0.00     0.084 H 
ATOM     10  H13 DN3 d          -6.240  52.879  10.612  0.00  0.00     0.086 H 
ENDROOT
BRANCH   1  11
ATOM     11  C13 DN3 d          -8.470  53.692  11.879  0.00  0.00     0.256 C 
ATOM     12  O14 DN3 d          -9.314  54.251  12.574  0.00  0.00    -0.267 OA
ATOM     13  N12 DN3 d          -8.658  53.464  10.573  0.00  0.00    -0.323 N 
ATOM     14  H14 DN3 d          -7.903  53.057  10.059  0.00  0.00     0.169 HD
BRANCH  13  15
ATOM     15  C10 DN3 d          -9.850  53.759   9.872  0.00  0.00     0.035 A 
ATOM     16  C11 DN3 d         -10.388  55.034  10.020  0.00  0.00    -0.043 A 
ATOM     17  C6  DN3 d         -11.543  55.398   9.334  0.00  0.00     0.017 A 
ATOM     18  H15 DN3 d          -9.903  55.749  10.674  0.00  0.00     0.088 H 
ATOM     19  C7  DN3 d         -12.176  54.491   8.491  0.00  0.00    -0.069 A 
ATOM     20  C8  DN3 d         -11.632  53.228   8.320  0.00  0.00    -0.080 A 
ATOM     21  H16 DN3 d         -13.087  54.770   7.974  0.00  0.00     0.085 H 
ATOM     22  C9  DN3 d         -10.484  52.848   9.028  0.00  0.00    -0.057 A 
ATOM     23  H17 DN3 d         -12.097  52.530   7.633  0.00  0.00     0.083 H 
ATOM     24  H18 DN3 d         -10.089  51.845   8.920  0.00  0.00     0.086 H 
BRANCH  17  25
ATOM     25  C2  DN3 d         -12.111  56.755   9.507  0.00  0.00     0.198 A 
ATOM     26  N1  DN3 d         -11.390  57.885   9.651  0.00  0.00    -0.139 NA
ATOM     27  N5  DN3 d         -12.263  58.954   9.816  0.00  0.00    -0.200 N 
ATOM     28  N4  DN3 d         -13.554  58.429   9.752  0.00  0.00     0.022 NA
ATOM     29  H19 DN3 d         -12.006  59.941   9.958  0.00  0.00     0.208 HD
ATOM     30  N3  DN3 d         -13.432  57.049   9.575  0.00  0.00    -0.136 NA
ENDBRANCH  17  25
ENDBRANCH  13  15
ENDBRANCH   1  11
BRANCH   5  31
ATOM     31  C21 DN3 d          -3.741  52.131  11.298  0.00  0.00     0.106 C 
ATOM     32  H4  DN3 d          -4.080  52.174  10.253  0.00  0.00     0.083 H 
ATOM     33  H5  DN3 d          -3.439  51.102  11.543  0.00  0.00     0.083 H 
BRANCH  31  34
ATOM     34  N22 DN3 d          -2.602  53.049  11.494  0.00  0.00    -0.075 N 
ATOM     35  H6  DN3 d          -2.949  53.986  11.626  0.00  0.00     0.279 HD
BRANCH  34  36
ATOM     36  C23 DN3 d          -1.859  52.622  12.693  0.00  0.00     0.066 C 
ATOM     37  H7  DN3 d          -1.790  53.462  13.400  0.00  0.00     0.068 H 
ATOM     38  H8  DN3 d          -0.848  52.303  12.403  0.00  0.00     0.068 H 
ATOM     39  H9  DN3 d          -2.386  51.783  13.171  0.00  0.00     0.068 H 
ENDBRANCH  34  36
BRANCH  34  40
ATOM     40  C24 DN3 d          -1.692  53.030  10.339  0.00  0.00     0.066 C 
ATOM     41  H10 DN3 d          -1.756  53.991   9.806  0.00  0.00     0.068 H 
ATOM     42  H11 DN3 d          -1.979  52.214   9.659  0.00  0.00     0.068 H 
ATOM     43  H12 DN3 d          -0.660  52.872  10.687  0.00  0.00     0.068 H 
ENDBRANCH  34  40
ENDBRANCH  31  34
ENDBRANCH   5  31
TORSDOF 7
ENDMDL
