MODEL 1
REMARK VINA RESULT:      -6.9      0.000      0.000
REMARK  16 active torsions:
REMARK  status: ('A' for Active; 'I' for Inactive)
REMARK    1  A    between atoms: CBC_6  and  CAS_7 
REMARK    2  A    between atoms: CAS_7  and  CBG_8 
REMARK    3  A    between atoms: CBG_8  and  NAW_9 
REMARK    4  A    between atoms: CBG_8  and  P1_21 
REMARK       I    between atoms: NAW_9  and  CBB_10 
REMARK    5  A    between atoms: CBB_10  and  CBF_12 
REMARK    6  A    between atoms: CBF_12  and  CAR_13 
REMARK    7  A    between atoms: CBF_12  and  NAU_17 
REMARK    8  A    between atoms: CAR_13  and  CAZ_14 
REMARK       I    between atoms: NAU_17  and  CAX_18 
REMARK    9  A    between atoms: CAX_18  and  CAA_19 
REMARK   10  A    between atoms: P1_21  and  CAT_24 
REMARK   11  A    between atoms: CAT_24  and  CBD_25 
REMARK   12  A    between atoms: CBD_25  and  CAB_26 
REMARK   13  A    between atoms: CBD_25  and  CBA_27 
REMARK       I    between atoms: CBA_27  and  N_29 
REMARK   14  A    between atoms: N_29  and  CA_30 
REMARK   15  A    between atoms: CA_30  and  CB_31 
REMARK   16  A    between atoms: CA_30  and  C_32 
REMARK       I    between atoms: C_32  and  NAD_34 
ROOT
ATOM      1  CBG RX4 d          27.076   0.467  44.748  0.00  0.00     0.091 C 
ATOM      2  H8  RX4 d          25.977   0.434  44.711  0.00  0.00     0.089 H 
ENDROOT
BRANCH   1   3
ATOM      3  CAS RX4 d          27.515   0.651  46.250  0.00  0.00    -0.013 C 
ATOM      4  H6  RX4 d          27.762  -0.323  46.700  0.00  0.00     0.044 H 
ATOM      5  H7  RX4 d          28.388   1.316  46.316  0.00  0.00     0.044 H 
BRANCH   3   6
ATOM      6  CBC RX4 d          26.297   1.285  46.969  0.00  0.00    -0.056 A 
ATOM      7  CAP RX4 d          26.575   1.953  48.188  0.00  0.00    -0.077 A 
ATOM      8  CAN RX4 d          25.594   2.533  48.979  0.00  0.00    -0.082 A 
ATOM      9  H1  RX4 d          27.606   2.015  48.518  0.00  0.00     0.084 H 
ATOM     10  CAM RX4 d          24.278   2.372  48.488  0.00  0.00    -0.083 A 
ATOM     11  H2  RX4 d          25.817   3.065  49.898  0.00  0.00     0.083 H 
ATOM     12  CAO RX4 d          23.966   1.682  47.293  0.00  0.00    -0.082 A 
ATOM     13  H3  RX4 d          23.463   2.800  49.059  0.00  0.00     0.083 H 
ATOM     14  CAQ RX4 d          24.991   1.120  46.514  0.00  0.00    -0.077 A 
ATOM     15  H4  RX4 d          22.932   1.587  46.978  0.00  0.00     0.083 H 
ATOM     16  H5  RX4 d          24.774   0.582  45.598  0.00  0.00     0.084 H 
ENDBRANCH   3   6
ENDBRANCH   1   3
BRANCH   1  17
ATOM     17  NAW RX4 d          27.626  -0.765  44.191  0.00  0.00    -0.345 N 
ATOM     18  CBB RX4 d          26.959  -1.900  44.419  0.00  0.00     0.241 C 
ATOM     19  OAI RX4 d          25.874  -1.924  45.027  0.00  0.00    -0.271 OA
ATOM     20  H9  RX4 d          28.472  -0.759  43.657  0.00  0.00     0.163 HD
BRANCH  18  21
ATOM     21  CBF RX4 d          27.635  -3.247  44.113  0.00  0.00     0.098 C 
ATOM     22  H10 RX4 d          27.204  -4.034  44.751  0.00  0.00     0.088 H 
BRANCH  21  23
ATOM     23  CAR RX4 d          29.109  -3.201  44.362  0.00  0.00     0.043 C 
ATOM     24  H11 RX4 d          29.343  -2.444  45.125  0.00  0.00     0.052 H 
ATOM     25  H12 RX4 d          29.646  -2.964  43.431  0.00  0.00     0.052 H 
BRANCH  23  26
ATOM     26  CAZ RX4 d          29.503  -4.610  44.864  0.00  0.00     0.175 C 
ATOM     27  OAK RX4 d          28.763  -5.205  45.698  0.00  0.00    -0.648 OA
ATOM     28  OAG RX4 d          30.510  -5.097  44.356  0.00  0.00    -0.648 OA
ENDBRANCH  23  26
ENDBRANCH  21  23
BRANCH  21  29
ATOM     29  NAU RX4 d          27.288  -3.518  42.674  0.00  0.00    -0.348 N 
ATOM     30  CAX RX4 d          26.969  -4.743  42.218  0.00  0.00     0.214 C 
ATOM     31  OAE RX4 d          26.975  -5.777  42.929  0.00  0.00    -0.274 OA
ATOM     32  H13 RX4 d          27.294  -2.755  42.028  0.00  0.00     0.163 HD
BRANCH  30  33
ATOM     33  CAA RX4 d          26.586  -4.823  40.711  0.00  0.00    -0.003 C 
ATOM     34  H14 RX4 d          26.435  -3.807  40.317  0.00  0.00     0.040 H 
ATOM     35  H15 RX4 d          25.658  -5.401  40.598  0.00  0.00     0.040 H 
ATOM     36  H16 RX4 d          27.396  -5.316  40.153  0.00  0.00     0.040 H 
ENDBRANCH  30  33
ENDBRANCH  21  29
ENDBRANCH  18  21
ENDBRANCH   1  17
BRANCH   1  37
ATOM     37  P1  RX4 d          27.673   1.788  43.671  0.00  0.00     0.130 P 
ATOM     38  O4  RX4 d          27.381   1.468  42.215  0.00  0.00    -0.666 OA
ATOM     39  O3  RX4 d          29.180   1.918  43.646  0.00  0.00    -0.666 OA
BRANCH  37  40
ATOM     40  CAT RX4 d          26.847   3.291  44.171  0.00  0.00     0.020 C 
ATOM     41  H17 RX4 d          26.516   3.159  45.212  0.00  0.00     0.050 H 
ATOM     42  H18 RX4 d          25.968   3.420  43.521  0.00  0.00     0.050 H 
BRANCH  40  43
ATOM     43  CBD RX4 d          27.663   4.586  44.106  0.00  0.00     0.029 C 
ATOM     44  H19 RX4 d          28.596   4.479  44.680  0.00  0.00     0.054 H 
BRANCH  43  45
ATOM     45  CAB RX4 d          27.969   5.072  42.602  0.00  0.00    -0.064 C 
ATOM     46  H20 RX4 d          28.654   5.932  42.627  0.00  0.00     0.028 H 
ATOM     47  H21 RX4 d          27.028   5.366  42.114  0.00  0.00     0.028 H 
ATOM     48  H22 RX4 d          28.433   4.249  42.038  0.00  0.00     0.028 H 
ENDBRANCH  43  45
BRANCH  43  49
ATOM     49  CBA RX4 d          26.733   5.721  44.683  0.00  0.00     0.222 C 
ATOM     50  OAH RX4 d          27.122   6.900  44.704  0.00  0.00    -0.273 OA
ATOM     51  N   RX4 d          25.579   5.345  45.219  0.00  0.00    -0.348 N 
ATOM     52  H23 RX4 d          25.300   4.385  45.212  0.00  0.00     0.163 HD
BRANCH  51  53
ATOM     53  CA  RX4 d          24.697   6.402  45.842  0.00  0.00     0.086 C 
ATOM     54  H24 RX4 d          25.182   7.388  45.813  0.00  0.00     0.086 H 
BRANCH  53  55
ATOM     55  CB  RX4 d          23.350   6.451  45.106  0.00  0.00    -0.049 C 
ATOM     56  H25 RX4 d          22.852   7.409  45.318  0.00  0.00     0.030 H 
ATOM     57  H26 RX4 d          22.714   5.622  45.451  0.00  0.00     0.030 H 
ATOM     58  H27 RX4 d          23.520   6.357  44.023  0.00  0.00     0.030 H 
ENDBRANCH  53  55
BRANCH  53  59
ATOM     59  C   RX4 d          24.471   5.928  47.319  0.00  0.00     0.237 C 
ATOM     60  O   RX4 d          25.467   5.872  48.116  0.00  0.00    -0.271 OA
ATOM     61  NAD RX4 d          23.239   5.637  47.695  0.00  0.00    -0.368 N 
ATOM     62  H28 RX4 d          23.060   5.333  48.631  0.00  0.00     0.159 HD
ATOM     63  H29 RX4 d          22.484   5.722  47.044  0.00  0.00     0.159 HD
ENDBRANCH  53  59
ENDBRANCH  51  53
ENDBRANCH  43  49
ENDBRANCH  40  43
ENDBRANCH  37  40
ENDBRANCH   1  37
TORSDOF 16
ENDMDL
MODEL 2
REMARK VINA RESULT:      -6.6      2.285      9.117
REMARK  16 active torsions:
REMARK  status: ('A' for Active; 'I' for Inactive)
REMARK    1  A    between atoms: CBC_6  and  CAS_7 
REMARK    2  A    between atoms: CAS_7  and  CBG_8 
REMARK    3  A    between atoms: CBG_8  and  NAW_9 
REMARK    4  A    between atoms: CBG_8  and  P1_21 
REMARK       I    between atoms: NAW_9  and  CBB_10 
REMARK    5  A    between atoms: CBB_10  and  CBF_12 
REMARK    6  A    between atoms: CBF_12  and  CAR_13 
REMARK    7  A    between atoms: CBF_12  and  NAU_17 
REMARK    8  A    between atoms: CAR_13  and  CAZ_14 
REMARK       I    between atoms: NAU_17  and  CAX_18 
REMARK    9  A    between atoms: CAX_18  and  CAA_19 
REMARK   10  A    between atoms: P1_21  and  CAT_24 
REMARK   11  A    between atoms: CAT_24  and  CBD_25 
REMARK   12  A    between atoms: CBD_25  and  CAB_26 
REMARK   13  A    between atoms: CBD_25  and  CBA_27 
REMARK       I    between atoms: CBA_27  and  N_29 
REMARK   14  A    between atoms: N_29  and  CA_30 
REMARK   15  A    between atoms: CA_30  and  CB_31 
REMARK   16  A    between atoms: CA_30  and  C_32 
REMARK       I    between atoms: C_32  and  NAD_34 
ROOT
ATOM      1  CBG RX4 d          26.566   2.152  43.669  0.00  0.00     0.091 C 
ATOM      2  H8  RX4 d          25.689   1.499  43.791  0.00  0.00     0.089 H 
ENDROOT
BRANCH   1   3
ATOM      3  CAS RX4 d          26.607   2.650  42.174  0.00  0.00    -0.013 C 
ATOM      4  H6  RX4 d          27.474   2.221  41.650  0.00  0.00     0.044 H 
ATOM      5  H7  RX4 d          25.684   2.364  41.649  0.00  0.00     0.044 H 
BRANCH   3   6
ATOM      6  CBC RX4 d          26.731   4.193  42.249  0.00  0.00    -0.056 A 
ATOM      7  CAP RX4 d          25.580   4.927  41.865  0.00  0.00    -0.077 A 
ATOM      8  CAN RX4 d          25.539   6.314  41.829  0.00  0.00    -0.082 A 
ATOM      9  H1  RX4 d          24.688   4.378  41.586  0.00  0.00     0.084 H 
ATOM     10  CAM RX4 d          26.757   6.942  42.174  0.00  0.00    -0.083 A 
ATOM     11  H2  RX4 d          24.647   6.868  41.559  0.00  0.00     0.083 H 
ATOM     12  CAO RX4 d          27.931   6.237  42.529  0.00  0.00    -0.082 A 
ATOM     13  H3  RX4 d          26.794   8.025  42.166  0.00  0.00     0.083 H 
ATOM     14  CAQ RX4 d          27.927   4.833  42.566  0.00  0.00    -0.077 A 
ATOM     15  H4  RX4 d          28.836   6.782  42.775  0.00  0.00     0.083 H 
ATOM     16  H5  RX4 d          28.817   4.272  42.829  0.00  0.00     0.084 H 
ENDBRANCH   3   6
ENDBRANCH   1   3
BRANCH   1  17
ATOM     17  NAW RX4 d          26.476   3.279  44.591  0.00  0.00    -0.345 N 
ATOM     18  CBB RX4 d          25.358   3.402  45.313  0.00  0.00     0.241 C 
ATOM     19  OAI RX4 d          24.440   2.563  45.264  0.00  0.00    -0.271 OA
ATOM     20  H9  RX4 d          27.224   3.936  44.680  0.00  0.00     0.163 HD
BRANCH  18  21
ATOM     21  CBF RX4 d          25.088   4.711  46.071  0.00  0.00     0.098 C 
ATOM     22  H10 RX4 d          24.784   4.488  47.105  0.00  0.00     0.088 H 
BRANCH  21  23
ATOM     23  CAR RX4 d          24.002   5.515  45.430  0.00  0.00     0.043 C 
ATOM     24  H11 RX4 d          23.254   4.849  44.974  0.00  0.00     0.052 H 
ATOM     25  H12 RX4 d          24.423   6.178  44.659  0.00  0.00     0.052 H 
BRANCH  23  26
ATOM     26  CAZ RX4 d          23.360   6.350  46.562  0.00  0.00     0.175 C 
ATOM     27  OAK RX4 d          24.000   6.544  47.635  0.00  0.00    -0.648 OA
ATOM     28  OAG RX4 d          22.260   6.835  46.311  0.00  0.00    -0.648 OA
ENDBRANCH  23  26
ENDBRANCH  21  23
BRANCH  21  29
ATOM     29  NAU RX4 d          26.418   5.416  46.079  0.00  0.00    -0.348 N 
ATOM     30  CAX RX4 d          27.318   5.266  47.068  0.00  0.00     0.214 C 
ATOM     31  OAE RX4 d          27.121   4.570  48.093  0.00  0.00    -0.274 OA
ATOM     32  H13 RX4 d          26.643   6.022  45.316  0.00  0.00     0.163 HD
BRANCH  30  33
ATOM     33  CAA RX4 d          28.661   6.032  46.878  0.00  0.00    -0.003 C 
ATOM     34  H14 RX4 d          29.502   5.361  47.108  0.00  0.00     0.040 H 
ATOM     35  H15 RX4 d          28.688   6.898  47.556  0.00  0.00     0.040 H 
ATOM     36  H16 RX4 d          28.742   6.378  45.837  0.00  0.00     0.040 H 
ENDBRANCH  30  33
ENDBRANCH  21  29
ENDBRANCH  18  21
ENDBRANCH   1  17
BRANCH   1  37
ATOM     37  P1  RX4 d          28.056   1.253  44.155  0.00  0.00     0.130 P 
ATOM     38  O4  RX4 d          28.328   1.428  45.639  0.00  0.00    -0.666 OA
ATOM     39  O3  RX4 d          29.326   1.813  43.556  0.00  0.00    -0.666 OA
BRANCH  37  40
ATOM     40  CAT RX4 d          27.789  -0.468  43.753  0.00  0.00     0.020 C 
ATOM     41  H17 RX4 d          28.692  -0.834  43.243  0.00  0.00     0.050 H 
ATOM     42  H18 RX4 d          26.932  -0.519  43.065  0.00  0.00     0.050 H 
BRANCH  40  43
ATOM     43  CBD RX4 d          27.502  -1.416  44.922  0.00  0.00     0.029 C 
ATOM     44  H19 RX4 d          27.987  -1.050  45.840  0.00  0.00     0.054 H 
BRANCH  43  45
ATOM     45  CAB RX4 d          25.931  -1.667  45.168  0.00  0.00    -0.064 C 
ATOM     46  H20 RX4 d          25.692  -2.720  44.960  0.00  0.00     0.028 H 
ATOM     47  H21 RX4 d          25.348  -1.019  44.498  0.00  0.00     0.028 H 
ATOM     48  H22 RX4 d          25.681  -1.433  46.214  0.00  0.00     0.028 H 
ENDBRANCH  43  45
BRANCH  43  49
ATOM     49  CBA RX4 d          28.043  -2.831  44.483  0.00  0.00     0.222 C 
ATOM     50  OAH RX4 d          29.263  -3.025  44.365  0.00  0.00    -0.273 OA
ATOM     51  N   RX4 d          27.142  -3.750  44.161  0.00  0.00    -0.348 N 
ATOM     52  H23 RX4 d          26.164  -3.559  44.241  0.00  0.00     0.163 HD
BRANCH  51  53
ATOM     53  CA  RX4 d          27.630  -5.093  43.670  0.00  0.00     0.086 C 
ATOM     54  H24 RX4 d          28.626  -5.324  44.076  0.00  0.00     0.086 H 
BRANCH  53  55
ATOM     55  CB  RX4 d          26.628  -6.186  44.071  0.00  0.00    -0.049 C 
ATOM     56  H25 RX4 d          25.869  -5.759  44.743  0.00  0.00     0.030 H 
ATOM     57  H26 RX4 d          27.160  -6.998  44.588  0.00  0.00     0.030 H 
ATOM     58  H27 RX4 d          26.139  -6.582  43.169  0.00  0.00     0.030 H 
ENDBRANCH  53  55
BRANCH  53  59
ATOM     59  C   RX4 d          27.672  -4.967  42.109  0.00  0.00     0.237 C 
ATOM     60  O   RX4 d          28.545  -5.629  41.452  0.00  0.00    -0.271 OA
ATOM     61  NAD RX4 d          26.769  -4.201  41.524  0.00  0.00    -0.368 N 
ATOM     62  H28 RX4 d          26.768  -4.100  40.529  0.00  0.00     0.159 HD
ATOM     63  H29 RX4 d          26.086  -3.722  42.076  0.00  0.00     0.159 HD
ENDBRANCH  53  59
ENDBRANCH  51  53
ENDBRANCH  43  49
ENDBRANCH  40  43
ENDBRANCH  37  40
ENDBRANCH   1  37
TORSDOF 16
ENDMDL
MODEL 3
REMARK VINA RESULT:      -6.4      1.968      8.541
REMARK  16 active torsions:
REMARK  status: ('A' for Active; 'I' for Inactive)
REMARK    1  A    between atoms: CBC_6  and  CAS_7 
REMARK    2  A    between atoms: CAS_7  and  CBG_8 
REMARK    3  A    between atoms: CBG_8  and  NAW_9 
REMARK    4  A    between atoms: CBG_8  and  P1_21 
REMARK       I    between atoms: NAW_9  and  CBB_10 
REMARK    5  A    between atoms: CBB_10  and  CBF_12 
REMARK    6  A    between atoms: CBF_12  and  CAR_13 
REMARK    7  A    between atoms: CBF_12  and  NAU_17 
REMARK    8  A    between atoms: CAR_13  and  CAZ_14 
REMARK       I    between atoms: NAU_17  and  CAX_18 
REMARK    9  A    between atoms: CAX_18  and  CAA_19 
REMARK   10  A    between atoms: P1_21  and  CAT_24 
REMARK   11  A    between atoms: CAT_24  and  CBD_25 
REMARK   12  A    between atoms: CBD_25  and  CAB_26 
REMARK   13  A    between atoms: CBD_25  and  CBA_27 
REMARK       I    between atoms: CBA_27  and  N_29 
REMARK   14  A    between atoms: N_29  and  CA_30 
REMARK   15  A    between atoms: CA_30  and  CB_31 
REMARK   16  A    between atoms: CA_30  and  C_32 
REMARK       I    between atoms: C_32  and  NAD_34 
ROOT
ATOM      1  CBG RX4 d          27.009   3.232  45.461  0.00  0.00     0.091 C 
ATOM      2  H8  RX4 d          27.625   3.876  46.105  0.00  0.00     0.089 H 
ENDROOT
BRANCH   1   3
ATOM      3  CAS RX4 d          25.884   2.574  46.348  0.00  0.00    -0.013 C 
ATOM      4  H6  RX4 d          24.984   2.382  45.746  0.00  0.00     0.044 H 
ATOM      5  H7  RX4 d          26.243   1.631  46.784  0.00  0.00     0.044 H 
BRANCH   3   6
ATOM      6  CBC RX4 d          25.577   3.603  47.466  0.00  0.00    -0.056 A 
ATOM      7  CAP RX4 d          24.208   3.921  47.656  0.00  0.00    -0.077 A 
ATOM      8  CAN RX4 d          23.765   4.857  48.580  0.00  0.00    -0.082 A 
ATOM      9  H1  RX4 d          23.471   3.408  47.049  0.00  0.00     0.084 H 
ATOM     10  CAM RX4 d          24.799   5.500  49.299  0.00  0.00    -0.083 A 
ATOM     11  H2  RX4 d          22.715   5.076  48.738  0.00  0.00     0.083 H 
ATOM     12  CAO RX4 d          26.174   5.228  49.109  0.00  0.00    -0.082 A 
ATOM     13  H3  RX4 d          24.522   6.243  50.038  0.00  0.00     0.083 H 
ATOM     14  CAQ RX4 d          26.579   4.264  48.172  0.00  0.00    -0.077 A 
ATOM     15  H4  RX4 d          26.916   5.765  49.689  0.00  0.00     0.083 H 
ATOM     16  H5  RX4 d          27.628   4.044  48.005  0.00  0.00     0.084 H 
ENDBRANCH   3   6
ENDBRANCH   1   3
BRANCH   1  17
ATOM     17  NAW RX4 d          26.425   4.025  44.383  0.00  0.00    -0.345 N 
ATOM     18  CBB RX4 d          26.681   5.336  44.370  0.00  0.00     0.241 C 
ATOM     19  OAI RX4 d          27.438   5.875  45.197  0.00  0.00    -0.271 OA
ATOM     20  H9  RX4 d          25.854   3.602  43.680  0.00  0.00     0.163 HD
BRANCH  18  21
ATOM     21  CBF RX4 d          25.867   6.256  43.444  0.00  0.00     0.098 C 
ATOM     22  H10 RX4 d          25.321   5.651  42.704  0.00  0.00     0.088 H 
BRANCH  21  23
ATOM     23  CAR RX4 d          26.740   7.219  42.706  0.00  0.00     0.043 C 
ATOM     24  H11 RX4 d          27.575   7.543  43.344  0.00  0.00     0.052 H 
ATOM     25  H12 RX4 d          26.157   8.097  42.389  0.00  0.00     0.052 H 
BRANCH  23  26
ATOM     26  CAZ RX4 d          27.273   6.455  41.470  0.00  0.00     0.175 C 
ATOM     27  OAK RX4 d          28.493   6.553  41.155  0.00  0.00    -0.648 OA
ATOM     28  OAG RX4 d          26.461   5.734  40.897  0.00  0.00    -0.648 OA
ENDBRANCH  23  26
ENDBRANCH  21  23
BRANCH  21  29
ATOM     29  NAU RX4 d          24.886   6.933  44.364  0.00  0.00    -0.348 N 
ATOM     30  CAX RX4 d          23.757   6.339  44.792  0.00  0.00     0.214 C 
ATOM     31  OAE RX4 d          23.390   5.194  44.434  0.00  0.00    -0.274 OA
ATOM     32  H13 RX4 d          25.082   7.864  44.670  0.00  0.00     0.163 HD
BRANCH  30  33
ATOM     33  CAA RX4 d          22.891   7.173  45.781  0.00  0.00    -0.003 C 
ATOM     34  H14 RX4 d          22.264   7.878  45.215  0.00  0.00     0.040 H 
ATOM     35  H15 RX4 d          23.549   7.733  46.462  0.00  0.00     0.040 H 
ATOM     36  H16 RX4 d          22.248   6.498  46.365  0.00  0.00     0.040 H 
ENDBRANCH  30  33
ENDBRANCH  21  29
ENDBRANCH  18  21
ENDBRANCH   1  17
BRANCH   1  37
ATOM     37  P1  RX4 d          28.064   2.016  44.642  0.00  0.00     0.130 P 
ATOM     38  O4  RX4 d          29.203   1.593  45.554  0.00  0.00    -0.666 OA
ATOM     39  O3  RX4 d          28.827   2.570  43.459  0.00  0.00    -0.666 OA
BRANCH  37  40
ATOM     40  CAT RX4 d          27.033   0.620  44.221  0.00  0.00     0.020 C 
ATOM     41  H17 RX4 d          27.408   0.202  43.275  0.00  0.00     0.050 H 
ATOM     42  H18 RX4 d          26.009   0.995  44.075  0.00  0.00     0.050 H 
BRANCH  40  43
ATOM     43  CBD RX4 d          26.966  -0.525  45.237  0.00  0.00     0.029 C 
ATOM     44  H19 RX4 d          27.389  -0.206  46.201  0.00  0.00     0.054 H 
BRANCH  43  45
ATOM     45  CAB RX4 d          25.483  -1.119  45.431  0.00  0.00    -0.064 C 
ATOM     46  H20 RX4 d          25.460  -2.165  45.093  0.00  0.00     0.028 H 
ATOM     47  H21 RX4 d          24.771  -0.526  44.839  0.00  0.00     0.028 H 
ATOM     48  H22 RX4 d          25.205  -1.072  46.495  0.00  0.00     0.028 H 
ENDBRANCH  43  45
BRANCH  43  49
ATOM     49  CBA RX4 d          27.769  -1.725  44.600  0.00  0.00     0.222 C 
ATOM     50  OAH RX4 d          28.567  -1.520  43.672  0.00  0.00    -0.273 OA
ATOM     51  N   RX4 d          27.481  -2.944  45.034  0.00  0.00    -0.348 N 
ATOM     52  H23 RX4 d          26.814  -3.083  45.766  0.00  0.00     0.163 HD
BRANCH  51  53
ATOM     53  CA  RX4 d          28.183  -4.119  44.394  0.00  0.00     0.086 C 
ATOM     54  H24 RX4 d          29.093  -3.796  43.867  0.00  0.00     0.086 H 
BRANCH  53  55
ATOM     55  CB  RX4 d          28.533  -5.160  45.468  0.00  0.00    -0.049 C 
ATOM     56  H25 RX4 d          28.737  -6.128  44.987  0.00  0.00     0.030 H 
ATOM     57  H26 RX4 d          27.687  -5.267  46.164  0.00  0.00     0.030 H 
ATOM     58  H27 RX4 d          29.425  -4.830  46.021  0.00  0.00     0.030 H 
ENDBRANCH  53  55
BRANCH  53  59
ATOM     59  C   RX4 d          27.139  -4.726  43.396  0.00  0.00     0.237 C 
ATOM     60  O   RX4 d          26.590  -5.846  43.669  0.00  0.00    -0.271 OA
ATOM     61  NAD RX4 d          26.836  -4.028  42.315  0.00  0.00    -0.368 N 
ATOM     62  H28 RX4 d          26.173  -4.387  41.658  0.00  0.00     0.159 HD
ATOM     63  H29 RX4 d          27.270  -3.142  42.155  0.00  0.00     0.159 HD
ENDBRANCH  53  59
ENDBRANCH  51  53
ENDBRANCH  43  49
ENDBRANCH  40  43
ENDBRANCH  37  40
ENDBRANCH   1  37
TORSDOF 16
ENDMDL
MODEL 4
REMARK VINA RESULT:      -6.2      2.007      8.618
REMARK  16 active torsions:
REMARK  status: ('A' for Active; 'I' for Inactive)
REMARK    1  A    between atoms: CBC_6  and  CAS_7 
REMARK    2  A    between atoms: CAS_7  and  CBG_8 
REMARK    3  A    between atoms: CBG_8  and  NAW_9 
REMARK    4  A    between atoms: CBG_8  and  P1_21 
REMARK       I    between atoms: NAW_9  and  CBB_10 
REMARK    5  A    between atoms: CBB_10  and  CBF_12 
REMARK    6  A    between atoms: CBF_12  and  CAR_13 
REMARK    7  A    between atoms: CBF_12  and  NAU_17 
REMARK    8  A    between atoms: CAR_13  and  CAZ_14 
REMARK       I    between atoms: NAU_17  and  CAX_18 
REMARK    9  A    between atoms: CAX_18  and  CAA_19 
REMARK   10  A    between atoms: P1_21  and  CAT_24 
REMARK   11  A    between atoms: CAT_24  and  CBD_25 
REMARK   12  A    between atoms: CBD_25  and  CAB_26 
REMARK   13  A    between atoms: CBD_25  and  CBA_27 
REMARK       I    between atoms: CBA_27  and  N_29 
REMARK   14  A    between atoms: N_29  and  CA_30 
REMARK   15  A    between atoms: CA_30  and  CB_31 
REMARK   16  A    between atoms: CA_30  and  C_32 
REMARK       I    between atoms: C_32  and  NAD_34 
ROOT
ATOM      1  CBG RX4 d          26.165   2.830  44.416  0.00  0.00     0.091 C 
ATOM      2  H8  RX4 d          26.810   3.288  45.180  0.00  0.00     0.089 H 
ENDROOT
BRANCH   1   3
ATOM      3  CAS RX4 d          25.031   2.017  45.148  0.00  0.00    -0.013 C 
ATOM      4  H6  RX4 d          24.047   2.259  44.720  0.00  0.00     0.044 H 
ATOM      5  H7  RX4 d          25.214   0.936  45.057  0.00  0.00     0.044 H 
BRANCH   3   6
ATOM      6  CBC RX4 d          25.095   2.453  46.634  0.00  0.00    -0.056 A 
ATOM      7  CAP RX4 d          26.250   3.181  47.017  0.00  0.00    -0.077 A 
ATOM      8  CAN RX4 d          26.486   3.604  48.318  0.00  0.00    -0.082 A 
ATOM      9  H1  RX4 d          26.985   3.419  46.257  0.00  0.00     0.084 H 
ATOM     10  CAM RX4 d          25.492   3.218  49.246  0.00  0.00    -0.083 A 
ATOM     11  H2  RX4 d          27.359   4.183  48.599  0.00  0.00     0.083 H 
ATOM     12  CAO RX4 d          24.346   2.464  48.901  0.00  0.00    -0.082 A 
ATOM     13  H3  RX4 d          25.615   3.515  50.281  0.00  0.00     0.083 H 
ATOM     14  CAQ RX4 d          24.138   2.066  47.570  0.00  0.00    -0.077 A 
ATOM     15  H4  RX4 d          23.626   2.193  49.665  0.00  0.00     0.083 H 
ATOM     16  H5  RX4 d          23.270   1.482  47.283  0.00  0.00     0.084 H 
ENDBRANCH   3   6
ENDBRANCH   1   3
BRANCH   1  17
ATOM     17  NAW RX4 d          25.594   3.869  43.563  0.00  0.00    -0.345 N 
ATOM     18  CBB RX4 d          25.982   5.129  43.778  0.00  0.00     0.241 C 
ATOM     19  OAI RX4 d          26.845   5.425  44.625  0.00  0.00    -0.271 OA
ATOM     20  H9  RX4 d          24.937   3.645  42.844  0.00  0.00     0.163 HD
BRANCH  18  21
ATOM     21  CBF RX4 d          25.206   6.281  43.119  0.00  0.00     0.098 C 
ATOM     22  H10 RX4 d          24.484   5.877  42.394  0.00  0.00     0.088 H 
BRANCH  21  23
ATOM     23  CAR RX4 d          26.114   7.223  42.394  0.00  0.00     0.043 C 
ATOM     24  H11 RX4 d          26.846   7.658  43.091  0.00  0.00     0.052 H 
ATOM     25  H12 RX4 d          25.531   8.028  41.923  0.00  0.00     0.052 H 
BRANCH  23  26
ATOM     26  CAZ RX4 d          26.835   6.381  41.315  0.00  0.00     0.175 C 
ATOM     27  OAK RX4 d          28.088   6.477  41.183  0.00  0.00    -0.648 OA
ATOM     28  OAG RX4 d          26.126   5.604  40.681  0.00  0.00    -0.648 OA
ENDBRANCH  23  26
ENDBRANCH  21  23
BRANCH  21  29
ATOM     29  NAU RX4 d          24.468   6.931  44.258  0.00  0.00    -0.348 N 
ATOM     30  CAX RX4 d          23.457   6.329  44.911  0.00  0.00     0.214 C 
ATOM     31  OAE RX4 d          23.004   5.199  44.608  0.00  0.00    -0.274 OA
ATOM     32  H13 RX4 d          24.741   7.850  44.542  0.00  0.00     0.163 HD
BRANCH  30  33
ATOM     33  CAA RX4 d          22.849   7.132  46.097  0.00  0.00    -0.003 C 
ATOM     34  H14 RX4 d          23.179   8.180  46.039  0.00  0.00     0.040 H 
ATOM     35  H15 RX4 d          23.185   6.695  47.048  0.00  0.00     0.040 H 
ATOM     36  H16 RX4 d          21.750   7.091  46.043  0.00  0.00     0.040 H 
ENDBRANCH  30  33
ENDBRANCH  21  29
ENDBRANCH  18  21
ENDBRANCH   1  17
BRANCH   1  37
ATOM     37  P1  RX4 d          27.170   1.808  43.317  0.00  0.00     0.130 P 
ATOM     38  O4  RX4 d          28.642   2.157  43.455  0.00  0.00    -0.666 OA
ATOM     39  O3  RX4 d          26.939   2.085  41.848  0.00  0.00    -0.666 OA
BRANCH  37  40
ATOM     40  CAT RX4 d          26.874   0.103  43.764  0.00  0.00     0.020 C 
ATOM     41  H17 RX4 d          26.958  -0.500  42.849  0.00  0.00     0.050 H 
ATOM     42  H18 RX4 d          25.848   0.036  44.155  0.00  0.00     0.050 H 
BRANCH  40  43
ATOM     43  CBD RX4 d          27.810  -0.511  44.811  0.00  0.00     0.029 C 
ATOM     44  H19 RX4 d          28.825  -0.101  44.704  0.00  0.00     0.054 H 
BRANCH  43  45
ATOM     45  CAB RX4 d          27.279  -0.338  46.320  0.00  0.00    -0.064 C 
ATOM     46  H20 RX4 d          27.684   0.592  46.746  0.00  0.00     0.028 H 
ATOM     47  H21 RX4 d          27.612  -1.194  46.926  0.00  0.00     0.028 H 
ATOM     48  H22 RX4 d          26.180  -0.293  46.320  0.00  0.00     0.028 H 
ENDBRANCH  43  45
BRANCH  43  49
ATOM     49  CBA RX4 d          27.767  -2.070  44.576  0.00  0.00     0.222 C 
ATOM     50  OAH RX4 d          26.796  -2.736  44.970  0.00  0.00    -0.273 OA
ATOM     51  N   RX4 d          28.840  -2.632  44.034  0.00  0.00    -0.348 N 
ATOM     52  H23 RX4 d          29.620  -2.075  43.748  0.00  0.00     0.163 HD
BRANCH  51  53
ATOM     53  CA  RX4 d          28.856  -4.132  43.860  0.00  0.00     0.086 C 
ATOM     54  H24 RX4 d          28.489  -4.639  44.765  0.00  0.00     0.086 H 
BRANCH  53  55
ATOM     55  CB  RX4 d          27.997  -4.522  42.649  0.00  0.00    -0.049 C 
ATOM     56  H25 RX4 d          27.904  -3.659  41.972  0.00  0.00     0.030 H 
ATOM     57  H26 RX4 d          26.997  -4.828  42.992  0.00  0.00     0.030 H 
ATOM     58  H27 RX4 d          28.473  -5.357  42.115  0.00  0.00     0.030 H 
ENDBRANCH  53  55
BRANCH  53  59
ATOM     59  C   RX4 d          30.354  -4.495  43.579  0.00  0.00     0.237 C 
ATOM     60  O   RX4 d          30.730  -4.713  42.378  0.00  0.00    -0.271 OA
ATOM     61  NAD RX4 d          31.187  -4.526  44.604  0.00  0.00    -0.368 N 
ATOM     62  H28 RX4 d          32.150  -4.754  44.459  0.00  0.00     0.159 HD
ATOM     63  H29 RX4 d          30.855  -4.322  45.525  0.00  0.00     0.159 HD
ENDBRANCH  53  59
ENDBRANCH  51  53
ENDBRANCH  43  49
ENDBRANCH  40  43
ENDBRANCH  37  40
ENDBRANCH   1  37
TORSDOF 16
ENDMDL
MODEL 5
REMARK VINA RESULT:      -5.6      2.032      8.438
REMARK  16 active torsions:
REMARK  status: ('A' for Active; 'I' for Inactive)
REMARK    1  A    between atoms: CBC_6  and  CAS_7 
REMARK    2  A    between atoms: CAS_7  and  CBG_8 
REMARK    3  A    between atoms: CBG_8  and  NAW_9 
REMARK    4  A    between atoms: CBG_8  and  P1_21 
REMARK       I    between atoms: NAW_9  and  CBB_10 
REMARK    5  A    between atoms: CBB_10  and  CBF_12 
REMARK    6  A    between atoms: CBF_12  and  CAR_13 
REMARK    7  A    between atoms: CBF_12  and  NAU_17 
REMARK    8  A    between atoms: CAR_13  and  CAZ_14 
REMARK       I    between atoms: NAU_17  and  CAX_18 
REMARK    9  A    between atoms: CAX_18  and  CAA_19 
REMARK   10  A    between atoms: P1_21  and  CAT_24 
REMARK   11  A    between atoms: CAT_24  and  CBD_25 
REMARK   12  A    between atoms: CBD_25  and  CAB_26 
REMARK   13  A    between atoms: CBD_25  and  CBA_27 
REMARK       I    between atoms: CBA_27  and  N_29 
REMARK   14  A    between atoms: N_29  and  CA_30 
REMARK   15  A    between atoms: CA_30  and  CB_31 
REMARK   16  A    between atoms: CA_30  and  C_32 
REMARK       I    between atoms: C_32  and  NAD_34 
ROOT
ATOM      1  CBG RX4 d          27.341   2.758  45.689  0.00  0.00     0.091 C 
ATOM      2  H8  RX4 d          28.176   3.182  46.267  0.00  0.00     0.089 H 
ENDROOT
BRANCH   1   3
ATOM      3  CAS RX4 d          26.382   2.003  46.687  0.00  0.00    -0.013 C 
ATOM      4  H6  RX4 d          25.531   1.566  46.144  0.00  0.00     0.044 H 
ATOM      5  H7  RX4 d          26.927   1.208  47.215  0.00  0.00     0.044 H 
BRANCH   3   6
ATOM      6  CBC RX4 d          25.889   3.079  47.688  0.00  0.00    -0.056 A 
ATOM      7  CAP RX4 d          24.483   3.223  47.801  0.00  0.00    -0.077 A 
ATOM      8  CAN RX4 d          23.878   4.171  48.615  0.00  0.00    -0.082 A 
ATOM      9  H1  RX4 d          23.849   2.561  47.222  0.00  0.00     0.084 H 
ATOM     10  CAM RX4 d          24.783   5.012  49.302  0.00  0.00    -0.083 A 
ATOM     11  H2  RX4 d          22.802   4.258  48.716  0.00  0.00     0.083 H 
ATOM     12  CAO RX4 d          26.189   4.914  49.186  0.00  0.00    -0.082 A 
ATOM     13  H3  RX4 d          24.376   5.775  49.956  0.00  0.00     0.083 H 
ATOM     14  CAQ RX4 d          26.762   3.932  48.360  0.00  0.00    -0.077 A 
ATOM     15  H4  RX4 d          26.826   5.598  49.735  0.00  0.00     0.083 H 
ATOM     16  H5  RX4 d          27.837   3.842  48.250  0.00  0.00     0.084 H 
ENDBRANCH   3   6
ENDBRANCH   1   3
BRANCH   1  17
ATOM     17  NAW RX4 d          26.631   3.824  44.989  0.00  0.00    -0.345 N 
ATOM     18  CBB RX4 d          27.232   5.014  44.900  0.00  0.00     0.241 C 
ATOM     19  OAI RX4 d          28.381   5.213  45.334  0.00  0.00    -0.271 OA
ATOM     20  H9  RX4 d          25.727   3.669  44.590  0.00  0.00     0.163 HD
BRANCH  18  21
ATOM     21  CBF RX4 d          26.422   6.237  44.440  0.00  0.00     0.098 C 
ATOM     22  H10 RX4 d          27.105   7.046  44.141  0.00  0.00     0.088 H 
BRANCH  21  23
ATOM     23  CAR RX4 d          25.532   6.756  45.524  0.00  0.00     0.043 C 
ATOM     24  H11 RX4 d          25.598   7.853  45.579  0.00  0.00     0.052 H 
ATOM     25  H12 RX4 d          25.818   6.322  46.494  0.00  0.00     0.052 H 
BRANCH  23  26
ATOM     26  CAZ RX4 d          24.096   6.323  45.145  0.00  0.00     0.175 C 
ATOM     27  OAK RX4 d          23.827   5.094  45.025  0.00  0.00    -0.648 OA
ATOM     28  OAG RX4 d          23.273   7.229  45.044  0.00  0.00    -0.648 OA
ENDBRANCH  23  26
ENDBRANCH  21  23
BRANCH  21  29
ATOM     29  NAU RX4 d          25.662   5.747  43.237  0.00  0.00    -0.348 N 
ATOM     30  CAX RX4 d          26.198   5.705  42.003  0.00  0.00     0.214 C 
ATOM     31  OAE RX4 d          27.354   6.109  41.729  0.00  0.00    -0.274 OA
ATOM     32  H13 RX4 d          24.719   5.440  43.359  0.00  0.00     0.163 HD
BRANCH  30  33
ATOM     33  CAA RX4 d          25.281   5.118  40.890  0.00  0.00    -0.003 C 
ATOM     34  H14 RX4 d          24.410   5.775  40.748  0.00  0.00     0.040 H 
ATOM     35  H15 RX4 d          24.939   4.116  41.188  0.00  0.00     0.040 H 
ATOM     36  H16 RX4 d          25.845   5.048  39.948  0.00  0.00     0.040 H 
ENDBRANCH  30  33
ENDBRANCH  21  29
ENDBRANCH  18  21
ENDBRANCH   1  17
BRANCH   1  37
ATOM     37  P1  RX4 d          27.994   1.685  44.391  0.00  0.00     0.130 P 
ATOM     38  O4  RX4 d          29.375   1.172  44.762  0.00  0.00    -0.666 OA
ATOM     39  O3  RX4 d          28.289   2.408  43.095  0.00  0.00    -0.666 OA
BRANCH  37  40
ATOM     40  CAT RX4 d          26.843   0.333  44.194  0.00  0.00     0.020 C 
ATOM     41  H17 RX4 d          26.968  -0.065  43.176  0.00  0.00     0.050 H 
ATOM     42  H18 RX4 d          25.828   0.742  44.305  0.00  0.00     0.050 H 
BRANCH  40  43
ATOM     43  CBD RX4 d          26.979  -0.841  45.170  0.00  0.00     0.029 C 
ATOM     44  H19 RX4 d          27.695  -0.594  45.967  0.00  0.00     0.054 H 
BRANCH  43  45
ATOM     45  CAB RX4 d          25.573  -1.318  45.791  0.00  0.00    -0.064 C 
ATOM     46  H20 RX4 d          24.850  -0.490  45.739  0.00  0.00     0.028 H 
ATOM     47  H21 RX4 d          25.718  -1.612  46.841  0.00  0.00     0.028 H 
ATOM     48  H22 RX4 d          25.190  -2.176  45.219  0.00  0.00     0.028 H 
ENDBRANCH  43  45
BRANCH  43  49
ATOM     49  CBA RX4 d          27.444  -2.077  44.308  0.00  0.00     0.222 C 
ATOM     50  OAH RX4 d          27.016  -2.231  43.153  0.00  0.00    -0.273 OA
ATOM     51  N   RX4 d          28.224  -2.971  44.901  0.00  0.00    -0.348 N 
ATOM     52  H23 RX4 d          28.534  -2.835  45.842  0.00  0.00     0.163 HD
BRANCH  51  53
ATOM     53  CA  RX4 d          28.630  -4.200  44.123  0.00  0.00     0.086 C 
ATOM     54  H24 RX4 d          28.084  -4.263  43.171  0.00  0.00     0.086 H 
BRANCH  53  55
ATOM     55  CB  RX4 d          30.144  -4.172  43.865  0.00  0.00    -0.049 C 
ATOM     56  H25 RX4 d          30.411  -3.238  43.349  0.00  0.00     0.030 H 
ATOM     57  H26 RX4 d          30.424  -5.031  43.238  0.00  0.00     0.030 H 
ATOM     58  H27 RX4 d          30.680  -4.227  44.824  0.00  0.00     0.030 H 
ENDBRANCH  53  55
BRANCH  53  59
ATOM     59  C   RX4 d          28.279  -5.409  45.056  0.00  0.00     0.237 C 
ATOM     60  O   RX4 d          27.341  -6.207  44.718  0.00  0.00    -0.271 OA
ATOM     61  NAD RX4 d          29.001  -5.580  46.149  0.00  0.00    -0.368 N 
ATOM     62  H28 RX4 d          28.803  -6.342  46.765  0.00  0.00     0.159 HD
ATOM     63  H29 RX4 d          29.746  -4.946  46.360  0.00  0.00     0.159 HD
ENDBRANCH  53  59
ENDBRANCH  51  53
ENDBRANCH  43  49
ENDBRANCH  40  43
ENDBRANCH  37  40
ENDBRANCH   1  37
TORSDOF 16
ENDMDL
MODEL 6
REMARK VINA RESULT:      -5.4      1.911      2.822
REMARK  16 active torsions:
REMARK  status: ('A' for Active; 'I' for Inactive)
REMARK    1  A    between atoms: CBC_6  and  CAS_7 
REMARK    2  A    between atoms: CAS_7  and  CBG_8 
REMARK    3  A    between atoms: CBG_8  and  NAW_9 
REMARK    4  A    between atoms: CBG_8  and  P1_21 
REMARK       I    between atoms: NAW_9  and  CBB_10 
REMARK    5  A    between atoms: CBB_10  and  CBF_12 
REMARK    6  A    between atoms: CBF_12  and  CAR_13 
REMARK    7  A    between atoms: CBF_12  and  NAU_17 
REMARK    8  A    between atoms: CAR_13  and  CAZ_14 
REMARK       I    between atoms: NAU_17  and  CAX_18 
REMARK    9  A    between atoms: CAX_18  and  CAA_19 
REMARK   10  A    between atoms: P1_21  and  CAT_24 
REMARK   11  A    between atoms: CAT_24  and  CBD_25 
REMARK   12  A    between atoms: CBD_25  and  CAB_26 
REMARK   13  A    between atoms: CBD_25  and  CBA_27 
REMARK       I    between atoms: CBA_27  and  N_29 
REMARK   14  A    between atoms: N_29  and  CA_30 
REMARK   15  A    between atoms: CA_30  and  CB_31 
REMARK   16  A    between atoms: CA_30  and  C_32 
REMARK       I    between atoms: C_32  and  NAD_34 
ROOT
ATOM      1  CBG RX4 d          27.136  -0.167  44.616  0.00  0.00     0.091 C 
ATOM      2  H8  RX4 d          26.073  -0.101  44.341  0.00  0.00     0.089 H 
ENDROOT
BRANCH   1   3
ATOM      3  CAS RX4 d          27.234  -0.295  46.184  0.00  0.00    -0.013 C 
ATOM      4  H6  RX4 d          26.957  -1.310  46.505  0.00  0.00     0.044 H 
ATOM      5  H7  RX4 d          28.255  -0.069  46.524  0.00  0.00     0.044 H 
BRANCH   3   6
ATOM      6  CBC RX4 d          26.233   0.743  46.753  0.00  0.00    -0.056 A 
ATOM      7  CAP RX4 d          26.723   1.572  47.793  0.00  0.00    -0.077 A 
ATOM      8  CAN RX4 d          25.944   2.519  48.444  0.00  0.00    -0.082 A 
ATOM      9  H1  RX4 d          27.758   1.461  48.096  0.00  0.00     0.084 H 
ATOM     10  CAM RX4 d          24.600   2.567  48.007  0.00  0.00    -0.083 A 
ATOM     11  H2  RX4 d          26.333   3.167  49.221  0.00  0.00     0.083 H 
ATOM     12  CAO RX4 d          24.073   1.731  46.995  0.00  0.00    -0.082 A 
ATOM     13  H3  RX4 d          23.936   3.284  48.474  0.00  0.00     0.083 H 
ATOM     14  CAQ RX4 d          24.899   0.794  46.353  0.00  0.00    -0.077 A 
ATOM     15  H4  RX4 d          23.029   1.814  46.714  0.00  0.00     0.083 H 
ATOM     16  H5  RX4 d          24.516   0.138  45.579  0.00  0.00     0.084 H 
ENDBRANCH   3   6
ENDBRANCH   1   3
BRANCH   1  17
ATOM     17  NAW RX4 d          27.746  -1.320  43.960  0.00  0.00    -0.345 N 
ATOM     18  CBB RX4 d          27.155  -2.508  44.120  0.00  0.00     0.241 C 
ATOM     19  OAI RX4 d          26.090  -2.642  44.748  0.00  0.00    -0.271 OA
ATOM     20  H9  RX4 d          28.575  -1.224  43.410  0.00  0.00     0.163 HD
BRANCH  18  21
ATOM     21  CBF RX4 d          27.903  -3.785  43.704  0.00  0.00     0.098 C 
ATOM     22  H10 RX4 d          28.706  -3.533  42.995  0.00  0.00     0.088 H 
BRANCH  21  23
ATOM     23  CAR RX4 d          26.995  -4.775  43.047  0.00  0.00     0.043 C 
ATOM     24  H11 RX4 d          26.012  -4.320  42.854  0.00  0.00     0.052 H 
ATOM     25  H12 RX4 d          26.871  -5.661  43.687  0.00  0.00     0.052 H 
BRANCH  23  26
ATOM     26  CAZ RX4 d          27.678  -5.166  41.715  0.00  0.00     0.175 C 
ATOM     27  OAK RX4 d          26.973  -5.342  40.681  0.00  0.00    -0.648 OA
ATOM     28  OAG RX4 d          28.905  -5.220  41.739  0.00  0.00    -0.648 OA
ENDBRANCH  23  26
ENDBRANCH  21  23
BRANCH  21  29
ATOM     29  NAU RX4 d          28.506  -4.296  44.986  0.00  0.00    -0.348 N 
ATOM     30  CAX RX4 d          28.657  -5.607  45.249  0.00  0.00     0.214 C 
ATOM     31  OAE RX4 d          28.273  -6.523  44.482  0.00  0.00    -0.274 OA
ATOM     32  H13 RX4 d          28.806  -3.633  45.671  0.00  0.00     0.163 HD
BRANCH  30  33
ATOM     33  CAA RX4 d          29.348  -5.947  46.602  0.00  0.00    -0.003 C 
ATOM     34  H14 RX4 d          29.355  -7.037  46.747  0.00  0.00     0.040 H 
ATOM     35  H15 RX4 d          28.796  -5.471  47.425  0.00  0.00     0.040 H 
ATOM     36  H16 RX4 d          30.383  -5.572  46.589  0.00  0.00     0.040 H 
ENDBRANCH  30  33
ENDBRANCH  21  29
ENDBRANCH  18  21
ENDBRANCH   1  17
BRANCH   1  37
ATOM     37  P1  RX4 d          28.014   1.272  43.969  0.00  0.00     0.130 P 
ATOM     38  O4  RX4 d          28.882   0.884  42.784  0.00  0.00    -0.666 OA
ATOM     39  O3  RX4 d          29.050   1.831  44.919  0.00  0.00    -0.666 OA
BRANCH  37  40
ATOM     40  CAT RX4 d          26.780   2.472  43.489  0.00  0.00     0.020 C 
ATOM     41  H17 RX4 d          26.536   3.072  44.379  0.00  0.00     0.050 H 
ATOM     42  H18 RX4 d          25.887   1.919  43.164  0.00  0.00     0.050 H 
BRANCH  40  43
ATOM     43  CBD RX4 d          27.158   3.444  42.366  0.00  0.00     0.029 C 
ATOM     44  H19 RX4 d          28.048   3.082  41.831  0.00  0.00     0.054 H 
BRANCH  43  45
ATOM     45  CAB RX4 d          25.951   3.731  41.341  0.00  0.00    -0.064 C 
ATOM     46  H20 RX4 d          25.014   3.332  41.757  0.00  0.00     0.028 H 
ATOM     47  H21 RX4 d          26.163   3.241  40.379  0.00  0.00     0.028 H 
ATOM     48  H22 RX4 d          25.851   4.816  41.185  0.00  0.00     0.028 H 
ENDBRANCH  43  45
BRANCH  43  49
ATOM     49  CBA RX4 d          27.401   4.841  43.057  0.00  0.00     0.222 C 
ATOM     50  OAH RX4 d          27.410   5.881  42.380  0.00  0.00    -0.273 OA
ATOM     51  N   RX4 d          27.683   4.834  44.353  0.00  0.00    -0.348 N 
ATOM     52  H23 RX4 d          27.693   3.979  44.871  0.00  0.00     0.163 HD
BRANCH  51  53
ATOM     53  CA  RX4 d          27.988   6.150  45.029  0.00  0.00     0.086 C 
ATOM     54  H24 RX4 d          28.519   6.831  44.347  0.00  0.00     0.086 H 
BRANCH  53  55
ATOM     55  CB  RX4 d          26.684   6.798  45.515  0.00  0.00    -0.049 C 
ATOM     56  H25 RX4 d          26.712   7.879  45.311  0.00  0.00     0.030 H 
ATOM     57  H26 RX4 d          26.574   6.632  46.597  0.00  0.00     0.030 H 
ATOM     58  H27 RX4 d          25.831   6.347  44.986  0.00  0.00     0.030 H 
ENDBRANCH  53  55
BRANCH  53  59
ATOM     59  C   RX4 d          28.882   5.780  46.262  0.00  0.00     0.237 C 
ATOM     60  O   RX4 d          28.581   4.759  46.967  0.00  0.00    -0.271 OA
ATOM     61  NAD RX4 d          29.945   6.526  46.504  0.00  0.00    -0.368 N 
ATOM     62  H28 RX4 d          30.537   6.316  47.282  0.00  0.00     0.159 HD
ATOM     63  H29 RX4 d          30.159   7.300  45.908  0.00  0.00     0.159 HD
ENDBRANCH  53  59
ENDBRANCH  51  53
ENDBRANCH  43  49
ENDBRANCH  40  43
ENDBRANCH  37  40
ENDBRANCH   1  37
TORSDOF 16
ENDMDL
MODEL 7
REMARK VINA RESULT:      -5.0      2.210      9.012
REMARK  16 active torsions:
REMARK  status: ('A' for Active; 'I' for Inactive)
REMARK    1  A    between atoms: CBC_6  and  CAS_7 
REMARK    2  A    between atoms: CAS_7  and  CBG_8 
REMARK    3  A    between atoms: CBG_8  and  NAW_9 
REMARK    4  A    between atoms: CBG_8  and  P1_21 
REMARK       I    between atoms: NAW_9  and  CBB_10 
REMARK    5  A    between atoms: CBB_10  and  CBF_12 
REMARK    6  A    between atoms: CBF_12  and  CAR_13 
REMARK    7  A    between atoms: CBF_12  and  NAU_17 
REMARK    8  A    between atoms: CAR_13  and  CAZ_14 
REMARK       I    between atoms: NAU_17  and  CAX_18 
REMARK    9  A    between atoms: CAX_18  and  CAA_19 
REMARK   10  A    between atoms: P1_21  and  CAT_24 
REMARK   11  A    between atoms: CAT_24  and  CBD_25 
REMARK   12  A    between atoms: CBD_25  and  CAB_26 
REMARK   13  A    between atoms: CBD_25  and  CBA_27 
REMARK       I    between atoms: CBA_27  and  N_29 
REMARK   14  A    between atoms: N_29  and  CA_30 
REMARK   15  A    between atoms: CA_30  and  CB_31 
REMARK   16  A    between atoms: CA_30  and  C_32 
REMARK       I    between atoms: C_32  and  NAD_34 
ROOT
ATOM      1  CBG RX4 d          26.115   2.594  46.545  0.00  0.00     0.091 C 
ATOM      2  H8  RX4 d          25.828   2.007  47.430  0.00  0.00     0.089 H 
ENDROOT
BRANCH   1   3
ATOM      3  CAS RX4 d          24.927   2.542  45.510  0.00  0.00    -0.013 C 
ATOM      4  H6  RX4 d          25.054   1.693  44.822  0.00  0.00     0.044 H 
ATOM      5  H7  RX4 d          23.965   2.448  46.035  0.00  0.00     0.044 H 
BRANCH   3   6
ATOM      6  CBC RX4 d          24.990   3.882  44.732  0.00  0.00    -0.056 A 
ATOM      7  CAP RX4 d          24.126   4.907  45.193  0.00  0.00    -0.077 A 
ATOM      8  CAN RX4 d          24.024   6.149  44.581  0.00  0.00    -0.082 A 
ATOM      9  H1  RX4 d          23.515   4.713  46.067  0.00  0.00     0.084 H 
ATOM     10  CAM RX4 d          24.830   6.299  43.430  0.00  0.00    -0.083 A 
ATOM     11  H2  RX4 d          23.380   6.937  44.955  0.00  0.00     0.083 H 
ATOM     12  CAO RX4 d          25.676   5.283  42.926  0.00  0.00    -0.082 A 
ATOM     13  H3  RX4 d          24.797   7.245  42.902  0.00  0.00     0.083 H 
ATOM     14  CAQ RX4 d          25.760   4.045  43.583  0.00  0.00    -0.077 A 
ATOM     15  H4  RX4 d          26.262   5.462  42.031  0.00  0.00     0.083 H 
ATOM     16  H5  RX4 d          26.397   3.249  43.212  0.00  0.00     0.084 H 
ENDBRANCH   3   6
ENDBRANCH   1   3
BRANCH   1  17
ATOM     17  NAW RX4 d          26.406   3.970  46.936  0.00  0.00    -0.345 N 
ATOM     18  CBB RX4 d          26.695   4.201  48.220  0.00  0.00     0.241 C 
ATOM     19  OAI RX4 d          26.782   3.285  49.058  0.00  0.00    -0.271 OA
ATOM     20  H9  RX4 d          26.390   4.712  46.267  0.00  0.00     0.163 HD
BRANCH  18  21
ATOM     21  CBF RX4 d          26.720   5.647  48.740  0.00  0.00     0.098 C 
ATOM     22  H10 RX4 d          26.551   5.656  49.827  0.00  0.00     0.088 H 
BRANCH  21  23
ATOM     23  CAR RX4 d          25.665   6.490  48.097  0.00  0.00     0.043 C 
ATOM     24  H11 RX4 d          25.515   6.182  47.052  0.00  0.00     0.052 H 
ATOM     25  H12 RX4 d          25.951   7.552  48.131  0.00  0.00     0.052 H 
BRANCH  23  26
ATOM     26  CAZ RX4 d          24.372   6.257  48.915  0.00  0.00     0.175 C 
ATOM     27  OAK RX4 d          23.576   7.219  49.112  0.00  0.00    -0.648 OA
ATOM     28  OAG RX4 d          24.170   5.101  49.278  0.00  0.00    -0.648 OA
ENDBRANCH  23  26
ENDBRANCH  21  23
BRANCH  21  29
ATOM     29  NAU RX4 d          28.117   6.124  48.443  0.00  0.00    -0.348 N 
ATOM     30  CAX RX4 d          28.535   6.432  47.201  0.00  0.00     0.214 C 
ATOM     31  OAE RX4 d          27.825   6.310  46.174  0.00  0.00    -0.274 OA
ATOM     32  H13 RX4 d          28.762   6.214  49.201  0.00  0.00     0.163 HD
BRANCH  30  33
ATOM     33  CAA RX4 d          29.996   6.958  47.094  0.00  0.00    -0.003 C 
ATOM     34  H14 RX4 d          29.985   8.054  46.994  0.00  0.00     0.040 H 
ATOM     35  H15 RX4 d          30.482   6.515  46.213  0.00  0.00     0.040 H 
ATOM     36  H16 RX4 d          30.554   6.679  48.001  0.00  0.00     0.040 H 
ENDBRANCH  30  33
ENDBRANCH  21  29
ENDBRANCH  18  21
ENDBRANCH   1  17
BRANCH   1  37
ATOM     37  P1  RX4 d          27.663   1.949  45.874  0.00  0.00     0.130 P 
ATOM     38  O4  RX4 d          28.573   1.468  46.991  0.00  0.00    -0.666 OA
ATOM     39  O3  RX4 d          28.530   3.004  45.223  0.00  0.00    -0.666 OA
BRANCH  37  40
ATOM     40  CAT RX4 d          27.243   0.607  44.772  0.00  0.00     0.020 C 
ATOM     41  H17 RX4 d          28.052   0.519  44.032  0.00  0.00     0.050 H 
ATOM     42  H18 RX4 d          26.307   0.877  44.261  0.00  0.00     0.050 H 
BRANCH  40  43
ATOM     43  CBD RX4 d          27.043  -0.774  45.405  0.00  0.00     0.029 C 
ATOM     44  H19 RX4 d          27.392  -0.770  46.449  0.00  0.00     0.054 H 
BRANCH  43  45
ATOM     45  CAB RX4 d          25.526  -1.304  45.312  0.00  0.00    -0.064 C 
ATOM     46  H20 RX4 d          25.526  -2.364  45.017  0.00  0.00     0.028 H 
ATOM     47  H21 RX4 d          24.978  -0.715  44.562  0.00  0.00     0.028 H 
ATOM     48  H22 RX4 d          25.038  -1.196  46.292  0.00  0.00     0.028 H 
ENDBRANCH  43  45
BRANCH  43  49
ATOM     49  CBA RX4 d          27.850  -1.789  44.508  0.00  0.00     0.222 C 
ATOM     50  OAH RX4 d          28.725  -1.378  43.730  0.00  0.00    -0.273 OA
ATOM     51  N   RX4 d          27.487  -3.064  44.558  0.00  0.00    -0.348 N 
ATOM     52  H23 RX4 d          26.761  -3.365  45.176  0.00  0.00     0.163 HD
BRANCH  51  53
ATOM     53  CA  RX4 d          28.195  -4.050  43.659  0.00  0.00     0.086 C 
ATOM     54  H24 RX4 d          28.633  -3.544  42.786  0.00  0.00     0.086 H 
BRANCH  53  55
ATOM     55  CB  RX4 d          29.288  -4.781  44.452  0.00  0.00    -0.049 C 
ATOM     56  H25 RX4 d          29.260  -4.454  45.502  0.00  0.00     0.030 H 
ATOM     57  H26 RX4 d          30.273  -4.547  44.020  0.00  0.00     0.030 H 
ATOM     58  H27 RX4 d          29.114  -5.866  44.401  0.00  0.00     0.030 H 
ENDBRANCH  53  55
BRANCH  53  59
ATOM     59  C   RX4 d          27.091  -5.072  43.222  0.00  0.00     0.237 C 
ATOM     60  O   RX4 d          27.003  -5.409  41.994  0.00  0.00    -0.271 OA
ATOM     61  NAD RX4 d          26.309  -5.579  44.159  0.00  0.00    -0.368 N 
ATOM     62  H28 RX4 d          25.595  -6.234  43.914  0.00  0.00     0.159 HD
ATOM     63  H29 RX4 d          26.432  -5.307  45.114  0.00  0.00     0.159 HD
ENDBRANCH  53  59
ENDBRANCH  51  53
ENDBRANCH  43  49
ENDBRANCH  40  43
ENDBRANCH  37  40
ENDBRANCH   1  37
TORSDOF 16
ENDMDL
MODEL 8
REMARK VINA RESULT:      -4.6      3.358      6.591
REMARK  16 active torsions:
REMARK  status: ('A' for Active; 'I' for Inactive)
REMARK    1  A    between atoms: CBC_6  and  CAS_7 
REMARK    2  A    between atoms: CAS_7  and  CBG_8 
REMARK    3  A    between atoms: CBG_8  and  NAW_9 
REMARK    4  A    between atoms: CBG_8  and  P1_21 
REMARK       I    between atoms: NAW_9  and  CBB_10 
REMARK    5  A    between atoms: CBB_10  and  CBF_12 
REMARK    6  A    between atoms: CBF_12  and  CAR_13 
REMARK    7  A    between atoms: CBF_12  and  NAU_17 
REMARK    8  A    between atoms: CAR_13  and  CAZ_14 
REMARK       I    between atoms: NAU_17  and  CAX_18 
REMARK    9  A    between atoms: CAX_18  and  CAA_19 
REMARK   10  A    between atoms: P1_21  and  CAT_24 
REMARK   11  A    between atoms: CAT_24  and  CBD_25 
REMARK   12  A    between atoms: CBD_25  and  CAB_26 
REMARK   13  A    between atoms: CBD_25  and  CBA_27 
REMARK       I    between atoms: CBA_27  and  N_29 
REMARK   14  A    between atoms: N_29  and  CA_30 
REMARK   15  A    between atoms: CA_30  and  CB_31 
REMARK   16  A    between atoms: CA_30  and  C_32 
REMARK       I    between atoms: C_32  and  NAD_34 
ROOT
ATOM      1  CBG RX4 d          28.606   5.645  46.189  0.00  0.00     0.091 C 
ATOM      2  H8  RX4 d          29.583   5.142  46.243  0.00  0.00     0.089 H 
ENDROOT
BRANCH   1   3
ATOM      3  CAS RX4 d          28.834   7.109  45.650  0.00  0.00    -0.013 C 
ATOM      4  H6  RX4 d          28.359   7.842  46.319  0.00  0.00     0.044 H 
ATOM      5  H7  RX4 d          29.909   7.326  45.572  0.00  0.00     0.044 H 
BRANCH   3   6
ATOM      6  CBC RX4 d          28.171   7.148  44.250  0.00  0.00    -0.056 A 
ATOM      7  CAP RX4 d          26.755   7.227  44.235  0.00  0.00    -0.077 A 
ATOM      8  CAN RX4 d          26.005   7.222  43.068  0.00  0.00    -0.082 A 
ATOM      9  H1  RX4 d          26.233   7.293  45.183  0.00  0.00     0.084 H 
ATOM     10  CAM RX4 d          26.768   7.097  41.885  0.00  0.00    -0.083 A 
ATOM     11  H2  RX4 d          24.924   7.309  43.064  0.00  0.00     0.083 H 
ATOM     12  CAO RX4 d          28.178   6.984  41.868  0.00  0.00    -0.082 A 
ATOM     13  H3  RX4 d          26.243   7.086  40.937  0.00  0.00     0.083 H 
ATOM     14  CAQ RX4 d          28.901   7.005  43.072  0.00  0.00    -0.077 A 
ATOM     15  H4  RX4 d          28.701   6.881  40.924  0.00  0.00     0.083 H 
ATOM     16  H5  RX4 d          29.982   6.914  43.084  0.00  0.00     0.084 H 
ENDBRANCH   3   6
ENDBRANCH   1   3
BRANCH   1  17
ATOM     17  NAW RX4 d          27.714   4.898  45.307  0.00  0.00    -0.345 N 
ATOM     18  CBB RX4 d          28.007   3.617  45.070  0.00  0.00     0.241 C 
ATOM     19  OAI RX4 d          28.964   3.041  45.617  0.00  0.00    -0.271 OA
ATOM     20  H9  RX4 d          26.911   5.331  44.897  0.00  0.00     0.163 HD
BRANCH  18  21
ATOM     21  CBF RX4 d          27.282   2.874  43.935  0.00  0.00     0.098 C 
ATOM     22  H10 RX4 d          28.005   2.584  43.158  0.00  0.00     0.088 H 
BRANCH  21  23
ATOM     23  CAR RX4 d          26.228   3.721  43.298  0.00  0.00     0.043 C 
ATOM     24  H11 RX4 d          26.467   4.788  43.426  0.00  0.00     0.052 H 
ATOM     25  H12 RX4 d          25.245   3.509  43.745  0.00  0.00     0.052 H 
BRANCH  23  26
ATOM     26  CAZ RX4 d          26.227   3.348  41.796  0.00  0.00     0.175 C 
ATOM     27  OAK RX4 d          26.734   2.251  41.426  0.00  0.00    -0.648 OA
ATOM     28  OAG RX4 d          25.659   4.140  41.049  0.00  0.00    -0.648 OA
ENDBRANCH  23  26
ENDBRANCH  21  23
BRANCH  21  29
ATOM     29  NAU RX4 d          26.728   1.640  44.595  0.00  0.00    -0.348 N 
ATOM     30  CAX RX4 d          27.297   0.426  44.468  0.00  0.00     0.214 C 
ATOM     31  OAE RX4 d          28.305   0.198  43.757  0.00  0.00    -0.274 OA
ATOM     32  H13 RX4 d          25.902   1.725  45.152  0.00  0.00     0.163 HD
BRANCH  30  33
ATOM     33  CAA RX4 d          26.615  -0.723  45.266  0.00  0.00    -0.003 C 
ATOM     34  H14 RX4 d          27.163  -0.894  46.204  0.00  0.00     0.040 H 
ATOM     35  H15 RX4 d          26.624  -1.643  44.663  0.00  0.00     0.040 H 
ATOM     36  H16 RX4 d          25.575  -0.445  45.494  0.00  0.00     0.040 H 
ENDBRANCH  30  33
ENDBRANCH  21  29
ENDBRANCH  18  21
ENDBRANCH   1  17
BRANCH   1  37
ATOM     37  P1  RX4 d          27.819   5.605  47.814  0.00  0.00     0.130 P 
ATOM     38  O4  RX4 d          28.685   6.302  48.848  0.00  0.00    -0.666 OA
ATOM     39  O3  RX4 d          27.715   4.217  48.405  0.00  0.00    -0.666 OA
BRANCH  37  40
ATOM     40  CAT RX4 d          26.237   6.420  47.654  0.00  0.00     0.020 C 
ATOM     41  H17 RX4 d          25.788   6.092  46.705  0.00  0.00     0.050 H 
ATOM     42  H18 RX4 d          26.423   7.504  47.616  0.00  0.00     0.050 H 
BRANCH  40  43
ATOM     43  CBD RX4 d          25.210   6.166  48.763  0.00  0.00     0.029 C 
ATOM     44  H19 RX4 d          25.677   6.290  49.752  0.00  0.00     0.054 H 
BRANCH  43  45
ATOM     45  CAB RX4 d          23.893   7.081  48.634  0.00  0.00    -0.064 C 
ATOM     46  H20 RX4 d          23.050   6.583  49.134  0.00  0.00     0.028 H 
ATOM     47  H21 RX4 d          23.653   7.230  47.571  0.00  0.00     0.028 H 
ATOM     48  H22 RX4 d          24.076   8.057  49.109  0.00  0.00     0.028 H 
ENDBRANCH  43  45
BRANCH  43  49
ATOM     49  CBA RX4 d          24.671   4.701  48.535  0.00  0.00     0.222 C 
ATOM     50  OAH RX4 d          23.753   4.491  47.728  0.00  0.00    -0.273 OA
ATOM     51  N   RX4 d          25.175   3.744  49.303  0.00  0.00    -0.348 N 
ATOM     52  H23 RX4 d          25.898   3.945  49.964  0.00  0.00     0.163 HD
BRANCH  51  53
ATOM     53  CA  RX4 d          24.630   2.343  49.155  0.00  0.00     0.086 C 
ATOM     54  H24 RX4 d          24.848   1.738  50.047  0.00  0.00     0.086 H 
BRANCH  53  55
ATOM     55  CB  RX4 d          23.115   2.399  48.911  0.00  0.00    -0.049 C 
ATOM     56  H25 RX4 d          22.867   3.317  48.357  0.00  0.00     0.030 H 
ATOM     57  H26 RX4 d          22.588   2.400  49.877  0.00  0.00     0.030 H 
ATOM     58  H27 RX4 d          22.805   1.522  48.324  0.00  0.00     0.030 H 
ENDBRANCH  53  55
BRANCH  53  59
ATOM     59  C   RX4 d          25.344   1.757  47.889  0.00  0.00     0.237 C 
ATOM     60  O   RX4 d          24.651   1.482  46.852  0.00  0.00    -0.271 OA
ATOM     61  NAD RX4 d          26.656   1.605  47.932  0.00  0.00    -0.368 N 
ATOM     62  H28 RX4 d          27.142   1.234  47.140  0.00  0.00     0.159 HD
ATOM     63  H29 RX4 d          27.162   1.860  48.756  0.00  0.00     0.159 HD
ENDBRANCH  53  59
ENDBRANCH  51  53
ENDBRANCH  43  49
ENDBRANCH  40  43
ENDBRANCH  37  40
ENDBRANCH   1  37
TORSDOF 16
ENDMDL
MODEL 9
REMARK VINA RESULT:      -4.5      3.318      6.661
REMARK  16 active torsions:
REMARK  status: ('A' for Active; 'I' for Inactive)
REMARK    1  A    between atoms: CBC_6  and  CAS_7 
REMARK    2  A    between atoms: CAS_7  and  CBG_8 
REMARK    3  A    between atoms: CBG_8  and  NAW_9 
REMARK    4  A    between atoms: CBG_8  and  P1_21 
REMARK       I    between atoms: NAW_9  and  CBB_10 
REMARK    5  A    between atoms: CBB_10  and  CBF_12 
REMARK    6  A    between atoms: CBF_12  and  CAR_13 
REMARK    7  A    between atoms: CBF_12  and  NAU_17 
REMARK    8  A    between atoms: CAR_13  and  CAZ_14 
REMARK       I    between atoms: NAU_17  and  CAX_18 
REMARK    9  A    between atoms: CAX_18  and  CAA_19 
REMARK   10  A    between atoms: P1_21  and  CAT_24 
REMARK   11  A    between atoms: CAT_24  and  CBD_25 
REMARK   12  A    between atoms: CBD_25  and  CAB_26 
REMARK   13  A    between atoms: CBD_25  and  CBA_27 
REMARK       I    between atoms: CBA_27  and  N_29 
REMARK   14  A    between atoms: N_29  and  CA_30 
REMARK   15  A    between atoms: CA_30  and  CB_31 
REMARK   16  A    between atoms: CA_30  and  C_32 
REMARK       I    between atoms: C_32  and  NAD_34 
ROOT
ATOM      1  CBG RX4 d          26.961   1.982  44.688  0.00  0.00     0.091 C 
ATOM      2  H8  RX4 d          27.898   1.546  45.066  0.00  0.00     0.089 H 
ENDROOT
BRANCH   1   3
ATOM      3  CAS RX4 d          25.975   0.806  44.333  0.00  0.00    -0.013 C 
ATOM      4  H6  RX4 d          25.197   0.711  45.105  0.00  0.00     0.044 H 
ATOM      5  H7  RX4 d          25.502   0.982  43.356  0.00  0.00     0.044 H 
BRANCH   3   6
ATOM      6  CBC RX4 d          26.848  -0.474  44.288  0.00  0.00    -0.056 A 
ATOM      7  CAP RX4 d          26.233  -1.661  44.761  0.00  0.00    -0.077 A 
ATOM      8  CAN RX4 d          26.890  -2.882  44.833  0.00  0.00    -0.082 A 
ATOM      9  H1  RX4 d          25.199  -1.613  45.082  0.00  0.00     0.084 H 
ATOM     10  CAM RX4 d          28.243  -2.840  44.427  0.00  0.00    -0.083 A 
ATOM     11  H2  RX4 d          26.406  -3.791  45.172  0.00  0.00     0.083 H 
ATOM     12  CAO RX4 d          28.894  -1.666  43.982  0.00  0.00    -0.082 A 
ATOM     13  H3  RX4 d          28.815  -3.760  44.459  0.00  0.00     0.083 H 
ATOM     14  CAQ RX4 d          28.189  -0.453  43.912  0.00  0.00    -0.077 A 
ATOM     15  H4  RX4 d          29.938  -1.702  43.693  0.00  0.00     0.083 H 
ATOM     16  H5  RX4 d          28.668   0.461  43.579  0.00  0.00     0.084 H 
ENDBRANCH   3   6
ENDBRANCH   1   3
BRANCH   1  17
ATOM     17  NAW RX4 d          26.381   2.863  45.697  0.00  0.00    -0.345 N 
ATOM     18  CBB RX4 d          26.972   2.905  46.895  0.00  0.00     0.241 C 
ATOM     19  OAI RX4 d          28.016   2.275  47.145  0.00  0.00    -0.271 OA
ATOM     20  H9  RX4 d          25.572   3.414  45.499  0.00  0.00     0.163 HD
BRANCH  18  21
ATOM     21  CBF RX4 d          26.246   3.578  48.071  0.00  0.00     0.098 C 
ATOM     22  H10 RX4 d          26.944   4.231  48.616  0.00  0.00     0.088 H 
BRANCH  21  23
ATOM     23  CAR RX4 d          25.699   2.575  49.037  0.00  0.00     0.043 C 
ATOM     24  H11 RX4 d          25.682   2.994  50.053  0.00  0.00     0.052 H 
ATOM     25  H12 RX4 d          26.312   1.661  49.026  0.00  0.00     0.052 H 
BRANCH  23  26
ATOM     26  CAZ RX4 d          24.261   2.261  48.561  0.00  0.00     0.175 C 
ATOM     27  OAK RX4 d          23.280   2.558  49.302  0.00  0.00    -0.648 OA
ATOM     28  OAG RX4 d          24.162   1.786  47.433  0.00  0.00    -0.648 OA
ENDBRANCH  23  26
ENDBRANCH  21  23
BRANCH  21  29
ATOM     29  NAU RX4 d          25.178   4.413  47.419  0.00  0.00    -0.348 N 
ATOM     30  CAX RX4 d          24.646   5.503  48.002  0.00  0.00     0.214 C 
ATOM     31  OAE RX4 d          24.950   5.899  49.153  0.00  0.00    -0.274 OA
ATOM     32  H13 RX4 d          24.849   4.146  46.514  0.00  0.00     0.163 HD
BRANCH  30  33
ATOM     33  CAA RX4 d          23.590   6.273  47.154  0.00  0.00    -0.003 C 
ATOM     34  H14 RX4 d          22.596   6.154  47.610  0.00  0.00     0.040 H 
ATOM     35  H15 RX4 d          23.576   5.868  46.132  0.00  0.00     0.040 H 
ATOM     36  H16 RX4 d          23.854   7.341  47.122  0.00  0.00     0.040 H 
ENDBRANCH  30  33
ENDBRANCH  21  29
ENDBRANCH  18  21
ENDBRANCH   1  17
BRANCH   1  37
ATOM     37  P1  RX4 d          27.325   3.048  43.275  0.00  0.00     0.130 P 
ATOM     38  O4  RX4 d          26.876   2.395  41.979  0.00  0.00    -0.666 OA
ATOM     39  O3  RX4 d          28.804   3.229  43.015  0.00  0.00    -0.666 OA
BRANCH  37  40
ATOM     40  CAT RX4 d          26.465   4.591  43.543  0.00  0.00     0.020 C 
ATOM     41  H17 RX4 d          26.095   4.591  44.579  0.00  0.00     0.050 H 
ATOM     42  H18 RX4 d          25.612   4.621  42.849  0.00  0.00     0.050 H 
BRANCH  40  43
ATOM     43  CBD RX4 d          27.271   5.879  43.341  0.00  0.00     0.029 C 
ATOM     44  H19 RX4 d          28.245   5.652  42.881  0.00  0.00     0.054 H 
BRANCH  43  45
ATOM     45  CAB RX4 d          26.484   6.996  42.491  0.00  0.00    -0.064 C 
ATOM     46  H20 RX4 d          26.197   6.580  41.514  0.00  0.00     0.028 H 
ATOM     47  H21 RX4 d          27.136   7.869  42.341  0.00  0.00     0.028 H 
ATOM     48  H22 RX4 d          25.580   7.304  43.038  0.00  0.00     0.028 H 
ENDBRANCH  43  45
BRANCH  43  49
ATOM     49  CBA RX4 d          27.421   6.532  44.769  0.00  0.00     0.222 C 
ATOM     50  OAH RX4 d          26.466   7.130  45.286  0.00  0.00    -0.273 OA
ATOM     51  N   RX4 d          28.622   6.490  45.331  0.00  0.00    -0.348 N 
ATOM     52  H23 RX4 d          29.382   6.022  44.880  0.00  0.00     0.163 HD
BRANCH  51  53
ATOM     53  CA  RX4 d          28.813   7.166  46.668  0.00  0.00     0.086 C 
ATOM     54  H24 RX4 d          28.400   8.185  46.658  0.00  0.00     0.086 H 
BRANCH  53  55
ATOM     55  CB  RX4 d          28.144   6.333  47.770  0.00  0.00    -0.049 C 
ATOM     56  H25 RX4 d          28.918   5.847  48.384  0.00  0.00     0.030 H 
ATOM     57  H26 RX4 d          27.504   5.564  47.312  0.00  0.00     0.030 H 
ATOM     58  H27 RX4 d          27.532   6.990  48.406  0.00  0.00     0.030 H 
ENDBRANCH  53  55
BRANCH  53  59
ATOM     59  C   RX4 d          30.364   7.190  46.896  0.00  0.00     0.237 C 
ATOM     60  O   RX4 d          30.821   7.135  48.087  0.00  0.00    -0.271 OA
ATOM     61  NAD RX4 d          31.146   7.229  45.832  0.00  0.00    -0.368 N 
ATOM     62  H28 RX4 d          32.140   7.244  45.943  0.00  0.00     0.159 HD
ATOM     63  H29 RX4 d          30.745   7.243  44.916  0.00  0.00     0.159 HD
ENDBRANCH  53  59
ENDBRANCH  51  53
ENDBRANCH  43  49
ENDBRANCH  40  43
ENDBRANCH  37  40
ENDBRANCH   1  37
TORSDOF 16
ENDMDL
MODEL 10
REMARK VINA RESULT:      -4.3      2.326      5.359
REMARK  16 active torsions:
REMARK  status: ('A' for Active; 'I' for Inactive)
REMARK    1  A    between atoms: CBC_6  and  CAS_7 
REMARK    2  A    between atoms: CAS_7  and  CBG_8 
REMARK    3  A    between atoms: CBG_8  and  NAW_9 
REMARK    4  A    between atoms: CBG_8  and  P1_21 
REMARK       I    between atoms: NAW_9  and  CBB_10 
REMARK    5  A    between atoms: CBB_10  and  CBF_12 
REMARK    6  A    between atoms: CBF_12  and  CAR_13 
REMARK    7  A    between atoms: CBF_12  and  NAU_17 
REMARK    8  A    between atoms: CAR_13  and  CAZ_14 
REMARK       I    between atoms: NAU_17  and  CAX_18 
REMARK    9  A    between atoms: CAX_18  and  CAA_19 
REMARK   10  A    between atoms: P1_21  and  CAT_24 
REMARK   11  A    between atoms: CAT_24  and  CBD_25 
REMARK   12  A    between atoms: CBD_25  and  CAB_26 
REMARK   13  A    between atoms: CBD_25  and  CBA_27 
REMARK       I    between atoms: CBA_27  and  N_29 
REMARK   14  A    between atoms: N_29  and  CA_30 
REMARK   15  A    between atoms: CA_30  and  CB_31 
REMARK   16  A    between atoms: CA_30  and  C_32 
REMARK       I    between atoms: C_32  and  NAD_34 
ROOT
ATOM      1  CBG RX4 d          27.705   4.093  44.548  0.00  0.00     0.091 C 
ATOM      2  H8  RX4 d          28.486   4.113  43.773  0.00  0.00     0.089 H 
ENDROOT
BRANCH   1   3
ATOM      3  CAS RX4 d          26.312   4.340  43.853  0.00  0.00    -0.013 C 
ATOM      4  H6  RX4 d          25.942   3.411  43.395  0.00  0.00     0.044 H 
ATOM      5  H7  RX4 d          25.578   4.705  44.586  0.00  0.00     0.044 H 
BRANCH   3   6
ATOM      6  CBC RX4 d          26.570   5.413  42.766  0.00  0.00    -0.056 A 
ATOM      7  CAP RX4 d          25.438   5.822  42.017  0.00  0.00    -0.077 A 
ATOM      8  CAN RX4 d          25.504   6.738  40.976  0.00  0.00    -0.082 A 
ATOM      9  H1  RX4 d          24.473   5.399  42.269  0.00  0.00     0.084 H 
ATOM     10  CAM RX4 d          26.807   7.208  40.695  0.00  0.00    -0.083 A 
ATOM     11  H2  RX4 d          24.630   7.065  40.424  0.00  0.00     0.083 H 
ATOM     12  CAO RX4 d          27.961   6.794  41.402  0.00  0.00    -0.082 A 
ATOM     13  H3  RX4 d          26.930   7.926  39.892  0.00  0.00     0.083 H 
ATOM     14  CAQ RX4 d          27.848   5.875  42.458  0.00  0.00    -0.077 A 
ATOM     15  H4  RX4 d          28.933   7.189  41.129  0.00  0.00     0.083 H 
ATOM     16  H5  RX4 d          28.719   5.539  43.010  0.00  0.00     0.084 H 
ENDBRANCH   3   6
ENDBRANCH   1   3
BRANCH   1  17
ATOM     17  NAW RX4 d          27.724   2.805  45.236  0.00  0.00    -0.345 N 
ATOM     18  CBB RX4 d          27.793   1.703  44.484  0.00  0.00     0.241 C 
ATOM     19  OAI RX4 d          27.902   1.747  43.246  0.00  0.00    -0.271 OA
ATOM     20  H9  RX4 d          27.687   2.751  46.233  0.00  0.00     0.163 HD
BRANCH  18  21
ATOM     21  CBF RX4 d          27.522   0.333  45.128  0.00  0.00     0.098 C 
ATOM     22  H10 RX4 d          28.412  -0.001  45.683  0.00  0.00     0.088 H 
BRANCH  21  23
ATOM     23  CAR RX4 d          27.194  -0.708  44.106  0.00  0.00     0.043 C 
ATOM     24  H11 RX4 d          28.015  -0.803  43.380  0.00  0.00     0.052 H 
ATOM     25  H12 RX4 d          26.265  -0.445  43.578  0.00  0.00     0.052 H 
BRANCH  23  26
ATOM     26  CAZ RX4 d          27.011  -2.032  44.885  0.00  0.00     0.175 C 
ATOM     27  OAK RX4 d          27.940  -2.889  44.886  0.00  0.00    -0.648 OA
ATOM     28  OAG RX4 d          25.966  -2.138  45.522  0.00  0.00    -0.648 OA
ENDBRANCH  23  26
ENDBRANCH  21  23
BRANCH  21  29
ATOM     29  NAU RX4 d          26.395   0.591  46.091  0.00  0.00    -0.348 N 
ATOM     30  CAX RX4 d          25.219   1.126  45.712  0.00  0.00     0.214 C 
ATOM     31  OAE RX4 d          24.967   1.502  44.542  0.00  0.00    -0.274 OA
ATOM     32  H13 RX4 d          26.525   0.356  47.054  0.00  0.00     0.163 HD
BRANCH  30  33
ATOM     33  CAA RX4 d          24.152   1.271  46.837  0.00  0.00    -0.003 C 
ATOM     34  H14 RX4 d          23.336   1.920  46.487  0.00  0.00     0.040 H 
ATOM     35  H15 RX4 d          24.617   1.715  47.729  0.00  0.00     0.040 H 
ATOM     36  H16 RX4 d          23.749   0.279  47.089  0.00  0.00     0.040 H 
ENDBRANCH  30  33
ENDBRANCH  21  29
ENDBRANCH  18  21
ENDBRANCH   1  17
BRANCH   1  37
ATOM     37  P1  RX4 d          28.088   5.320  45.818  0.00  0.00     0.130 P 
ATOM     38  O4  RX4 d          27.162   6.518  45.704  0.00  0.00    -0.666 OA
ATOM     39  O3  RX4 d          29.439   5.975  45.642  0.00  0.00    -0.666 OA
BRANCH  37  40
ATOM     40  CAT RX4 d          27.898   4.516  47.403  0.00  0.00     0.020 C 
ATOM     41  H17 RX4 d          28.259   5.212  48.174  0.00  0.00     0.050 H 
ATOM     42  H18 RX4 d          28.531   3.616  47.397  0.00  0.00     0.050 H 
BRANCH  40  43
ATOM     43  CBD RX4 d          26.481   4.084  47.796  0.00  0.00     0.029 C 
ATOM     44  H19 RX4 d          26.070   3.393  47.045  0.00  0.00     0.054 H 
BRANCH  43  45
ATOM     45  CAB RX4 d          26.397   3.443  49.270  0.00  0.00    -0.064 C 
ATOM     46  H20 RX4 d          25.374   3.550  49.658  0.00  0.00     0.028 H 
ATOM     47  H21 RX4 d          27.099   3.965  49.937  0.00  0.00     0.028 H 
ATOM     48  H22 RX4 d          26.662   2.376  49.222  0.00  0.00     0.028 H 
ENDBRANCH  43  45
BRANCH  43  49
ATOM     49  CBA RX4 d          25.636   5.410  47.916  0.00  0.00     0.222 C 
ATOM     50  OAH RX4 d          25.873   6.224  48.822  0.00  0.00    -0.273 OA
ATOM     51  N   RX4 d          24.620   5.559  47.076  0.00  0.00    -0.348 N 
ATOM     52  H23 RX4 d          24.435   4.875  46.370  0.00  0.00     0.163 HD
BRANCH  51  53
ATOM     53  CA  RX4 d          23.750   6.786  47.211  0.00  0.00     0.086 C 
ATOM     54  H24 RX4 d          24.340   7.656  47.534  0.00  0.00     0.086 H 
BRANCH  53  55
ATOM     55  CB  RX4 d          23.061   7.082  45.871  0.00  0.00    -0.049 C 
ATOM     56  H25 RX4 d          22.291   6.320  45.678  0.00  0.00     0.030 H 
ATOM     57  H26 RX4 d          23.807   7.062  45.063  0.00  0.00     0.030 H 
ATOM     58  H27 RX4 d          22.590   8.075  45.912  0.00  0.00     0.030 H 
ENDBRANCH  53  55
BRANCH  53  59
ATOM     59  C   RX4 d          22.672   6.407  48.283  0.00  0.00     0.237 C 
ATOM     60  O   RX4 d          22.027   5.311  48.161  0.00  0.00    -0.271 OA
ATOM     61  NAD RX4 d          22.497   7.228  49.303  0.00  0.00    -0.368 N 
ATOM     62  H28 RX4 d          21.817   7.015  50.005  0.00  0.00     0.159 HD
ATOM     63  H29 RX4 d          23.044   8.062  49.374  0.00  0.00     0.159 HD
ENDBRANCH  53  59
ENDBRANCH  51  53
ENDBRANCH  43  49
ENDBRANCH  40  43
ENDBRANCH  37  40
ENDBRANCH   1  37
TORSDOF 16
ENDMDL
