MODEL 1
REMARK VINA RESULT:      -6.5      0.000      0.000
REMARK  2 active torsions:
REMARK  status: ('A' for Active; 'I' for Inactive)
REMARK    1  A    between atoms: C0_1  and  C1_2 
REMARK    2  A    between atoms: C0_1  and  N1_3 
ROOT
ATOM      1  C1  ESI d           8.553   0.710  25.351  0.00  0.00     0.049 A 
ATOM      2  S2  ESI d           9.262   1.267  23.838  0.00  0.00    -0.086 SA
ATOM      3  C3  ESI d           9.104   2.947  24.217  0.00  0.00     0.017 A 
ATOM      4  C4  ESI d           8.519   3.040  25.472  0.00  0.00    -0.001 A 
ATOM      5  C5  ESI d           8.226   1.844  26.067  0.00  0.00    -0.050 A 
ATOM      6  C6  ESI d           9.448   4.060  23.486  0.00  0.00    -0.066 A 
ATOM      7  C7  ESI d           9.205   5.310  24.034  0.00  0.00    -0.080 A 
ATOM      8  C8  ESI d           8.630   5.420  25.288  0.00  0.00    -0.066 A 
ATOM      9  C9  ESI d           8.285   4.301  26.024  0.00  0.00     0.018 A 
ATOM     10  I9  ESI d           7.503   4.668  27.861  0.00  0.00    -0.044 I 
ATOM     11  H5  ESI d           7.761   1.789  27.050  0.00  0.00     0.087 H 
ATOM     12  H6  ESI d           9.898   3.963  22.505  0.00  0.00     0.085 H 
ATOM     13  H7  ESI d           9.466   6.203  23.479  0.00  0.00     0.083 H 
ATOM     14  H8  ESI d           8.447   6.404  25.703  0.00  0.00     0.085 H 
ENDROOT
BRANCH   1  15
ATOM     15  C0  ESI d           8.418  -0.625  25.672  0.00  0.00     0.109 C 
ATOM     16  N2  ESI d           8.090  -0.878  26.906  0.00  0.00    -0.385 N 
ATOM     17  H3  ESI d           7.946  -0.104  27.570  0.00  0.00     0.157 HD
ATOM     18  H4  ESI d           7.973  -1.853  27.218  0.00  0.00     0.157 HD
BRANCH  15  19
ATOM     19  N1  ESI d           8.623  -1.521  24.752  0.00  0.00    -0.385 N 
ATOM     20  H1  ESI d           8.014  -1.555  23.921  0.00  0.00     0.157 HD
ATOM     21  H2  ESI d           9.394  -2.196  24.853  0.00  0.00     0.157 HD
ENDBRANCH  15  19
ENDBRANCH   1  15
TORSDOF 2
ENDMDL
MODEL 2
REMARK VINA RESULT:      -4.5      2.120      2.905
REMARK  2 active torsions:
REMARK  status: ('A' for Active; 'I' for Inactive)
REMARK    1  A    between atoms: C0_1  and  C1_2 
REMARK    2  A    between atoms: C0_1  and  N1_3 
ROOT
ATOM      1  C1  ESI d           8.777   1.804  24.862  0.00  0.00     0.049 A 
ATOM      2  S2  ESI d           8.344   1.902  26.567  0.00  0.00    -0.086 SA
ATOM      3  C3  ESI d           8.078   3.611  26.547  0.00  0.00     0.017 A 
ATOM      4  C4  ESI d           8.324   4.059  25.257  0.00  0.00    -0.001 A 
ATOM      5  C5  ESI d           8.700   3.090  24.367  0.00  0.00    -0.050 A 
ATOM      6  C6  ESI d           7.702   4.465  27.558  0.00  0.00    -0.066 A 
ATOM      7  C7  ESI d           7.561   5.812  27.265  0.00  0.00    -0.080 A 
ATOM      8  C8  ESI d           7.795   6.273  25.982  0.00  0.00    -0.066 A 
ATOM      9  C9  ESI d           8.172   5.415  24.964  0.00  0.00     0.018 A 
ATOM     10  I9  ESI d           8.418   6.273  23.141  0.00  0.00    -0.044 I 
ATOM     11  H5  ESI d           8.924   3.321  23.327  0.00  0.00     0.087 H 
ATOM     12  H6  ESI d           7.520   4.093  28.560  0.00  0.00     0.085 H 
ATOM     13  H7  ESI d           7.267   6.506  28.044  0.00  0.00     0.083 H 
ATOM     14  H8  ESI d           7.680   7.330  25.768  0.00  0.00     0.085 H 
ENDROOT
BRANCH   1  15
ATOM     15  C0  ESI d           9.092   0.617  24.234  0.00  0.00     0.109 C 
ATOM     16  N2  ESI d          10.181   0.628  23.520  0.00  0.00    -0.385 N 
ATOM     17  H3  ESI d          10.745   1.487  23.455  0.00  0.00     0.157 HD
ATOM     18  H4  ESI d          10.479  -0.222  23.022  0.00  0.00     0.157 HD
BRANCH  15  19
ATOM     19  N1  ESI d           8.307  -0.408  24.386  0.00  0.00    -0.385 N 
ATOM     20  H1  ESI d           8.696  -1.362  24.373  0.00  0.00     0.157 HD
ATOM     21  H2  ESI d           7.296  -0.267  24.520  0.00  0.00     0.157 HD
ENDBRANCH  15  19
ENDBRANCH   1  15
TORSDOF 2
ENDMDL
MODEL 3
REMARK VINA RESULT:      -4.3      3.323      4.427
REMARK  2 active torsions:
REMARK  status: ('A' for Active; 'I' for Inactive)
REMARK    1  A    between atoms: C0_1  and  C1_2 
REMARK    2  A    between atoms: C0_1  and  N1_3 
ROOT
ATOM      1  C1  ESI d           8.218   4.090  26.068  0.00  0.00     0.049 A 
ATOM      2  S2  ESI d           9.022   4.611  24.589  0.00  0.00    -0.086 SA
ATOM      3  C3  ESI d           9.233   3.010  23.971  0.00  0.00     0.017 A 
ATOM      4  C4  ESI d           8.694   2.129  24.896  0.00  0.00    -0.001 A 
ATOM      5  C5  ESI d           8.158   2.712  26.012  0.00  0.00    -0.050 A 
ATOM      6  C6  ESI d           9.818   2.578  22.803  0.00  0.00    -0.066 A 
ATOM      7  C7  ESI d           9.856   1.216  22.551  0.00  0.00    -0.080 A 
ATOM      8  C8  ESI d           9.315   0.324  23.460  0.00  0.00    -0.066 A 
ATOM      9  C9  ESI d           8.727   0.758  24.634  0.00  0.00     0.018 A 
ATOM     10  I9  ESI d           7.944  -0.698  25.812  0.00  0.00    -0.044 I 
ATOM     11  H5  ESI d           7.710   2.123  26.811  0.00  0.00     0.087 H 
ATOM     12  H6  ESI d          10.238   3.285  22.097  0.00  0.00     0.085 H 
ATOM     13  H7  ESI d          10.311   0.848  21.638  0.00  0.00     0.083 H 
ATOM     14  H8  ESI d           9.353  -0.739  23.247  0.00  0.00     0.085 H 
ENDROOT
BRANCH   1  15
ATOM     15  C0  ESI d           7.754   4.971  27.023  0.00  0.00     0.109 C 
ATOM     16  N2  ESI d           7.193   4.430  28.064  0.00  0.00    -0.385 N 
ATOM     17  H3  ESI d           7.120   3.406  28.137  0.00  0.00     0.157 HD
ATOM     18  H4  ESI d           6.822   5.027  28.818  0.00  0.00     0.157 HD
BRANCH  15  19
ATOM     19  N1  ESI d           7.900   6.249  26.828  0.00  0.00    -0.385 N 
ATOM     20  H1  ESI d           8.259   6.596  25.927  0.00  0.00     0.157 HD
ATOM     21  H2  ESI d           7.656   6.914  27.575  0.00  0.00     0.157 HD
ENDBRANCH  15  19
ENDBRANCH   1  15
TORSDOF 2
ENDMDL
MODEL 4
REMARK VINA RESULT:      -3.8      3.732      5.352
REMARK  2 active torsions:
REMARK  status: ('A' for Active; 'I' for Inactive)
REMARK    1  A    between atoms: C0_1  and  C1_2 
REMARK    2  A    between atoms: C0_1  and  N1_3 
ROOT
ATOM      1  C1  ESI d           9.135   3.253  24.243  0.00  0.00     0.049 A 
ATOM      2  S2  ESI d           8.630   3.103  25.925  0.00  0.00    -0.086 SA
ATOM      3  C3  ESI d           8.401   1.391  25.852  0.00  0.00     0.017 A 
ATOM      4  C4  ESI d           8.710   0.981  24.564  0.00  0.00    -0.001 A 
ATOM      5  C5  ESI d           9.097   1.979  23.712  0.00  0.00    -0.050 A 
ATOM      6  C6  ESI d           7.986   0.507  26.821  0.00  0.00    -0.066 A 
ATOM      7  C7  ESI d           7.885  -0.835  26.490  0.00  0.00    -0.080 A 
ATOM      8  C8  ESI d           8.198  -1.261  25.212  0.00  0.00    -0.066 A 
ATOM      9  C9  ESI d           8.615  -0.373  24.237  0.00  0.00     0.018 A 
ATOM     10  I9  ESI d           9.077  -1.198  22.440  0.00  0.00    -0.044 I 
ATOM     11  H5  ESI d           9.359   1.781  22.674  0.00  0.00     0.087 H 
ATOM     12  H6  ESI d           7.745   0.852  27.821  0.00  0.00     0.085 H 
ATOM     13  H7  ESI d           7.560  -1.552  27.235  0.00  0.00     0.083 H 
ATOM     14  H8  ESI d           8.114  -2.314  24.968  0.00  0.00     0.085 H 
ENDROOT
BRANCH   1  15
ATOM     15  C0  ESI d           9.501   4.454  23.672  0.00  0.00     0.109 C 
ATOM     16  N2  ESI d           9.113   4.635  22.443  0.00  0.00    -0.385 N 
ATOM     17  H3  ESI d           8.567   3.907  21.962  0.00  0.00     0.157 HD
ATOM     18  H4  ESI d           9.351   5.509  21.952  0.00  0.00     0.157 HD
BRANCH  15  19
ATOM     19  N1  ESI d          10.192   5.304  24.373  0.00  0.00    -0.385 N 
ATOM     20  H1  ESI d           9.948   5.477  25.359  0.00  0.00     0.157 HD
ATOM     21  H2  ESI d          10.983   5.803  23.943  0.00  0.00     0.157 HD
ENDBRANCH  15  19
ENDBRANCH   1  15
TORSDOF 2
ENDMDL
