MODEL 1
REMARK VINA RESULT:      -7.3      0.000      0.000
REMARK  3 active torsions:
REMARK  status: ('A' for Active; 'I' for Inactive)
REMARK    1  A    between atoms: C2_2  and  C10_10 
REMARK    2  A    between atoms: C12_12  and  N15_15 
REMARK    3  A    between atoms: N13_13  and  C16_16 
ROOT
ATOM      1  C1  MOL d          -0.346  11.331  -6.334  0.00  0.00    -0.036 A 
ATOM      2  C2  MOL d          -0.809  10.129  -5.736  0.00  0.00    -0.003 A 
ATOM      3  C3  MOL d          -1.777  10.156  -4.680  0.00  0.00    -0.068 A 
ATOM      4  C4  MOL d          -2.323  11.343  -4.178  0.00  0.00    -0.047 A 
ATOM      5  C5  MOL d          -1.889  12.524  -4.746  0.00  0.00     0.105 A 
ATOM      6  C6  MOL d          -0.903  12.517  -5.849  0.00  0.00     0.105 A 
ATOM      7  O7  MOL d          -0.678  13.832  -6.189  0.00  0.00    -0.323 OA
ATOM      8  C8  MOL d          -1.586  14.672  -5.424  0.00  0.00     0.115 C 
ATOM      9  O9  MOL d          -2.215  13.830  -4.450  0.00  0.00    -0.323 OA
ATOM     10  H1  MOL d           0.397  11.328  -7.123  0.00  0.00     0.089 H 
ATOM     11  H2  MOL d          -2.102   9.215  -4.252  0.00  0.00     0.085 H 
ATOM     12  H3  MOL d          -3.054  11.336  -3.378  0.00  0.00     0.087 H 
ATOM     13  H4  MOL d          -2.344  15.113  -6.089  0.00  0.00     0.118 H 
ATOM     14  H5  MOL d          -1.026  15.476  -4.924  0.00  0.00     0.118 H 
ENDROOT
BRANCH   2  15
ATOM     15  C10 MOL d          -0.296   8.801  -6.191  0.00  0.00     0.091 A 
ATOM     16  C11 MOL d          -0.076   7.688  -5.358  0.00  0.00    -0.009 A 
ATOM     17  C12 MOL d           0.393   6.674  -6.194  0.00  0.00     0.119 A 
ATOM     18  H6  MOL d          -0.239   7.629  -4.283  0.00  0.00     0.093 H 
ATOM     19  N13 MOL d           0.457   7.096  -7.455  0.00  0.00    -0.258 N 
ATOM     20  N14 MOL d           0.037   8.448  -7.481  0.00  0.00    -0.171 NA
BRANCH  17  21
ATOM     21  N15 MOL d           0.737   5.402  -5.798  0.00  0.00    -0.384 N 
ATOM     22  H7  MOL d           0.666   5.134  -4.806  0.00  0.00     0.157 HD
ATOM     23  H8  MOL d           1.065   4.716  -6.494  0.00  0.00     0.157 HD
ENDBRANCH  17  21
BRANCH  19  24
ATOM     24  C16 MOL d           0.885   6.477  -8.747  0.00  0.00     0.004 C 
ATOM     25  H9  MOL d           1.628   7.125  -9.236  0.00  0.00     0.059 H 
ATOM     26  H10 MOL d           0.012   6.360  -9.405  0.00  0.00     0.059 H 
ATOM     27  H11 MOL d           1.332   5.491  -8.551  0.00  0.00     0.059 H 
ENDBRANCH  19  24
ENDBRANCH   2  15
TORSDOF 3
ENDMDL
MODEL 2
REMARK VINA RESULT:      -6.8      1.247      2.255
REMARK  3 active torsions:
REMARK  status: ('A' for Active; 'I' for Inactive)
REMARK    1  A    between atoms: C2_2  and  C10_10 
REMARK    2  A    between atoms: C12_12  and  N15_15 
REMARK    3  A    between atoms: N13_13  and  C16_16 
ROOT
ATOM      1  C1  MOL d          -1.429  10.833  -5.297  0.00  0.00    -0.036 A 
ATOM      2  C2  MOL d          -0.367  10.267  -6.050  0.00  0.00    -0.003 A 
ATOM      3  C3  MOL d           0.523  11.095  -6.808  0.00  0.00    -0.068 A 
ATOM      4  C4  MOL d           0.410  12.490  -6.855  0.00  0.00    -0.047 A 
ATOM      5  C5  MOL d          -0.615  13.062  -6.128  0.00  0.00     0.105 A 
ATOM      6  C6  MOL d          -1.534  12.226  -5.325  0.00  0.00     0.105 A 
ATOM      7  O7  MOL d          -2.432  13.082  -4.730  0.00  0.00    -0.323 OA
ATOM      8  C8  MOL d          -2.038  14.450  -5.025  0.00  0.00     0.115 C 
ATOM      9  O9  MOL d          -0.991  14.382  -6.002  0.00  0.00    -0.323 OA
ATOM     10  H1  MOL d          -2.120  10.218  -4.731  0.00  0.00     0.089 H 
ATOM     11  H2  MOL d           1.319  10.621  -7.370  0.00  0.00     0.085 H 
ATOM     12  H3  MOL d           1.096  13.094  -7.437  0.00  0.00     0.087 H 
ATOM     13  H4  MOL d          -1.670  14.942  -4.112  0.00  0.00     0.118 H 
ATOM     14  H5  MOL d          -2.893  15.012  -5.425  0.00  0.00     0.118 H 
ENDROOT
BRANCH   2  15
ATOM     15  C10 MOL d          -0.150   8.788  -6.076  0.00  0.00     0.091 A 
ATOM     16  C11 MOL d          -0.288   7.967  -7.211  0.00  0.00    -0.009 A 
ATOM     17  C12 MOL d           0.013   6.674  -6.783  0.00  0.00     0.119 A 
ATOM     18  H6  MOL d          -0.571   8.277  -8.216  0.00  0.00     0.093 H 
ATOM     19  N13 MOL d           0.329   6.667  -5.490  0.00  0.00    -0.258 N 
ATOM     20  N14 MOL d           0.222   7.995  -5.011  0.00  0.00    -0.171 NA
BRANCH  17  21
ATOM     21  N15 MOL d           0.004   5.546  -7.572  0.00  0.00    -0.384 N 
ATOM     22  H7  MOL d           0.795   5.353  -8.203  0.00  0.00     0.157 HD
ATOM     23  H8  MOL d          -0.793   4.894  -7.531  0.00  0.00     0.157 HD
ENDBRANCH  17  21
BRANCH  19  24
ATOM     24  C16 MOL d           0.714   5.605  -4.511  0.00  0.00     0.004 C 
ATOM     25  H9  MOL d           0.865   6.057  -3.520  0.00  0.00     0.059 H 
ATOM     26  H10 MOL d           1.647   5.123  -4.840  0.00  0.00     0.059 H 
ATOM     27  H11 MOL d          -0.086   4.852  -4.453  0.00  0.00     0.059 H 
ENDBRANCH  19  24
ENDBRANCH   2  15
TORSDOF 3
ENDMDL
MODEL 3
REMARK VINA RESULT:      -6.2      3.900      6.192
REMARK  3 active torsions:
REMARK  status: ('A' for Active; 'I' for Inactive)
REMARK    1  A    between atoms: C2_2  and  C10_10 
REMARK    2  A    between atoms: C12_12  and  N15_15 
REMARK    3  A    between atoms: N13_13  and  C16_16 
ROOT
ATOM      1  C1  MOL d          -0.193   8.683  -6.708  0.00  0.00    -0.036 A 
ATOM      2  C2  MOL d          -0.184  10.100  -6.810  0.00  0.00    -0.003 A 
ATOM      3  C3  MOL d           0.565  10.760  -7.837  0.00  0.00    -0.068 A 
ATOM      4  C4  MOL d           1.321  10.070  -8.791  0.00  0.00    -0.047 A 
ATOM      5  C5  MOL d           1.325   8.692  -8.713  0.00  0.00     0.105 A 
ATOM      6  C6  MOL d           0.544   7.990  -7.671  0.00  0.00     0.105 A 
ATOM      7  O7  MOL d           0.756   6.642  -7.857  0.00  0.00    -0.323 OA
ATOM      8  C8  MOL d           1.545   6.457  -9.064  0.00  0.00     0.115 C 
ATOM      9  O9  MOL d           1.986   7.756  -9.479  0.00  0.00    -0.323 OA
ATOM     10  H1  MOL d          -0.742   8.169  -5.928  0.00  0.00     0.089 H 
ATOM     11  H2  MOL d           0.545  11.843  -7.877  0.00  0.00     0.085 H 
ATOM     12  H3  MOL d           1.880  10.595  -9.558  0.00  0.00     0.087 H 
ATOM     13  H4  MOL d           0.928   5.998  -9.851  0.00  0.00     0.118 H 
ATOM     14  H5  MOL d           2.411   5.813  -8.854  0.00  0.00     0.118 H 
ENDROOT
BRANCH   2  15
ATOM     15  C10 MOL d          -0.955  10.941  -5.844  0.00  0.00     0.091 A 
ATOM     16  C11 MOL d          -1.695  10.452  -4.752  0.00  0.00    -0.009 A 
ATOM     17  C12 MOL d          -2.238  11.575  -4.127  0.00  0.00     0.119 A 
ATOM     18  H6  MOL d          -1.818   9.411  -4.455  0.00  0.00     0.093 H 
ATOM     19  N13 MOL d          -1.868  12.688  -4.756  0.00  0.00    -0.258 N 
ATOM     20  N14 MOL d          -1.062  12.315  -5.859  0.00  0.00    -0.171 NA
BRANCH  17  21
ATOM     21  N15 MOL d          -3.037  11.561  -3.007  0.00  0.00    -0.384 N 
ATOM     22  H7  MOL d          -2.739  12.058  -2.155  0.00  0.00     0.157 HD
ATOM     23  H8  MOL d          -3.935  11.055  -3.019  0.00  0.00     0.157 HD
ENDBRANCH  17  21
BRANCH  19  24
ATOM     24  C16 MOL d          -2.145  14.144  -4.559  0.00  0.00     0.004 C 
ATOM     25  H9  MOL d          -2.542  14.308  -3.546  0.00  0.00     0.059 H 
ATOM     26  H10 MOL d          -2.883  14.482  -5.301  0.00  0.00     0.059 H 
ATOM     27  H11 MOL d          -1.212  14.715  -4.683  0.00  0.00     0.059 H 
ENDBRANCH  19  24
ENDBRANCH   2  15
TORSDOF 3
ENDMDL
MODEL 4
REMARK VINA RESULT:      -6.2      3.593      6.021
REMARK  3 active torsions:
REMARK  status: ('A' for Active; 'I' for Inactive)
REMARK    1  A    between atoms: C2_2  and  C10_10 
REMARK    2  A    between atoms: C12_12  and  N15_15 
REMARK    3  A    between atoms: N13_13  and  C16_16 
ROOT
ATOM      1  C1  MOL d           0.139   9.362  -7.524  0.00  0.00    -0.036 A 
ATOM      2  C2  MOL d          -0.374   9.107  -6.225  0.00  0.00    -0.003 A 
ATOM      3  C3  MOL d          -0.212   7.825  -5.606  0.00  0.00    -0.068 A 
ATOM      4  C4  MOL d           0.452   6.759  -6.225  0.00  0.00    -0.047 A 
ATOM      5  C5  MOL d           0.962   6.985  -7.488  0.00  0.00     0.105 A 
ATOM      6  C6  MOL d           0.820   8.307  -8.138  0.00  0.00     0.105 A 
ATOM      7  O7  MOL d           1.422   8.209  -9.372  0.00  0.00    -0.323 OA
ATOM      8  C8  MOL d           2.056   6.905  -9.479  0.00  0.00     0.115 C 
ATOM      9  O9  MOL d           1.627   6.138  -8.347  0.00  0.00    -0.323 OA
ATOM     10  H1  MOL d           0.011  10.321  -8.012  0.00  0.00     0.089 H 
ATOM     11  H2  MOL d          -0.621   7.674  -4.613  0.00  0.00     0.085 H 
ATOM     12  H3  MOL d           0.561   5.799  -5.734  0.00  0.00     0.087 H 
ATOM     13  H4  MOL d           3.151   7.016  -9.468  0.00  0.00     0.118 H 
ATOM     14  H5  MOL d           1.747   6.410 -10.411  0.00  0.00     0.118 H 
ENDROOT
BRANCH   2  15
ATOM     15  C10 MOL d          -1.102  10.170  -5.468  0.00  0.00     0.091 A 
ATOM     16  C11 MOL d          -1.892   9.955  -4.323  0.00  0.00    -0.009 A 
ATOM     17  C12 MOL d          -2.369  11.211  -3.948  0.00  0.00     0.119 A 
ATOM     18  H6  MOL d          -2.090   9.004  -3.830  0.00  0.00     0.093 H 
ATOM     19  N13 MOL d          -1.915  12.152  -4.773  0.00  0.00    -0.258 N 
ATOM     20  N14 MOL d          -1.117  11.518  -5.756  0.00  0.00    -0.171 NA
BRANCH  17  21
ATOM     21  N15 MOL d          -3.186  11.471  -2.871  0.00  0.00    -0.384 N 
ATOM     22  H7  MOL d          -3.839  10.749  -2.534  0.00  0.00     0.157 HD
ATOM     23  H8  MOL d          -3.145  12.387  -2.402  0.00  0.00     0.157 HD
ENDBRANCH  17  21
BRANCH  19  24
ATOM     24  C16 MOL d          -2.096  13.633  -4.874  0.00  0.00     0.004 C 
ATOM     25  H9  MOL d          -2.129  14.069  -3.865  0.00  0.00     0.059 H 
ATOM     26  H10 MOL d          -3.038  13.852  -5.399  0.00  0.00     0.059 H 
ATOM     27  H11 MOL d          -1.255  14.068  -5.434  0.00  0.00     0.059 H 
ENDBRANCH  19  24
ENDBRANCH   2  15
TORSDOF 3
ENDMDL
