MODEL 1
REMARK VINA RESULT:      -8.2      0.000      0.000
REMARK  10 active torsions:
REMARK  status: ('A' for Active; 'I' for Inactive)
REMARK    1  A    between atoms: C3_3  and  O3_4 
REMARK    2  A    between atoms: O3_4  and  C1X_29 
REMARK    3  A    between atoms: C10_11  and  C19_22 
REMARK    4  A    between atoms: C12_13  and  O12_14 
REMARK    5  A    between atoms: C13_15  and  C18_21 
REMARK    6  A    between atoms: C14_16  and  O14_17 
REMARK    7  A    between atoms: C17_20  and  C20_23 
REMARK    8  A    between atoms: C3X_31  and  O3X_32 
REMARK    9  A    between atoms: C4X_33  and  O4X_34 
REMARK   10  A    between atoms: C5X_35  and  C6X_37 
ROOT
ATOM      1  C1  DGX d         -12.513  30.846  29.518  0.00  0.00    -0.055 C 
ATOM      2  C2  DGX d         -13.868  31.192  28.906  0.00  0.00    -0.040 C 
ATOM      3  C3  DGX d         -14.995  31.000  29.912  0.00  0.00     0.042 C 
ATOM      4  C4  DGX d         -15.048  29.540  30.334  0.00  0.00    -0.037 C 
ATOM      5  C5  DGX d         -13.737  29.151  31.007  0.00  0.00    -0.044 C 
ATOM      6  C6  DGX d         -13.789  27.748  31.595  0.00  0.00    -0.060 C 
ATOM      7  C7  DGX d         -13.766  26.687  30.506  0.00  0.00    -0.058 C 
ATOM      8  C8  DGX d         -12.546  26.882  29.605  0.00  0.00    -0.019 C 
ATOM      9  C9  DGX d         -12.440  28.301  29.037  0.00  0.00    -0.038 C 
ATOM     10  C10 DGX d         -12.485  29.427  30.112  0.00  0.00    -0.036 C 
ATOM     11  C11 DGX d         -11.193  28.411  28.177  0.00  0.00    -0.036 C 
ATOM     12  C12 DGX d         -11.271  27.403  27.049  0.00  0.00     0.046 C 
ATOM     13  C13 DGX d         -11.253  25.938  27.569  0.00  0.00     0.021 C 
ATOM     14  C14 DGX d         -12.464  25.746  28.547  0.00  0.00     0.072 C 
ATOM     15  C15 DGX d         -13.671  25.582  27.602  0.00  0.00    -0.035 C 
ATOM     16  C16 DGX d         -13.147  25.014  26.283  0.00  0.00    -0.054 C 
ATOM     17  C17 DGX d         -11.615  25.088  26.311  0.00  0.00    -0.018 C 
ATOM     18  H1  DGX d         -11.743  30.919  28.736  0.00  0.00     0.034 H 
ATOM     19  H2  DGX d         -12.292  31.569  30.317  0.00  0.00     0.034 H 
ATOM     20  H3  DGX d         -14.047  30.539  28.039  0.00  0.00     0.036 H 
ATOM     21  H4  DGX d         -13.856  32.241  28.578  0.00  0.00     0.036 H 
ATOM     22  H5  DGX d         -15.950  31.290  29.451  0.00  0.00     0.083 H 
ATOM     23  H6  DGX d         -15.205  28.909  29.447  0.00  0.00     0.037 H 
ATOM     24  H7  DGX d         -15.879  29.394  31.040  0.00  0.00     0.037 H 
ATOM     25  H8  DGX d         -13.632  29.826  31.869  0.00  0.00     0.041 H 
ATOM     26  H9  DGX d         -14.715  27.639  32.179  0.00  0.00     0.033 H 
ATOM     27  H10 DGX d         -12.920  27.603  32.253  0.00  0.00     0.033 H 
ATOM     28  H11 DGX d         -14.681  26.767  29.901  0.00  0.00     0.033 H 
ATOM     29  H12 DGX d         -13.720  25.691  30.970  0.00  0.00     0.033 H 
ATOM     30  H13 DGX d         -11.664  26.758  30.250  0.00  0.00     0.045 H 
ATOM     31  H14 DGX d         -13.312  28.453  28.384  0.00  0.00     0.042 H 
ATOM     32  H15 DGX d         -10.304  28.206  28.791  0.00  0.00     0.037 H 
ATOM     33  H16 DGX d         -11.124  29.426  27.758  0.00  0.00     0.037 H 
ATOM     34  H17 DGX d         -12.236  27.555  26.544  0.00  0.00     0.084 H 
ATOM     35  H20 DGX d         -14.147  26.558  27.428  0.00  0.00     0.037 H 
ATOM     36  H21 DGX d         -14.403  24.891  28.043  0.00  0.00     0.037 H 
ATOM     37  H22 DGX d         -13.533  25.606  25.441  0.00  0.00     0.034 H 
ATOM     38  H23 DGX d         -13.468  23.968  26.173  0.00  0.00     0.034 H 
ATOM     39  H24 DGX d         -11.319  25.688  25.437  0.00  0.00     0.048 H 
ENDROOT
BRANCH   3  40
ATOM     40  O3  DGX d         -14.764  31.796  31.086  0.00  0.00    -0.356 OA
BRANCH  40  41
ATOM     41  C1X DGX d         -15.820  32.651  31.533  0.00  0.00     0.134 C 
ATOM     42  O5X DGX d         -16.990  32.298  30.811  0.00  0.00    -0.354 OA
ATOM     43  C5X DGX d         -18.153  33.045  31.103  0.00  0.00     0.065 C 
ATOM     44  C4X DGX d         -17.896  34.553  30.938  0.00  0.00     0.085 C 
ATOM     45  H41 DGX d         -18.508  32.843  32.123  0.00  0.00     0.086 H 
ATOM     46  C3X DGX d         -16.610  35.024  31.625  0.00  0.00     0.067 C 
ATOM     47  H39 DGX d         -17.819  34.776  29.864  0.00  0.00     0.090 H 
ATOM     48  C2X DGX d         -15.471  34.104  31.204  0.00  0.00     0.007 C 
ATOM     49  H37 DGX d         -16.381  36.043  31.281  0.00  0.00     0.087 H 
ATOM     50  H35 DGX d         -15.306  34.202  30.121  0.00  0.00     0.044 H 
ATOM     51  H36 DGX d         -14.555  34.389  31.742  0.00  0.00     0.044 H 
ATOM     52  H34 DGX d         -15.980  32.533  32.615  0.00  0.00     0.129 H 
BRANCH  43  53
ATOM     53  C6X DGX d         -19.144  32.542  30.070  0.00  0.00    -0.050 C 
ATOM     54  H42 DGX d         -19.240  33.283  29.263  0.00  0.00     0.031 H 
ATOM     55  H43 DGX d         -20.123  32.388  30.546  0.00  0.00     0.031 H 
ATOM     56  H44 DGX d         -18.786  31.590  29.652  0.00  0.00     0.031 H 
ENDBRANCH  43  53
BRANCH  44  57
ATOM     57  O4X DGX d         -19.004  35.278  31.495  0.00  0.00    -0.390 OA
ATOM     58  H40 DGX d         -19.137  35.006  32.396  0.00  0.00     0.210 HD
ENDBRANCH  44  57
BRANCH  46  59
ATOM     59  O3X DGX d         -16.769  35.063  33.060  0.00  0.00    -0.393 OA
ATOM     60  H38 DGX d         -17.363  35.767  33.292  0.00  0.00     0.210 HD
ENDBRANCH  46  59
ENDBRANCH  40  41
ENDBRANCH   3  40
BRANCH  10  61
ATOM     61  C19 DGX d         -11.183  29.470  30.932  0.00  0.00    -0.068 C 
ATOM     62  H28 DGX d         -10.413  28.866  30.429  0.00  0.00     0.028 H 
ATOM     63  H29 DGX d         -11.370  29.064  31.936  0.00  0.00     0.028 H 
ATOM     64  H30 DGX d         -10.837  30.510  31.016  0.00  0.00     0.028 H 
ENDBRANCH  10  61
BRANCH  14  65
ATOM     65  O14 DGX d         -12.374  24.486  29.264  0.00  0.00    -0.389 OA
ATOM     66  H19 DGX d         -13.246  24.196  29.502  0.00  0.00     0.210 HD
ENDBRANCH  14  65
BRANCH  12  67
ATOM     67  O12 DGX d         -10.245  27.632  26.078  0.00  0.00    -0.395 OA
ATOM     68  H18 DGX d          -9.537  28.125  26.477  0.00  0.00     0.210 HD
ENDBRANCH  12  67
BRANCH  13  69
ATOM     69  C18 DGX d          -9.893  25.632  28.237  0.00  0.00    -0.063 C 
ATOM     70  H25 DGX d          -9.553  26.514  28.798  0.00  0.00     0.028 H 
ATOM     71  H26 DGX d          -9.152  25.382  27.463  0.00  0.00     0.028 H 
ATOM     72  H27 DGX d         -10.005  24.781  28.924  0.00  0.00     0.028 H 
ENDBRANCH  13  69
BRANCH  17  73
ATOM     73  C20 DGX d         -10.878  23.796  26.136  0.00  0.00    -0.045 A 
ATOM     74  C22 DGX d          -9.748  23.574  25.450  0.00  0.00    -0.006 A 
ATOM     75  C23 DGX d          -9.337  22.197  25.648  0.00  0.00     0.283 A 
ATOM     76  H33 DGX d          -9.222  24.310  24.841  0.00  0.00     0.093 H 
ATOM     77  O21 DGX d         -10.191  21.602  26.481  0.00  0.00    -0.314 OA
ATOM     78  O23 DGX d          -8.355  21.594  25.235  0.00  0.00    -0.260 OA
ATOM     79  C21 DGX d         -11.257  22.527  26.795  0.00  0.00     0.050 A 
ATOM     80  H31 DGX d         -12.215  22.159  26.401  0.00  0.00     0.082 H 
ATOM     81  H32 DGX d         -11.339  22.667  27.883  0.00  0.00     0.082 H 
ENDBRANCH  17  73
TORSDOF 10
ENDMDL
MODEL 2
REMARK VINA RESULT:      -7.3      2.474      3.762
REMARK  10 active torsions:
REMARK  status: ('A' for Active; 'I' for Inactive)
REMARK    1  A    between atoms: C3_3  and  O3_4 
REMARK    2  A    between atoms: O3_4  and  C1X_29 
REMARK    3  A    between atoms: C10_11  and  C19_22 
REMARK    4  A    between atoms: C12_13  and  O12_14 
REMARK    5  A    between atoms: C13_15  and  C18_21 
REMARK    6  A    between atoms: C14_16  and  O14_17 
REMARK    7  A    between atoms: C17_20  and  C20_23 
REMARK    8  A    between atoms: C3X_31  and  O3X_32 
REMARK    9  A    between atoms: C4X_33  and  O4X_34 
REMARK   10  A    between atoms: C5X_35  and  C6X_37 
ROOT
ATOM      1  C1  DGX d         -11.355  31.325  29.050  0.00  0.00    -0.055 C 
ATOM      2  C2  DGX d         -12.712  31.785  28.523  0.00  0.00    -0.040 C 
ATOM      3  C3  DGX d         -13.760  31.796  29.629  0.00  0.00     0.042 C 
ATOM      4  C4  DGX d         -13.938  30.385  30.165  0.00  0.00    -0.037 C 
ATOM      5  C5  DGX d         -12.624  29.890  30.759  0.00  0.00    -0.044 C 
ATOM      6  C6  DGX d         -12.781  28.546  31.456  0.00  0.00    -0.060 C 
ATOM      7  C7  DGX d         -12.973  27.418  30.454  0.00  0.00    -0.058 C 
ATOM      8  C8  DGX d         -11.823  27.407  29.446  0.00  0.00    -0.019 C 
ATOM      9  C9  DGX d         -11.610  28.762  28.763  0.00  0.00    -0.038 C 
ATOM     10  C10 DGX d         -11.433  29.956  29.747  0.00  0.00    -0.036 C 
ATOM     11  C11 DGX d         -10.440  28.665  27.799  0.00  0.00    -0.036 C 
ATOM     12  C12 DGX d         -10.729  27.600  26.763  0.00  0.00     0.046 C 
ATOM     13  C13 DGX d         -10.830  26.182  27.392  0.00  0.00     0.021 C 
ATOM     14  C14 DGX d         -11.963  26.200  28.476  0.00  0.00     0.072 C 
ATOM     15  C15 DGX d         -13.259  26.116  27.646  0.00  0.00    -0.035 C 
ATOM     16  C16 DGX d         -12.921  25.403  26.337  0.00  0.00    -0.054 C 
ATOM     17  C17 DGX d         -11.394  25.297  26.236  0.00  0.00    -0.018 C 
ATOM     18  H1  DGX d         -10.654  31.253  28.205  0.00  0.00     0.034 H 
ATOM     19  H2  DGX d         -10.985  32.069  29.770  0.00  0.00     0.034 H 
ATOM     20  H3  DGX d         -13.039  31.101  27.727  0.00  0.00     0.036 H 
ATOM     21  H4  DGX d         -12.611  32.802  28.116  0.00  0.00     0.036 H 
ATOM     22  H5  DGX d         -14.713  32.165  29.225  0.00  0.00     0.083 H 
ATOM     23  H6  DGX d         -14.243  29.718  29.345  0.00  0.00     0.037 H 
ATOM     24  H7  DGX d         -14.714  30.386  30.945  0.00  0.00     0.037 H 
ATOM     25  H8  DGX d         -12.369  30.605  31.555  0.00  0.00     0.041 H 
ATOM     26  H9  DGX d         -13.657  28.587  32.120  0.00  0.00     0.033 H 
ATOM     27  H10 DGX d         -11.878  28.345  32.052  0.00  0.00     0.033 H 
ATOM     28  H11 DGX d         -13.923  27.565  29.920  0.00  0.00     0.033 H 
ATOM     29  H12 DGX d         -12.998  26.457  30.989  0.00  0.00     0.033 H 
ATOM     30  H13 DGX d         -10.907  27.223  30.025  0.00  0.00     0.045 H 
ATOM     31  H14 DGX d         -12.514  28.971  28.172  0.00  0.00     0.042 H 
ATOM     32  H15 DGX d          -9.528  28.399  28.355  0.00  0.00     0.037 H 
ATOM     33  H16 DGX d         -10.295  29.634  27.299  0.00  0.00     0.037 H 
ATOM     34  H17 DGX d         -11.712  27.831  26.327  0.00  0.00     0.084 H 
ATOM     35  H20 DGX d         -13.637  27.128  27.436  0.00  0.00     0.037 H 
ATOM     36  H21 DGX d         -14.023  25.548  28.197  0.00  0.00     0.037 H 
ATOM     37  H22 DGX d         -13.312  25.978  25.486  0.00  0.00     0.034 H 
ATOM     38  H23 DGX d         -13.366  24.396  26.335  0.00  0.00     0.034 H 
ATOM     39  H24 DGX d         -11.112  25.797  25.298  0.00  0.00     0.048 H 
ENDROOT
BRANCH   3  40
ATOM     40  O3  DGX d         -13.338  32.637  30.716  0.00  0.00    -0.356 OA
BRANCH  40  41
ATOM     41  C1X DGX d         -12.010  33.168  30.675  0.00  0.00     0.134 C 
ATOM     42  O5X DGX d         -11.344  32.741  31.854  0.00  0.00    -0.354 OA
ATOM     43  C5X DGX d         -10.009  33.178  32.009  0.00  0.00     0.065 C 
ATOM     44  C4X DGX d          -9.913  34.709  31.903  0.00  0.00     0.085 C 
ATOM     45  H41 DGX d          -9.351  32.716  31.258  0.00  0.00     0.086 H 
ATOM     46  C3X DGX d         -10.666  35.278  30.695  0.00  0.00     0.067 C 
ATOM     47  H39 DGX d         -10.339  35.148  32.817  0.00  0.00     0.090 H 
ATOM     48  C2X DGX d         -12.073  34.696  30.683  0.00  0.00     0.007 C 
ATOM     49  H37 DGX d         -10.740  36.370  30.809  0.00  0.00     0.087 H 
ATOM     50  H35 DGX d         -12.613  35.034  31.580  0.00  0.00     0.044 H 
ATOM     51  H36 DGX d         -12.603  35.043  29.784  0.00  0.00     0.044 H 
ATOM     52  H34 DGX d         -11.480  32.813  29.778  0.00  0.00     0.129 H 
BRANCH  43  53
ATOM     53  C6X DGX d          -9.660  32.703  33.407  0.00  0.00    -0.050 C 
ATOM     54  H42 DGX d          -9.573  33.570  34.077  0.00  0.00     0.031 H 
ATOM     55  H43 DGX d          -8.703  32.161  33.381  0.00  0.00     0.031 H 
ATOM     56  H44 DGX d         -10.451  32.033  33.774  0.00  0.00     0.031 H 
ENDBRANCH  43  53
BRANCH  44  57
ATOM     57  O4X DGX d          -8.530  35.083  31.797  0.00  0.00    -0.390 OA
ATOM     58  H40 DGX d          -8.240  34.966  30.900  0.00  0.00     0.210 HD
ENDBRANCH  44  57
BRANCH  46  59
ATOM     59  O3X DGX d          -9.959  35.006  29.464  0.00  0.00    -0.393 OA
ATOM     60  H38 DGX d          -9.921  34.068  29.324  0.00  0.00     0.210 HD
ENDBRANCH  46  59
ENDBRANCH  40  41
ENDBRANCH   3  40
BRANCH  10  61
ATOM     61  C19 DGX d         -10.068  29.900  30.455  0.00  0.00    -0.068 C 
ATOM     62  H28 DGX d          -9.348  29.361  29.821  0.00  0.00     0.028 H 
ATOM     63  H29 DGX d         -10.173  29.376  31.416  0.00  0.00     0.028 H 
ATOM     64  H30 DGX d          -9.705  30.923  30.633  0.00  0.00     0.028 H 
ENDBRANCH  10  61
BRANCH  14  65
ATOM     65  O14 DGX d         -11.951  24.989  29.278  0.00  0.00    -0.389 OA
ATOM     66  H19 DGX d         -12.837  24.784  29.552  0.00  0.00     0.210 HD
ENDBRANCH  14  65
BRANCH  12  67
ATOM     67  O12 DGX d          -9.774  27.640  25.698  0.00  0.00    -0.395 OA
ATOM     68  H18 DGX d          -9.084  27.010  25.869  0.00  0.00     0.210 HD
ENDBRANCH  12  67
BRANCH  13  69
ATOM     69  C18 DGX d          -9.458  25.763  27.970  0.00  0.00    -0.063 C 
ATOM     70  H25 DGX d          -9.599  24.947  28.694  0.00  0.00     0.028 H 
ATOM     71  H26 DGX d          -8.994  26.623  28.473  0.00  0.00     0.028 H 
ATOM     72  H27 DGX d          -8.806  25.419  27.154  0.00  0.00     0.028 H 
ENDBRANCH  13  69
BRANCH  17  73
ATOM     73  C20 DGX d         -10.825  23.918  26.103  0.00  0.00    -0.045 A 
ATOM     74  C22 DGX d          -9.653  23.556  25.562  0.00  0.00    -0.006 A 
ATOM     75  C23 DGX d          -9.467  22.130  25.752  0.00  0.00     0.283 A 
ATOM     76  H33 DGX d          -8.954  24.224  25.060  0.00  0.00     0.093 H 
ATOM     77  O21 DGX d         -10.499  21.642  26.440  0.00  0.00    -0.314 OA
ATOM     78  O23 DGX d          -8.530  21.404  25.445  0.00  0.00    -0.260 OA
ATOM     79  C21 DGX d         -11.461  22.700  26.651  0.00  0.00     0.050 A 
ATOM     80  H31 DGX d         -12.398  22.481  26.119  0.00  0.00     0.082 H 
ATOM     81  H32 DGX d         -11.669  22.824  27.724  0.00  0.00     0.082 H 
ENDBRANCH  17  73
TORSDOF 10
ENDMDL
MODEL 3
REMARK VINA RESULT:      -7.0      1.370      2.135
REMARK  10 active torsions:
REMARK  status: ('A' for Active; 'I' for Inactive)
REMARK    1  A    between atoms: C3_3  and  O3_4 
REMARK    2  A    between atoms: O3_4  and  C1X_29 
REMARK    3  A    between atoms: C10_11  and  C19_22 
REMARK    4  A    between atoms: C12_13  and  O12_14 
REMARK    5  A    between atoms: C13_15  and  C18_21 
REMARK    6  A    between atoms: C14_16  and  O14_17 
REMARK    7  A    between atoms: C17_20  and  C20_23 
REMARK    8  A    between atoms: C3X_31  and  O3X_32 
REMARK    9  A    between atoms: C4X_33  and  O4X_34 
REMARK   10  A    between atoms: C5X_35  and  C6X_37 
ROOT
ATOM      1  C1  DGX d         -13.888  29.908  29.764  0.00  0.00    -0.055 C 
ATOM      2  C2  DGX d         -15.286  30.013  29.160  0.00  0.00    -0.040 C 
ATOM      3  C3  DGX d         -16.352  29.563  30.150  0.00  0.00     0.042 C 
ATOM      4  C4  DGX d         -16.122  28.104  30.507  0.00  0.00    -0.037 C 
ATOM      5  C5  DGX d         -14.758  27.945  31.170  0.00  0.00    -0.044 C 
ATOM      6  C6  DGX d         -14.538  26.533  31.696  0.00  0.00    -0.060 C 
ATOM      7  C7  DGX d         -14.314  25.545  30.561  0.00  0.00    -0.058 C 
ATOM      8  C8  DGX d         -13.157  26.011  29.677  0.00  0.00    -0.019 C 
ATOM      9  C9  DGX d         -13.328  27.448  29.173  0.00  0.00    -0.038 C 
ATOM     10  C10 DGX d         -13.585  28.496  30.295  0.00  0.00    -0.036 C 
ATOM     11  C11 DGX d         -12.128  27.833  28.325  0.00  0.00    -0.036 C 
ATOM     12  C12 DGX d         -12.013  26.881  27.153  0.00  0.00     0.046 C 
ATOM     13  C13 DGX d         -11.712  25.425  27.609  0.00  0.00     0.021 C 
ATOM     14  C14 DGX d         -12.861  24.960  28.571  0.00  0.00     0.072 C 
ATOM     15  C15 DGX d         -14.016  24.609  27.612  0.00  0.00    -0.035 C 
ATOM     16  C16 DGX d         -13.396  24.211  26.273  0.00  0.00    -0.054 C 
ATOM     17  C17 DGX d         -11.907  24.577  26.312  0.00  0.00    -0.018 C 
ATOM     18  H1  DGX d         -13.148  30.161  28.991  0.00  0.00     0.034 H 
ATOM     19  H2  DGX d         -13.808  30.623  30.596  0.00  0.00     0.034 H 
ATOM     20  H3  DGX d         -15.338  29.377  28.264  0.00  0.00     0.036 H 
ATOM     21  H4  DGX d         -15.476  31.059  28.879  0.00  0.00     0.036 H 
ATOM     22  H5  DGX d         -17.346  29.685  29.697  0.00  0.00     0.083 H 
ATOM     23  H6  DGX d         -16.157  27.494  29.593  0.00  0.00     0.037 H 
ATOM     24  H7  DGX d         -16.907  27.770  31.202  0.00  0.00     0.037 H 
ATOM     25  H8  DGX d         -14.783  28.588  32.062  0.00  0.00     0.041 H 
ATOM     26  H9  DGX d         -15.424  26.223  32.270  0.00  0.00     0.033 H 
ATOM     27  H10 DGX d         -13.656  26.529  32.352  0.00  0.00     0.033 H 
ATOM     28  H11 DGX d         -15.229  25.475  29.955  0.00  0.00     0.033 H 
ATOM     29  H12 DGX d         -14.076  24.557  30.981  0.00  0.00     0.033 H 
ATOM     30  H13 DGX d         -12.265  26.031  30.320  0.00  0.00     0.045 H 
ATOM     31  H14 DGX d         -14.214  27.458  28.521  0.00  0.00     0.042 H 
ATOM     32  H15 DGX d         -11.214  27.776  28.935  0.00  0.00     0.037 H 
ATOM     33  H16 DGX d         -12.256  28.860  27.952  0.00  0.00     0.037 H 
ATOM     34  H17 DGX d         -12.991  26.867  26.650  0.00  0.00     0.084 H 
ATOM     35  H20 DGX d         -14.672  25.482  27.478  0.00  0.00     0.037 H 
ATOM     36  H21 DGX d         -14.601  23.771  28.018  0.00  0.00     0.037 H 
ATOM     37  H22 DGX d         -13.892  24.755  25.455  0.00  0.00     0.034 H 
ATOM     38  H23 DGX d         -13.511  23.129  26.115  0.00  0.00     0.034 H 
ATOM     39  H24 DGX d         -11.735  25.261  25.468  0.00  0.00     0.048 H 
ENDROOT
BRANCH   3  40
ATOM     40  O3  DGX d         -16.275  30.336  31.360  0.00  0.00    -0.356 OA
BRANCH  40  41
ATOM     41  C1X DGX d         -15.683  31.637  31.287  0.00  0.00     0.134 C 
ATOM     42  O5X DGX d         -14.584  31.656  32.184  0.00  0.00    -0.354 OA
ATOM     43  C5X DGX d         -13.868  32.872  32.268  0.00  0.00     0.065 C 
ATOM     44  C4X DGX d         -14.807  34.044  32.598  0.00  0.00     0.085 C 
ATOM     45  H41 DGX d         -13.334  33.083  31.330  0.00  0.00     0.086 H 
ATOM     46  C3X DGX d         -16.068  34.070  31.727  0.00  0.00     0.067 C 
ATOM     47  H39 DGX d         -15.114  33.957  33.651  0.00  0.00     0.090 H 
ATOM     48  C2X DGX d         -16.699  32.684  31.747  0.00  0.00     0.007 C 
ATOM     49  H37 DGX d         -16.782  34.785  32.162  0.00  0.00     0.087 H 
ATOM     50  H35 DGX d         -17.027  32.448  32.770  0.00  0.00     0.044 H 
ATOM     51  H36 DGX d         -17.567  32.669  31.072  0.00  0.00     0.044 H 
ATOM     52  H34 DGX d         -15.352  31.852  30.260  0.00  0.00     0.129 H 
BRANCH  43  53
ATOM     53  C6X DGX d         -12.896  32.612  33.404  0.00  0.00    -0.050 C 
ATOM     54  H42 DGX d         -11.866  32.755  33.045  0.00  0.00     0.031 H 
ATOM     55  H43 DGX d         -13.019  31.580  33.763  0.00  0.00     0.031 H 
ATOM     56  H44 DGX d         -13.098  33.313  34.227  0.00  0.00     0.031 H 
ENDBRANCH  43  53
BRANCH  44  57
ATOM     57  O4X DGX d         -14.097  35.278  32.410  0.00  0.00    -0.390 OA
ATOM     58  H40 DGX d         -13.850  35.631  33.256  0.00  0.00     0.210 HD
ENDBRANCH  44  57
BRANCH  46  59
ATOM     59  O3X DGX d         -15.765  34.505  30.383  0.00  0.00    -0.393 OA
ATOM     60  H38 DGX d         -16.466  34.242  29.800  0.00  0.00     0.210 HD
ENDBRANCH  46  59
ENDBRANCH  40  41
ENDBRANCH   3  40
BRANCH  10  61
ATOM     61  C19 DGX d         -12.314  28.752  31.124  0.00  0.00    -0.068 C 
ATOM     62  H28 DGX d         -12.370  28.185  32.065  0.00  0.00     0.028 H 
ATOM     63  H29 DGX d         -12.232  29.825  31.348  0.00  0.00     0.028 H 
ATOM     64  H30 DGX d         -11.432  28.428  30.552  0.00  0.00     0.028 H 
ENDBRANCH  10  61
BRANCH  14  65
ATOM     65  O14 DGX d         -12.528  23.710  29.231  0.00  0.00    -0.389 OA
ATOM     66  H19 DGX d         -12.492  23.850  30.170  0.00  0.00     0.210 HD
ENDBRANCH  14  65
BRANCH  12  67
ATOM     67  O12 DGX d         -11.053  27.345  26.200  0.00  0.00    -0.395 OA
ATOM     68  H18 DGX d         -10.499  28.003  26.604  0.00  0.00     0.210 HD
ENDBRANCH  12  67
BRANCH  13  69
ATOM     69  C18 DGX d         -10.317  25.356  28.271  0.00  0.00    -0.063 C 
ATOM     70  H25 DGX d          -9.603  24.892  27.574  0.00  0.00     0.028 H 
ATOM     71  H26 DGX d         -10.376  24.755  29.190  0.00  0.00     0.028 H 
ATOM     72  H27 DGX d          -9.978  26.372  28.519  0.00  0.00     0.028 H 
ENDBRANCH  13  69
BRANCH  17  73
ATOM     73  C20 DGX d         -10.936  23.460  26.085  0.00  0.00    -0.045 A 
ATOM     74  C22 DGX d          -9.756  23.506  25.451  0.00  0.00    -0.006 A 
ATOM     75  C23 DGX d          -9.106  22.215  25.571  0.00  0.00     0.283 A 
ATOM     76  H33 DGX d          -9.350  24.373  24.931  0.00  0.00     0.093 H 
ATOM     77  O21 DGX d          -9.869  21.407  26.306  0.00  0.00    -0.314 OA
ATOM     78  O23 DGX d          -8.011  21.837  25.171  0.00  0.00    -0.260 OA
ATOM     79  C21 DGX d         -11.101  22.093  26.625  0.00  0.00     0.050 A 
ATOM     80  H31 DGX d         -11.956  21.591  26.149  0.00  0.00     0.082 H 
ATOM     81  H32 DGX d         -11.255  22.124  27.714  0.00  0.00     0.082 H 
ENDBRANCH  17  73
TORSDOF 10
ENDMDL
MODEL 4
REMARK VINA RESULT:      -6.7      1.334      1.692
REMARK  10 active torsions:
REMARK  status: ('A' for Active; 'I' for Inactive)
REMARK    1  A    between atoms: C3_3  and  O3_4 
REMARK    2  A    between atoms: O3_4  and  C1X_29 
REMARK    3  A    between atoms: C10_11  and  C19_22 
REMARK    4  A    between atoms: C12_13  and  O12_14 
REMARK    5  A    between atoms: C13_15  and  C18_21 
REMARK    6  A    between atoms: C14_16  and  O14_17 
REMARK    7  A    between atoms: C17_20  and  C20_23 
REMARK    8  A    between atoms: C3X_31  and  O3X_32 
REMARK    9  A    between atoms: C4X_33  and  O4X_34 
REMARK   10  A    between atoms: C5X_35  and  C6X_37 
ROOT
ATOM      1  C1  DGX d         -12.830  31.998  29.445  0.00  0.00    -0.055 C 
ATOM      2  C2  DGX d         -14.176  32.282  28.784  0.00  0.00    -0.040 C 
ATOM      3  C3  DGX d         -15.324  32.111  29.771  0.00  0.00     0.042 C 
ATOM      4  C4  DGX d         -15.354  30.672  30.260  0.00  0.00    -0.037 C 
ATOM      5  C5  DGX d         -14.052  30.346  30.983  0.00  0.00    -0.044 C 
ATOM      6  C6  DGX d         -14.088  28.971  31.636  0.00  0.00    -0.060 C 
ATOM      7  C7  DGX d         -14.013  27.861  30.599  0.00  0.00    -0.058 C 
ATOM      8  C8  DGX d         -12.776  28.042  29.720  0.00  0.00    -0.019 C 
ATOM      9  C9  DGX d         -12.687  29.436  29.088  0.00  0.00    -0.038 C 
ATOM     10  C10 DGX d         -12.785  30.610  30.106  0.00  0.00    -0.036 C 
ATOM     11  C11 DGX d         -11.422  29.534  28.253  0.00  0.00    -0.036 C 
ATOM     12  C12 DGX d         -11.448  28.473  27.173  0.00  0.00     0.046 C 
ATOM     13  C13 DGX d         -11.411  27.035  27.763  0.00  0.00     0.021 C 
ATOM     14  C14 DGX d         -12.641  26.860  28.720  0.00  0.00     0.072 C 
ATOM     15  C15 DGX d         -13.819  26.623  27.754  0.00  0.00    -0.035 C 
ATOM     16  C16 DGX d         -13.250  26.006  26.477  0.00  0.00    -0.054 C 
ATOM     17  C17 DGX d         -11.721  26.118  26.538  0.00  0.00    -0.018 C 
ATOM     18  H1  DGX d         -12.042  32.052  28.679  0.00  0.00     0.034 H 
ATOM     19  H2  DGX d         -12.646  32.763  30.214  0.00  0.00     0.034 H 
ATOM     20  H3  DGX d         -14.318  31.585  27.945  0.00  0.00     0.036 H 
ATOM     21  H4  DGX d         -14.179  33.315  28.407  0.00  0.00     0.036 H 
ATOM     22  H5  DGX d         -16.273  32.357  29.273  0.00  0.00     0.083 H 
ATOM     23  H6  DGX d         -15.475  29.996  29.401  0.00  0.00     0.037 H 
ATOM     24  H7  DGX d         -16.199  30.540  30.952  0.00  0.00     0.037 H 
ATOM     25  H8  DGX d         -13.985  31.064  31.814  0.00  0.00     0.041 H 
ATOM     26  H9  DGX d         -15.025  28.869  32.202  0.00  0.00     0.033 H 
ATOM     27  H10 DGX d         -13.232  28.879  32.321  0.00  0.00     0.033 H 
ATOM     28  H11 DGX d         -14.914  27.891  29.970  0.00  0.00     0.033 H 
ATOM     29  H12 DGX d         -13.956  26.889  31.111  0.00  0.00     0.033 H 
ATOM     30  H13 DGX d         -11.907  27.970  30.391  0.00  0.00     0.045 H 
ATOM     31  H14 DGX d         -13.546  29.536  28.407  0.00  0.00     0.042 H 
ATOM     32  H15 DGX d         -10.544  29.379  28.898  0.00  0.00     0.037 H 
ATOM     33  H16 DGX d         -11.365  30.529  27.789  0.00  0.00     0.037 H 
ATOM     34  H17 DGX d         -12.403  28.578  26.639  0.00  0.00     0.084 H 
ATOM     35  H20 DGX d         -14.313  27.579  27.522  0.00  0.00     0.037 H 
ATOM     36  H21 DGX d         -14.547  25.936  28.210  0.00  0.00     0.037 H 
ATOM     37  H22 DGX d         -13.628  26.549  25.599  0.00  0.00     0.034 H 
ATOM     38  H23 DGX d         -13.545  24.949  26.410  0.00  0.00     0.034 H 
ATOM     39  H24 DGX d         -11.417  26.683  25.645  0.00  0.00     0.048 H 
ENDROOT
BRANCH   3  40
ATOM     40  O3  DGX d         -15.140  32.966  30.911  0.00  0.00    -0.356 OA
BRANCH  40  41
ATOM     41  C1X DGX d         -16.285  33.261  31.717  0.00  0.00     0.134 C 
ATOM     42  O5X DGX d         -16.745  32.037  32.269  0.00  0.00    -0.354 OA
ATOM     43  C5X DGX d         -17.889  32.115  33.095  0.00  0.00     0.065 C 
ATOM     44  C4X DGX d         -19.052  32.806  32.363  0.00  0.00     0.085 C 
ATOM     45  H41 DGX d         -17.668  32.656  34.026  0.00  0.00     0.086 H 
ATOM     46  C3X DGX d         -18.639  34.108  31.669  0.00  0.00     0.067 C 
ATOM     47  H39 DGX d         -19.442  32.114  31.602  0.00  0.00     0.090 H 
ATOM     48  C2X DGX d         -17.393  33.839  30.835  0.00  0.00     0.007 C 
ATOM     49  H37 DGX d         -19.450  34.419  30.994  0.00  0.00     0.087 H 
ATOM     50  H35 DGX d         -17.637  33.120  30.039  0.00  0.00     0.044 H 
ATOM     51  H36 DGX d         -17.046  34.780  30.385  0.00  0.00     0.044 H 
ATOM     52  H34 DGX d         -16.022  33.973  32.514  0.00  0.00     0.129 H 
BRANCH  43  53
ATOM     53  C6X DGX d         -18.204  30.657  33.371  0.00  0.00    -0.050 C 
ATOM     54  H42 DGX d         -18.567  30.179  32.450  0.00  0.00     0.031 H 
ATOM     55  H43 DGX d         -18.979  30.591  34.149  0.00  0.00     0.031 H 
ATOM     56  H44 DGX d         -17.294  30.144  33.716  0.00  0.00     0.031 H 
ENDBRANCH  43  53
BRANCH  44  57
ATOM     57  O4X DGX d         -20.088  33.102  33.312  0.00  0.00    -0.390 OA
ATOM     58  H40 DGX d         -20.924  33.146  32.862  0.00  0.00     0.210 HD
ENDBRANCH  44  57
BRANCH  46  59
ATOM     59  O3X DGX d         -18.427  35.166  32.629  0.00  0.00    -0.393 OA
ATOM     60  H38 DGX d         -18.138  35.950  32.177  0.00  0.00     0.210 HD
ENDBRANCH  46  59
ENDBRANCH  40  41
ENDBRANCH   3  40
BRANCH  10  61
ATOM     61  C19 DGX d         -11.505  30.722  30.954  0.00  0.00    -0.068 C 
ATOM     62  H28 DGX d         -11.769  30.689  32.022  0.00  0.00     0.028 H 
ATOM     63  H29 DGX d         -11.000  31.672  30.731  0.00  0.00     0.028 H 
ATOM     64  H30 DGX d         -10.833  29.885  30.717  0.00  0.00     0.028 H 
ENDBRANCH  10  61
BRANCH  14  65
ATOM     65  O14 DGX d         -12.541  25.637  29.497  0.00  0.00    -0.389 OA
ATOM     66  H19 DGX d         -13.327  25.120  29.374  0.00  0.00     0.210 HD
ENDBRANCH  14  65
BRANCH  12  67
ATOM     67  O12 DGX d         -10.403  28.680  26.218  0.00  0.00    -0.395 OA
ATOM     68  H18 DGX d          -9.567  28.710  26.667  0.00  0.00     0.210 HD
ENDBRANCH  12  67
BRANCH  13  69
ATOM     69  C18 DGX d         -10.061  26.792  28.477  0.00  0.00    -0.063 C 
ATOM     70  H25 DGX d         -10.247  26.468  29.512  0.00  0.00     0.028 H 
ATOM     71  H26 DGX d          -9.477  27.725  28.485  0.00  0.00     0.028 H 
ATOM     72  H27 DGX d          -9.499  26.013  27.944  0.00  0.00     0.028 H 
ENDBRANCH  13  69
BRANCH  17  73
ATOM     73  C20 DGX d         -10.951  24.837  26.443  0.00  0.00    -0.045 A 
ATOM     74  C22 DGX d         -11.289  23.630  26.919  0.00  0.00    -0.006 A 
ATOM     75  C23 DGX d         -10.297  22.661  26.496  0.00  0.00     0.283 A 
ATOM     76  H33 DGX d         -12.168  23.413  27.525  0.00  0.00     0.093 H 
ATOM     77  O21 DGX d          -9.387  23.270  25.736  0.00  0.00    -0.314 OA
ATOM     78  O23 DGX d         -10.238  21.452  26.681  0.00  0.00    -0.260 OA
ATOM     79  C21 DGX d          -9.680  24.685  25.701  0.00  0.00     0.050 A 
ATOM     80  H31 DGX d          -8.878  25.257  26.188  0.00  0.00     0.082 H 
ATOM     81  H32 DGX d          -9.797  25.029  24.662  0.00  0.00     0.082 H 
ENDBRANCH  17  73
TORSDOF 10
ENDMDL
MODEL 5
REMARK VINA RESULT:      -5.5      1.769      9.847
REMARK  10 active torsions:
REMARK  status: ('A' for Active; 'I' for Inactive)
REMARK    1  A    between atoms: C3_3  and  O3_4 
REMARK    2  A    between atoms: O3_4  and  C1X_29 
REMARK    3  A    between atoms: C10_11  and  C19_22 
REMARK    4  A    between atoms: C12_13  and  O12_14 
REMARK    5  A    between atoms: C13_15  and  C18_21 
REMARK    6  A    between atoms: C14_16  and  O14_17 
REMARK    7  A    between atoms: C17_20  and  C20_23 
REMARK    8  A    between atoms: C3X_31  and  O3X_32 
REMARK    9  A    between atoms: C4X_33  and  O4X_34 
REMARK   10  A    between atoms: C5X_35  and  C6X_37 
ROOT
ATOM      1  C1  DGX d         -12.679  27.972  27.927  0.00  0.00    -0.055 C 
ATOM      2  C2  DGX d         -11.268  28.550  27.851  0.00  0.00    -0.040 C 
ATOM      3  C3  DGX d         -10.397  28.034  28.988  0.00  0.00     0.042 C 
ATOM      4  C4  DGX d         -10.995  28.470  30.316  0.00  0.00    -0.037 C 
ATOM      5  C5  DGX d         -12.389  27.873  30.475  0.00  0.00    -0.044 C 
ATOM      6  C6  DGX d         -12.973  28.143  31.855  0.00  0.00    -0.060 C 
ATOM      7  C7  DGX d         -13.372  29.601  32.015  0.00  0.00    -0.058 C 
ATOM      8  C8  DGX d         -14.333  30.012  30.899  0.00  0.00    -0.019 C 
ATOM      9  C9  DGX d         -13.790  29.707  29.498  0.00  0.00    -0.038 C 
ATOM     10  C10 DGX d         -13.344  28.230  29.290  0.00  0.00    -0.036 C 
ATOM     11  C11 DGX d         -14.814  30.125  28.457  0.00  0.00    -0.036 C 
ATOM     12  C12 DGX d         -15.097  31.606  28.595  0.00  0.00     0.046 C 
ATOM     13  C13 DGX d         -15.767  31.951  29.955  0.00  0.00     0.021 C 
ATOM     14  C14 DGX d         -14.818  31.474  31.109  0.00  0.00     0.072 C 
ATOM     15  C15 DGX d         -13.735  32.569  31.164  0.00  0.00    -0.035 C 
ATOM     16  C16 DGX d         -14.362  33.861  30.641  0.00  0.00    -0.054 C 
ATOM     17  C17 DGX d         -15.717  33.511  30.014  0.00  0.00    -0.018 C 
ATOM     18  H1  DGX d         -13.293  28.435  27.140  0.00  0.00     0.034 H 
ATOM     19  H2  DGX d         -12.625  26.887  27.759  0.00  0.00     0.034 H 
ATOM     20  H3  DGX d         -11.326  29.647  27.914  0.00  0.00     0.036 H 
ATOM     21  H4  DGX d         -10.814  28.261  26.892  0.00  0.00     0.036 H 
ATOM     22  H5  DGX d          -9.381  28.440  28.884  0.00  0.00     0.083 H 
ATOM     23  H6  DGX d         -11.061  29.567  30.344  0.00  0.00     0.037 H 
ATOM     24  H7  DGX d         -10.352  28.121  31.139  0.00  0.00     0.037 H 
ATOM     25  H8  DGX d         -12.254  26.783  30.422  0.00  0.00     0.041 H 
ATOM     26  H9  DGX d         -12.221  27.892  32.617  0.00  0.00     0.033 H 
ATOM     27  H10 DGX d         -13.863  27.512  31.995  0.00  0.00     0.033 H 
ATOM     28  H11 DGX d         -12.471  30.231  31.969  0.00  0.00     0.033 H 
ATOM     29  H12 DGX d         -13.865  29.738  32.988  0.00  0.00     0.033 H 
ATOM     30  H13 DGX d         -15.225  29.379  31.011  0.00  0.00     0.045 H 
ATOM     31  H14 DGX d         -12.895  30.331  29.356  0.00  0.00     0.042 H 
ATOM     32  H15 DGX d         -15.745  29.558  28.609  0.00  0.00     0.037 H 
ATOM     33  H16 DGX d         -14.420  29.918  27.451  0.00  0.00     0.037 H 
ATOM     34  H17 DGX d         -14.127  32.124  28.571  0.00  0.00     0.084 H 
ATOM     35  H20 DGX d         -12.880  32.284  30.533  0.00  0.00     0.037 H 
ATOM     36  H21 DGX d         -13.394  32.710  32.200  0.00  0.00     0.037 H 
ATOM     37  H22 DGX d         -13.707  34.315  29.884  0.00  0.00     0.034 H 
ATOM     38  H23 DGX d         -14.507  34.568  31.472  0.00  0.00     0.034 H 
ATOM     39  H24 DGX d         -15.673  33.858  28.971  0.00  0.00     0.048 H 
ENDROOT
BRANCH   3  40
ATOM     40  O3  DGX d         -10.346  26.597  28.973  0.00  0.00    -0.356 OA
BRANCH  40  41
ATOM     41  C1X DGX d         -11.203  25.907  28.058  0.00  0.00     0.134 C 
ATOM     42  O5X DGX d         -11.969  24.978  28.810  0.00  0.00    -0.354 OA
ATOM     43  C5X DGX d         -12.877  24.180  28.078  0.00  0.00     0.065 C 
ATOM     44  C4X DGX d         -12.163  23.437  26.936  0.00  0.00     0.085 C 
ATOM     45  H41 DGX d         -13.695  24.788  27.664  0.00  0.00     0.086 H 
ATOM     46  C3X DGX d         -11.249  24.345  26.104  0.00  0.00     0.067 C 
ATOM     47  H39 DGX d         -11.551  22.635  27.373  0.00  0.00     0.090 H 
ATOM     48  C2X DGX d         -10.352  25.129  27.053  0.00  0.00     0.007 C 
ATOM     49  H37 DGX d         -10.615  23.714  25.465  0.00  0.00     0.087 H 
ATOM     50  H35 DGX d          -9.697  24.431  27.594  0.00  0.00     0.044 H 
ATOM     51  H36 DGX d          -9.739  25.834  26.474  0.00  0.00     0.044 H 
ATOM     52  H34 DGX d         -11.859  26.618  27.534  0.00  0.00     0.129 H 
BRANCH  43  53
ATOM     53  C6X DGX d         -13.393  23.210  29.124  0.00  0.00    -0.050 C 
ATOM     54  H42 DGX d         -12.614  23.041  29.882  0.00  0.00     0.031 H 
ATOM     55  H43 DGX d         -13.651  22.256  28.643  0.00  0.00     0.031 H 
ATOM     56  H44 DGX d         -14.287  23.632  29.606  0.00  0.00     0.031 H 
ENDBRANCH  43  53
BRANCH  44  57
ATOM     57  O4X DGX d         -13.150  22.861  26.066  0.00  0.00    -0.390 OA
ATOM     58  H40 DGX d         -14.002  23.228  26.270  0.00  0.00     0.210 HD
ENDBRANCH  44  57
BRANCH  46  59
ATOM     59  O3X DGX d         -12.020  25.215  25.247  0.00  0.00    -0.393 OA
ATOM     60  H38 DGX d         -12.693  24.710  24.807  0.00  0.00     0.210 HD
ENDBRANCH  46  59
ENDBRANCH  40  41
ENDBRANCH   3  40
BRANCH  10  61
ATOM     61  C19 DGX d         -14.556  27.284  29.217  0.00  0.00    -0.068 C 
ATOM     62  H28 DGX d         -15.465  27.829  29.515  0.00  0.00     0.028 H 
ATOM     63  H29 DGX d         -14.400  26.435  29.898  0.00  0.00     0.028 H 
ATOM     64  H30 DGX d         -14.671  26.913  28.188  0.00  0.00     0.028 H 
ENDBRANCH  10  61
BRANCH  14  65
ATOM     65  O14 DGX d         -15.480  31.534  32.400  0.00  0.00    -0.389 OA
ATOM     66  H19 DGX d         -14.828  31.628  33.084  0.00  0.00     0.210 HD
ENDBRANCH  14  65
BRANCH  12  67
ATOM     67  O12 DGX d         -15.863  32.093  27.489  0.00  0.00    -0.395 OA
ATOM     68  H18 DGX d         -16.769  31.824  27.590  0.00  0.00     0.210 HD
ENDBRANCH  12  67
BRANCH  13  69
ATOM     69  C18 DGX d         -17.169  31.306  30.031  0.00  0.00    -0.063 C 
ATOM     70  H25 DGX d         -17.560  31.397  31.055  0.00  0.00     0.028 H 
ATOM     71  H26 DGX d         -17.099  30.242  29.759  0.00  0.00     0.028 H 
ATOM     72  H27 DGX d         -17.847  31.818  29.333  0.00  0.00     0.028 H 
ENDBRANCH  13  69
BRANCH  17  73
ATOM     73  C20 DGX d         -16.918  34.202  30.581  0.00  0.00    -0.045 A 
ATOM     74  C22 DGX d         -18.127  34.352  30.022  0.00  0.00    -0.006 A 
ATOM     75  C23 DGX d         -19.013  34.989  30.978  0.00  0.00     0.283 A 
ATOM     76  H33 DGX d         -18.400  34.046  29.013  0.00  0.00     0.093 H 
ATOM     77  O21 DGX d         -18.355  35.184  32.121  0.00  0.00    -0.314 OA
ATOM     78  O23 DGX d         -20.200  35.278  30.890  0.00  0.00    -0.260 OA
ATOM     79  C21 DGX d         -16.980  34.777  31.943  0.00  0.00     0.050 A 
ATOM     80  H31 DGX d         -16.307  35.642  32.027  0.00  0.00     0.082 H 
ATOM     81  H32 DGX d         -16.701  34.022  32.693  0.00  0.00     0.082 H 
ENDBRANCH  17  73
TORSDOF 10
ENDMDL
MODEL 6
REMARK VINA RESULT:      -5.5      1.476      2.204
REMARK  10 active torsions:
REMARK  status: ('A' for Active; 'I' for Inactive)
REMARK    1  A    between atoms: C3_3  and  O3_4 
REMARK    2  A    between atoms: O3_4  and  C1X_29 
REMARK    3  A    between atoms: C10_11  and  C19_22 
REMARK    4  A    between atoms: C12_13  and  O12_14 
REMARK    5  A    between atoms: C13_15  and  C18_21 
REMARK    6  A    between atoms: C14_16  and  O14_17 
REMARK    7  A    between atoms: C17_20  and  C20_23 
REMARK    8  A    between atoms: C3X_31  and  O3X_32 
REMARK    9  A    between atoms: C4X_33  and  O4X_34 
REMARK   10  A    between atoms: C5X_35  and  C6X_37 
ROOT
ATOM      1  C1  DGX d         -12.391  29.975  31.360  0.00  0.00    -0.055 C 
ATOM      2  C2  DGX d         -12.216  31.265  30.564  0.00  0.00    -0.040 C 
ATOM      3  C3  DGX d         -13.561  31.833  30.129  0.00  0.00     0.042 C 
ATOM      4  C4  DGX d         -14.259  30.833  29.223  0.00  0.00    -0.037 C 
ATOM      5  C5  DGX d         -14.513  29.537  29.985  0.00  0.00    -0.044 C 
ATOM      6  C6  DGX d         -15.353  28.554  29.180  0.00  0.00    -0.060 C 
ATOM      7  C7  DGX d         -14.556  27.948  28.036  0.00  0.00    -0.058 C 
ATOM      8  C8  DGX d         -13.276  27.302  28.567  0.00  0.00    -0.019 C 
ATOM      9  C9  DGX d         -12.434  28.255  29.423  0.00  0.00    -0.038 C 
ATOM     10  C10 DGX d         -13.211  28.922  30.595  0.00  0.00    -0.036 C 
ATOM     11  C11 DGX d         -11.199  27.526  29.925  0.00  0.00    -0.036 C 
ATOM     12  C12 DGX d         -10.390  27.034  28.743  0.00  0.00     0.046 C 
ATOM     13  C13 DGX d         -11.156  25.967  27.912  0.00  0.00     0.021 C 
ATOM     14  C14 DGX d         -12.504  26.599  27.416  0.00  0.00     0.072 C 
ATOM     15  C15 DGX d         -12.075  27.476  26.224  0.00  0.00    -0.035 C 
ATOM     16  C16 DGX d         -10.799  26.868  25.642  0.00  0.00    -0.054 C 
ATOM     17  C17 DGX d         -10.292  25.803  26.622  0.00  0.00    -0.018 C 
ATOM     18  H1  DGX d         -11.397  29.558  31.580  0.00  0.00     0.034 H 
ATOM     19  H2  DGX d         -12.906  30.209  32.303  0.00  0.00     0.034 H 
ATOM     20  H3  DGX d         -11.610  31.056  29.670  0.00  0.00     0.036 H 
ATOM     21  H4  DGX d         -11.700  32.006  31.191  0.00  0.00     0.036 H 
ATOM     22  H5  DGX d         -13.401  32.778  29.590  0.00  0.00     0.083 H 
ATOM     23  H6  DGX d         -13.623  30.625  28.350  0.00  0.00     0.037 H 
ATOM     24  H7  DGX d         -15.219  31.253  28.886  0.00  0.00     0.037 H 
ATOM     25  H8  DGX d         -15.135  29.816  30.848  0.00  0.00     0.041 H 
ATOM     26  H9  DGX d         -16.225  29.083  28.768  0.00  0.00     0.033 H 
ATOM     27  H10 DGX d         -15.694  27.747  29.845  0.00  0.00     0.033 H 
ATOM     28  H11 DGX d         -14.293  28.739  27.318  0.00  0.00     0.033 H 
ATOM     29  H12 DGX d         -15.167  27.185  27.532  0.00  0.00     0.033 H 
ATOM     30  H13 DGX d         -13.596  26.501  29.250  0.00  0.00     0.045 H 
ATOM     31  H14 DGX d         -12.097  29.068  28.763  0.00  0.00     0.042 H 
ATOM     32  H15 DGX d         -11.505  26.669  30.543  0.00  0.00     0.037 H 
ATOM     33  H16 DGX d         -10.588  28.213  30.528  0.00  0.00     0.037 H 
ATOM     34  H17 DGX d         -10.222  27.898  28.084  0.00  0.00     0.084 H 
ATOM     35  H20 DGX d         -11.880  28.504  26.564  0.00  0.00     0.037 H 
ATOM     36  H21 DGX d         -12.867  27.487  25.461  0.00  0.00     0.037 H 
ATOM     37  H22 DGX d         -10.037  27.651  25.514  0.00  0.00     0.034 H 
ATOM     38  H23 DGX d         -11.017  26.406  24.668  0.00  0.00     0.034 H 
ATOM     39  H24 DGX d          -9.269  26.099  26.897  0.00  0.00     0.048 H 
ENDROOT
BRANCH   3  40
ATOM     40  O3  DGX d         -14.403  32.065  31.271  0.00  0.00    -0.356 OA
BRANCH  40  41
ATOM     41  C1X DGX d         -15.818  32.102  31.062  0.00  0.00     0.134 C 
ATOM     42  O5X DGX d         -16.214  33.465  31.070  0.00  0.00    -0.354 OA
ATOM     43  C5X DGX d         -17.594  33.715  30.891  0.00  0.00     0.065 C 
ATOM     44  C4X DGX d         -18.434  32.940  31.919  0.00  0.00     0.085 C 
ATOM     45  H41 DGX d         -17.916  33.444  29.875  0.00  0.00     0.086 H 
ATOM     46  C3X DGX d         -18.032  31.466  32.039  0.00  0.00     0.067 C 
ATOM     47  H39 DGX d         -18.304  33.417  32.902  0.00  0.00     0.090 H 
ATOM     48  C2X DGX d         -16.521  31.388  32.218  0.00  0.00     0.007 C 
ATOM     49  H37 DGX d         -18.512  31.042  32.933  0.00  0.00     0.087 H 
ATOM     50  H35 DGX d         -16.243  31.870  33.167  0.00  0.00     0.044 H 
ATOM     51  H36 DGX d         -16.211  30.334  32.236  0.00  0.00     0.044 H 
ATOM     52  H34 DGX d         -16.079  31.627  30.104  0.00  0.00     0.129 H 
BRANCH  43  53
ATOM     53  C6X DGX d         -17.696  35.212  31.115  0.00  0.00    -0.050 C 
ATOM     54  H42 DGX d         -16.836  35.553  31.710  0.00  0.00     0.031 H 
ATOM     55  H43 DGX d         -18.628  35.439  31.654  0.00  0.00     0.031 H 
ATOM     56  H44 DGX d         -17.699  35.729  30.145  0.00  0.00     0.031 H 
ENDBRANCH  43  53
BRANCH  44  57
ATOM     57  O4X DGX d         -19.817  33.008  31.538  0.00  0.00    -0.390 OA
ATOM     58  H40 DGX d         -19.950  32.498  30.747  0.00  0.00     0.210 HD
ENDBRANCH  44  57
BRANCH  46  59
ATOM     59  O3X DGX d         -18.479  30.709  30.892  0.00  0.00    -0.393 OA
ATOM     60  H38 DGX d         -18.340  31.220  30.103  0.00  0.00     0.210 HD
ENDBRANCH  46  59
ENDBRANCH  40  41
ENDBRANCH   3  40
BRANCH  10  61
ATOM     61  C19 DGX d         -13.517  27.909  31.712  0.00  0.00    -0.068 C 
ATOM     62  H28 DGX d         -12.612  27.743  32.315  0.00  0.00     0.028 H 
ATOM     63  H29 DGX d         -13.839  26.957  31.266  0.00  0.00     0.028 H 
ATOM     64  H30 DGX d         -14.319  28.302  32.355  0.00  0.00     0.028 H 
ENDBRANCH  10  61
BRANCH  14  65
ATOM     65  O14 DGX d         -13.385  25.595  26.847  0.00  0.00    -0.389 OA
ATOM     66  H19 DGX d         -12.974  25.214  26.080  0.00  0.00     0.210 HD
ENDBRANCH  14  65
BRANCH  12  67
ATOM     67  O12 DGX d          -9.105  26.560  29.156  0.00  0.00    -0.395 OA
ATOM     68  H18 DGX d          -8.631  26.233  28.401  0.00  0.00     0.210 HD
ENDBRANCH  12  67
BRANCH  13  69
ATOM     69  C18 DGX d         -11.372  24.693  28.760  0.00  0.00    -0.063 C 
ATOM     70  H25 DGX d         -11.593  23.843  28.097  0.00  0.00     0.028 H 
ATOM     71  H26 DGX d         -12.216  24.848  29.448  0.00  0.00     0.028 H 
ATOM     72  H27 DGX d         -10.462  24.479  29.339  0.00  0.00     0.028 H 
ENDBRANCH  13  69
BRANCH  17  73
ATOM     73  C20 DGX d         -10.141  24.414  26.084  0.00  0.00    -0.045 A 
ATOM     74  C22 DGX d          -9.014  23.707  25.922  0.00  0.00    -0.006 A 
ATOM     75  C23 DGX d          -9.355  22.370  25.477  0.00  0.00     0.283 A 
ATOM     76  H33 DGX d          -8.004  24.077  26.097  0.00  0.00     0.093 H 
ATOM     77  O21 DGX d         -10.681  22.256  25.409  0.00  0.00    -0.314 OA
ATOM     78  O23 DGX d          -8.639  21.404  25.243  0.00  0.00    -0.260 OA
ATOM     79  C21 DGX d         -11.275  23.539  25.712  0.00  0.00     0.050 A 
ATOM     80  H31 DGX d         -11.798  23.940  24.831  0.00  0.00     0.082 H 
ATOM     81  H32 DGX d         -11.983  23.449  26.549  0.00  0.00     0.082 H 
ENDBRANCH  17  73
TORSDOF 10
ENDMDL
