MODEL 1
REMARK VINA RESULT:      -9.8      0.000      0.000
REMARK  3 active torsions:
REMARK  status: ('A' for Active; 'I' for Inactive)
REMARK    1  A    between atoms: C10_12  and  C9_11 
REMARK    2  A    between atoms: C12_14  and  N2_15 
REMARK    3  A    between atoms: C14_17  and  C15_18 
ROOT
ATOM      1  C1  HUP d           0.612  69.012  60.938  0.00  0.00     0.245 A 
ATOM      2  O1  HUP d           0.077  69.525  59.919  0.00  0.00    -0.268 OA
ATOM      3  N1  HUP d           1.922  68.532  60.872  0.00  0.00    -0.327 N 
ATOM      4  C2  HUP d          -0.051  68.876  62.227  0.00  0.00    -0.017 A 
ATOM      5  C3  HUP d           0.602  68.297  63.296  0.00  0.00    -0.067 A 
ATOM      6  C4  HUP d           1.964  67.800  63.210  0.00  0.00     0.005 A 
ATOM      7  C5  HUP d           2.621  67.940  61.946  0.00  0.00     0.022 A 
ATOM      8  C6  HUP d           4.034  67.482  61.668  0.00  0.00    -0.016 C 
ATOM      9  C7  HUP d           4.764  66.877  62.947  0.00  0.00    -0.008 C 
ATOM     10  C8  HUP d           5.455  67.967  63.793  0.00  0.00    -0.093 C 
ATOM     11  C10 HUP d           3.738  64.837  64.124  0.00  0.00    -0.101 C 
ATOM     12  C11 HUP d           3.749  66.134  63.846  0.00  0.00    -0.036 C 
ATOM     13  C12 HUP d           2.718  67.124  64.437  0.00  0.00     0.179 C 
ATOM     14  C13 HUP d           3.443  68.202  65.294  0.00  0.00    -0.006 C 
ATOM     15  C14 HUP d           4.851  68.566  64.857  0.00  0.00    -0.084 C 
ATOM     16  H1  HUP d           2.402  68.615  59.998  0.00  0.00     0.169 HD
ATOM     17  H2  HUP d          -1.073  69.235  62.349  0.00  0.00     0.092 H 
ATOM     18  H3  HUP d           0.074  68.209  64.244  0.00  0.00     0.084 H 
ATOM     19  H4  HUP d           4.616  68.343  61.309  0.00  0.00     0.043 H 
ATOM     20  H5  HUP d           4.002  66.709  60.886  0.00  0.00     0.043 H 
ATOM     21  H6  HUP d           5.528  66.163  62.603  0.00  0.00     0.053 H 
ATOM     22  H7  HUP d           6.467  68.271  63.528  0.00  0.00     0.078 H 
ATOM     23  H11 HUP d           2.954  64.500  64.801  0.00  0.00     0.076 H 
ATOM     24  H15 HUP d           3.497  67.829  66.328  0.00  0.00     0.044 H 
ATOM     25  H16 HUP d           2.834  69.118  65.266  0.00  0.00     0.044 H 
ENDROOT
BRANCH  13  26
ATOM     26  N2  HUP d           1.732  66.423  65.307  0.00  0.00    -0.062 N 
ATOM     27  H12 HUP d           1.269  65.701  64.778  0.00  0.00     0.276 HD
ATOM     28  H13 HUP d           1.049  67.085  65.641  0.00  0.00     0.276 HD
ATOM     29  H14 HUP d           2.210  66.010  66.092  0.00  0.00     0.276 HD
ENDBRANCH  13  26
BRANCH  11  30
ATOM     30  C9  HUP d           4.672  63.778  63.622  0.00  0.00    -0.059 C 
ATOM     31  H8  HUP d           4.137  63.120  62.921  0.00  0.00     0.032 H 
ATOM     32  H9  HUP d           5.044  63.184  64.471  0.00  0.00     0.032 H 
ATOM     33  H10 HUP d           5.521  64.252  63.106  0.00  0.00     0.032 H 
ENDBRANCH  11  30
BRANCH  15  34
ATOM     34  C15 HUP d           5.512  69.631  65.707  0.00  0.00    -0.055 C 
ATOM     35  H17 HUP d           6.595  69.443  65.752  0.00  0.00     0.033 H 
ATOM     36  H18 HUP d           5.092  69.602  66.723  0.00  0.00     0.033 H 
ATOM     37  H19 HUP d           5.329  70.620  65.262  0.00  0.00     0.033 H 
ENDBRANCH  15  34
TORSDOF 3
ENDMDL
MODEL 2
REMARK VINA RESULT:      -9.4      1.345      3.497
REMARK  3 active torsions:
REMARK  status: ('A' for Active; 'I' for Inactive)
REMARK    1  A    between atoms: C10_12  and  C9_11 
REMARK    2  A    between atoms: C12_14  and  N2_15 
REMARK    3  A    between atoms: C14_17  and  C15_18 
ROOT
ATOM      1  C1  HUP d           0.540  68.883  61.319  0.00  0.00     0.245 A 
ATOM      2  O1  HUP d          -0.609  69.276  60.980  0.00  0.00    -0.268 OA
ATOM      3  N1  HUP d           0.848  68.712  62.671  0.00  0.00    -0.327 N 
ATOM      4  C2  HUP d           1.610  68.582  60.379  0.00  0.00    -0.017 A 
ATOM      5  C3  HUP d           2.844  68.161  60.831  0.00  0.00    -0.067 A 
ATOM      6  C4  HUP d           3.150  67.992  62.240  0.00  0.00     0.005 A 
ATOM      7  C5  HUP d           2.097  68.279  63.166  0.00  0.00     0.022 A 
ATOM      8  C6  HUP d           2.230  68.161  64.666  0.00  0.00    -0.016 C 
ATOM      9  C7  HUP d           3.651  67.615  65.134  0.00  0.00    -0.008 C 
ATOM     10  C8  HUP d           3.699  66.074  65.169  0.00  0.00    -0.093 C 
ATOM     11  C10 HUP d           5.766  68.924  64.488  0.00  0.00    -0.101 C 
ATOM     12  C11 HUP d           4.760  68.116  64.180  0.00  0.00    -0.036 C 
ATOM     13  C12 HUP d           4.574  67.516  62.766  0.00  0.00     0.179 C 
ATOM     14  C13 HUP d           4.641  65.962  62.832  0.00  0.00    -0.006 C 
ATOM     15  C14 HUP d           4.149  65.327  64.121  0.00  0.00    -0.084 C 
ATOM     16  H1  HUP d           0.130  68.911  63.338  0.00  0.00     0.169 HD
ATOM     17  H2  HUP d           1.435  68.689  59.309  0.00  0.00     0.092 H 
ATOM     18  H3  HUP d           3.622  67.948  60.099  0.00  0.00     0.084 H 
ATOM     19  H4  HUP d           1.454  67.473  65.033  0.00  0.00     0.043 H 
ATOM     20  H5  HUP d           2.075  69.157  65.109  0.00  0.00     0.043 H 
ATOM     21  H6  HUP d           3.851  67.996  66.146  0.00  0.00     0.053 H 
ATOM     22  H7  HUP d           3.359  65.561  66.067  0.00  0.00     0.078 H 
ATOM     23  H11 HUP d           6.465  69.145  63.683  0.00  0.00     0.076 H 
ATOM     24  H15 HUP d           5.690  65.664  62.689  0.00  0.00     0.044 H 
ATOM     25  H16 HUP d           4.031  65.565  62.007  0.00  0.00     0.044 H 
ENDROOT
BRANCH  13  26
ATOM     26  N2  HUP d           5.637  67.987  61.833  0.00  0.00    -0.062 N 
ATOM     27  H12 HUP d           6.449  68.264  62.362  0.00  0.00     0.276 HD
ATOM     28  H13 HUP d           5.295  68.775  61.305  0.00  0.00     0.276 HD
ATOM     29  H14 HUP d           5.885  67.242  61.202  0.00  0.00     0.276 HD
ENDBRANCH  13  26
BRANCH  11  30
ATOM     30  C9  HUP d           6.059  69.569  65.809  0.00  0.00    -0.059 C 
ATOM     31  H8  HUP d           5.121  69.694  66.371  0.00  0.00     0.032 H 
ATOM     32  H9  HUP d           6.520  70.554  65.642  0.00  0.00     0.032 H 
ATOM     33  H10 HUP d           6.749  68.933  66.383  0.00  0.00     0.032 H 
ENDBRANCH  11  30
BRANCH  15  34
ATOM     34  C15 HUP d           4.215  63.815  64.136  0.00  0.00    -0.055 C 
ATOM     35  H17 HUP d           4.373  63.444  63.113  0.00  0.00     0.033 H 
ATOM     36  H18 HUP d           3.271  63.411  64.530  0.00  0.00     0.033 H 
ATOM     37  H19 HUP d           5.048  63.491  64.777  0.00  0.00     0.033 H 
ENDBRANCH  15  34
TORSDOF 3
ENDMDL
MODEL 3
REMARK VINA RESULT:      -7.9      2.762      4.671
REMARK  3 active torsions:
REMARK  status: ('A' for Active; 'I' for Inactive)
REMARK    1  A    between atoms: C10_12  and  C9_11 
REMARK    2  A    between atoms: C12_14  and  N2_15 
REMARK    3  A    between atoms: C14_17  and  C15_18 
ROOT
ATOM      1  C1  HUP d           5.974  70.043  65.880  0.00  0.00     0.245 A 
ATOM      2  O1  HUP d           6.891  70.748  66.380  0.00  0.00    -0.268 OA
ATOM      3  N1  HUP d           6.163  69.426  64.641  0.00  0.00    -0.327 N 
ATOM      4  C2  HUP d           4.684  69.810  66.517  0.00  0.00    -0.017 A 
ATOM      5  C3  HUP d           3.728  69.028  65.901  0.00  0.00    -0.067 A 
ATOM      6  C4  HUP d           3.941  68.396  64.611  0.00  0.00     0.005 A 
ATOM      7  C5  HUP d           5.210  68.616  63.988  0.00  0.00     0.022 A 
ATOM      8  C6  HUP d           5.609  68.043  62.648  0.00  0.00    -0.016 C 
ATOM      9  C7  HUP d           4.497  67.100  62.008  0.00  0.00    -0.008 C 
ATOM     10  C8  HUP d           4.624  65.640  62.491  0.00  0.00    -0.093 C 
ATOM     11  C10 HUP d           2.165  68.066  61.528  0.00  0.00    -0.101 C 
ATOM     12  C11 HUP d           3.084  67.612  62.370  0.00  0.00    -0.036 C 
ATOM     13  C12 HUP d           2.838  67.501  63.894  0.00  0.00     0.179 C 
ATOM     14  C13 HUP d           2.959  66.017  64.348  0.00  0.00    -0.006 C 
ATOM     15  C14 HUP d           3.924  65.153  63.554  0.00  0.00    -0.084 C 
ATOM     16  H1  HUP d           7.041  69.569  64.183  0.00  0.00     0.169 HD
ATOM     17  H2  HUP d           4.473  70.257  67.487  0.00  0.00     0.092 H 
ATOM     18  H3  HUP d           2.775  68.878  66.404  0.00  0.00     0.084 H 
ATOM     19  H4  HUP d           6.530  67.456  62.780  0.00  0.00     0.043 H 
ATOM     20  H5  HUP d           5.801  68.876  61.955  0.00  0.00     0.043 H 
ATOM     21  H6  HUP d           4.616  67.119  60.914  0.00  0.00     0.053 H 
ATOM     22  H7  HUP d           5.300  64.972  61.961  0.00  0.00     0.078 H 
ATOM     23  H11 HUP d           1.214  68.360  61.971  0.00  0.00     0.076 H 
ATOM     24  H15 HUP d           1.961  65.560  64.276  0.00  0.00     0.044 H 
ATOM     25  H16 HUP d           3.290  66.013  65.397  0.00  0.00     0.044 H 
ENDROOT
BRANCH  13  26
ATOM     26  N2  HUP d           1.479  67.989  64.260  0.00  0.00    -0.062 N 
ATOM     27  H12 HUP d           1.132  68.596  63.533  0.00  0.00     0.276 HD
ATOM     28  H13 HUP d           1.528  68.499  65.128  0.00  0.00     0.276 HD
ATOM     29  H14 HUP d           0.856  67.204  64.367  0.00  0.00     0.276 HD
ENDBRANCH  13  26
BRANCH  11  30
ATOM     30  C9  HUP d           2.274  68.224  60.041  0.00  0.00    -0.059 C 
ATOM     31  H8  HUP d           1.421  67.727  59.556  0.00  0.00     0.032 H 
ATOM     32  H9  HUP d           3.212  67.766  59.692  0.00  0.00     0.032 H 
ATOM     33  H10 HUP d           2.270  69.294  59.785  0.00  0.00     0.032 H 
ENDBRANCH  11  30
BRANCH  15  34
ATOM     34  C15 HUP d           4.024  63.723  64.040  0.00  0.00    -0.055 C 
ATOM     35  H17 HUP d           3.275  63.106  63.522  0.00  0.00     0.033 H 
ATOM     36  H18 HUP d           3.841  63.689  65.124  0.00  0.00     0.033 H 
ATOM     37  H19 HUP d           5.031  63.333  63.827  0.00  0.00     0.033 H 
ENDBRANCH  15  34
TORSDOF 3
ENDMDL
