MODEL 1
REMARK VINA RESULT:      -6.7      0.000      0.000
REMARK  2 active torsions:
REMARK  status: ('A' for Active; 'I' for Inactive)
REMARK    1  A    between atoms: N_9  and  C11_13 
REMARK    2  A    between atoms: C9_11  and  S_10 
ROOT
ATOM      1  C1  MOL d         122.791 133.578  64.464  0.00  0.00     0.045 A 
ATOM      2  C2  MOL d         123.347 132.449  63.774  0.00  0.00    -0.056 A 
ATOM      3  C3  MOL d         122.524 131.489  63.162  0.00  0.00    -0.080 A 
ATOM      4  C4  MOL d         121.129 131.616  63.204  0.00  0.00    -0.072 A 
ATOM      5  C5  MOL d         120.504 132.705  63.861  0.00  0.00    -0.022 A 
ATOM      6  C6  MOL d         119.085 132.806  63.880  0.00  0.00    -0.072 A 
ATOM      7  C7  MOL d         118.436 133.870  64.521  0.00  0.00    -0.081 A 
ATOM      8  C8  MOL d         119.186 134.865  65.163  0.00  0.00    -0.058 A 
ATOM      9  N   MOL d         123.597 134.452  65.020  0.00  0.00    -0.355 N 
ATOM     10  C9  MOL d         120.601 134.824  65.181  0.00  0.00     0.094 A 
ATOM     11  C10 MOL d         121.324 133.736  64.522  0.00  0.00     0.025 A 
ATOM     12  H1  MOL d         124.424 132.335  63.724  0.00  0.00     0.086 H 
ATOM     13  H2  MOL d         122.972 130.643  62.653  0.00  0.00     0.083 H 
ATOM     14  H3  MOL d         120.514 130.864  62.724  0.00  0.00     0.084 H 
ATOM     15  H4  MOL d         118.492 132.043  63.389  0.00  0.00     0.084 H 
ATOM     16  H5  MOL d         117.354 133.924  64.520  0.00  0.00     0.083 H 
ATOM     17  H6  MOL d         118.672 135.683  65.655  0.00  0.00     0.086 H 
ATOM     18  H7  MOL d         123.464 135.435  64.743  0.00  0.00     0.166 HD
ENDROOT
BRANCH   9  19
ATOM     19  C11 MOL d         124.560 134.215  65.897  0.00  0.00     0.032 A 
ATOM     20  C12 MOL d         124.619 133.029  66.721  0.00  0.00    -0.057 A 
ATOM     21  C13 MOL d         125.686 132.845  67.654  0.00  0.00    -0.081 A 
ATOM     22  H8  MOL d         123.849 132.272  66.630  0.00  0.00     0.086 H 
ATOM     23  C14 MOL d         126.698 133.842  67.773  0.00  0.00    -0.083 A 
ATOM     24  H9  MOL d         125.724 131.953  68.267  0.00  0.00     0.083 H 
ATOM     25  C15 MOL d         126.645 135.010  66.965  0.00  0.00    -0.081 A 
ATOM     26  H10 MOL d         127.508 133.709  68.481  0.00  0.00     0.083 H 
ATOM     27  C16 MOL d         125.583 135.195  66.035  0.00  0.00    -0.057 A 
ATOM     28  H11 MOL d         127.418 135.764  67.057  0.00  0.00     0.083 H 
ATOM     29  H12 MOL d         125.553 136.091  65.426  0.00  0.00     0.086 H 
ENDBRANCH   9  19
BRANCH  10  30
ATOM     30  S   MOL d         121.406 136.155  66.050  0.00  0.00     0.138 S 
ATOM     31  O1  MOL d         122.266 136.876  65.137  0.00  0.00    -0.591 OA
ATOM     32  O2  MOL d         122.153 135.567  67.147  0.00  0.00    -0.591 OA
ATOM     33  O3  MOL d         120.264 137.162  66.668  0.00  0.00    -0.591 OA
ENDBRANCH  10  30
TORSDOF 2
ENDMDL
