MODEL 1
REMARK VINA RESULT:      -7.0      0.000      0.000
REMARK  2 active torsions:
REMARK  status: ('A' for Active; 'I' for Inactive)
REMARK    1  A    between atoms: N_9  and  C11_13 
REMARK    2  A    between atoms: C9_11  and  S_10 
ROOT
ATOM      1  C1  MOL d         121.508 134.591  65.086  0.00  0.00     0.045 A 
ATOM      2  C2  MOL d         120.733 135.700  65.567  0.00  0.00    -0.056 A 
ATOM      3  C3  MOL d         119.340 135.748  65.393  0.00  0.00    -0.080 A 
ATOM      4  C4  MOL d         118.667 134.701  64.749  0.00  0.00    -0.072 A 
ATOM      5  C5  MOL d         119.360 133.569  64.251  0.00  0.00    -0.022 A 
ATOM      6  C6  MOL d         118.644 132.522  63.606  0.00  0.00    -0.072 A 
ATOM      7  C7  MOL d         119.300 131.390  63.104  0.00  0.00    -0.081 A 
ATOM      8  C8  MOL d         120.691 131.271  63.230  0.00  0.00    -0.058 A 
ATOM      9  N   MOL d         122.807 134.587  65.272  0.00  0.00    -0.355 N 
ATOM     10  C9  MOL d         121.462 132.277  63.860  0.00  0.00     0.094 A 
ATOM     11  C10 MOL d         120.822 133.475  64.405  0.00  0.00     0.025 A 
ATOM     12  H1  MOL d         121.233 136.517  66.073  0.00  0.00     0.086 H 
ATOM     13  H2  MOL d         118.782 136.601  65.761  0.00  0.00     0.083 H 
ATOM     14  H3  MOL d         117.591 134.759  64.627  0.00  0.00     0.084 H 
ATOM     15  H4  MOL d         117.569 132.601  63.501  0.00  0.00     0.084 H 
ATOM     16  H5  MOL d         118.731 130.606  62.618  0.00  0.00     0.083 H 
ATOM     17  H6  MOL d         121.186 130.391  62.836  0.00  0.00     0.086 H 
ATOM     18  H7  MOL d         123.197 133.759  65.745  0.00  0.00     0.166 HD
ENDROOT
BRANCH   9  19
ATOM     19  C11 MOL d         123.674 135.524  64.920  0.00  0.00     0.032 A 
ATOM     20  C12 MOL d         123.456 136.447  63.829  0.00  0.00    -0.057 A 
ATOM     21  C13 MOL d         124.442 137.427  63.500  0.00  0.00    -0.081 A 
ATOM     22  H8  MOL d         122.538 136.395  63.257  0.00  0.00     0.086 H 
ATOM     23  C14 MOL d         125.651 137.493  64.253  0.00  0.00    -0.083 A 
ATOM     24  H9  MOL d         124.272 138.117  62.682  0.00  0.00     0.083 H 
ATOM     25  C15 MOL d         125.870 136.588  65.327  0.00  0.00    -0.081 A 
ATOM     26  H10 MOL d         126.404 138.233  64.007  0.00  0.00     0.083 H 
ATOM     27  C16 MOL d         124.889 135.610  65.656  0.00  0.00    -0.057 A 
ATOM     28  H11 MOL d         126.789 136.642  65.899  0.00  0.00     0.083 H 
ATOM     29  H12 MOL d         125.069 134.924  66.476  0.00  0.00     0.086 H 
ENDBRANCH   9  19
BRANCH  10  30
ATOM     30  S   MOL d         123.218 131.982  63.928  0.00  0.00     0.138 S 
ATOM     31  O1  MOL d         123.909 133.024  63.201  0.00  0.00    -0.591 OA
ATOM     32  O2  MOL d         123.459 130.670  63.354  0.00  0.00    -0.591 OA
ATOM     33  O3  MOL d         123.701 131.970  65.498  0.00  0.00    -0.591 OA
ENDBRANCH  10  30
TORSDOF 2
ENDMDL
MODEL 2
REMARK VINA RESULT:      -7.0      2.737      4.196
REMARK  2 active torsions:
REMARK  status: ('A' for Active; 'I' for Inactive)
REMARK    1  A    between atoms: N_9  and  C11_13 
REMARK    2  A    between atoms: C9_11  and  S_10 
ROOT
ATOM      1  C1  MOL d         122.286 133.252  64.208  0.00  0.00     0.045 A 
ATOM      2  C2  MOL d         122.129 131.945  63.638  0.00  0.00    -0.056 A 
ATOM      3  C3  MOL d         120.860 131.362  63.486  0.00  0.00    -0.080 A 
ATOM      4  C4  MOL d         119.707 132.052  63.883  0.00  0.00    -0.072 A 
ATOM      5  C5  MOL d         119.779 133.350  64.449  0.00  0.00    -0.022 A 
ATOM      6  C6  MOL d         118.587 134.025  64.837  0.00  0.00    -0.072 A 
ATOM      7  C7  MOL d         118.624 135.308  65.400  0.00  0.00    -0.081 A 
ATOM      8  C8  MOL d         119.853 135.955  65.593  0.00  0.00    -0.058 A 
ATOM      9  N   MOL d         123.491 133.760  64.331  0.00  0.00    -0.355 N 
ATOM     10  C9  MOL d         121.074 135.338  65.229  0.00  0.00     0.094 A 
ATOM     11  C10 MOL d         121.087 134.002  64.634  0.00  0.00     0.025 A 
ATOM     12  H1  MOL d         123.007 131.396  63.319  0.00  0.00     0.086 H 
ATOM     13  H2  MOL d         120.772 130.370  63.058  0.00  0.00     0.083 H 
ATOM     14  H3  MOL d         118.738 131.584  63.755  0.00  0.00     0.084 H 
ATOM     15  H4  MOL d         117.630 133.537  64.695  0.00  0.00     0.084 H 
ATOM     16  H5  MOL d         117.703 135.800  65.685  0.00  0.00     0.083 H 
ATOM     17  H6  MOL d         119.868 136.946  66.030  0.00  0.00     0.086 H 
ATOM     18  H7  MOL d         123.640 134.686  63.906  0.00  0.00     0.166 HD
ENDROOT
BRANCH   9  19
ATOM     19  C11 MOL d         124.535 133.217  64.938  0.00  0.00     0.032 A 
ATOM     20  C12 MOL d         124.427 132.286  66.038  0.00  0.00    -0.057 A 
ATOM     21  C13 MOL d         125.600 131.749  66.651  0.00  0.00    -0.081 A 
ATOM     22  H8  MOL d         123.449 131.993  66.400  0.00  0.00     0.086 H 
ATOM     23  C14 MOL d         126.887 132.136  66.175  0.00  0.00    -0.083 A 
ATOM     24  H9  MOL d         125.512 131.050  67.475  0.00  0.00     0.083 H 
ATOM     25  C15 MOL d         126.998 133.051  65.092  0.00  0.00    -0.081 A 
ATOM     26  H10 MOL d         127.780 131.733  66.638  0.00  0.00     0.083 H 
ATOM     27  C16 MOL d         125.830 133.588  64.480  0.00  0.00    -0.057 A 
ATOM     28  H11 MOL d         127.978 133.341  64.731  0.00  0.00     0.083 H 
ATOM     29  H12 MOL d         125.929 134.287  63.657  0.00  0.00     0.086 H 
ENDBRANCH   9  19
BRANCH  10  30
ATOM     30  S   MOL d         122.549 136.286  65.552  0.00  0.00     0.138 S 
ATOM     31  O1  MOL d         123.382 135.573  66.494  0.00  0.00    -0.591 OA
ATOM     32  O2  MOL d         122.130 137.577  66.068  0.00  0.00    -0.591 OA
ATOM     33  O3  MOL d         123.358 136.518  64.141  0.00  0.00    -0.591 OA
ENDBRANCH  10  30
TORSDOF 2
ENDMDL
MODEL 3
REMARK VINA RESULT:      -6.9      2.767      4.162
REMARK  2 active torsions:
REMARK  status: ('A' for Active; 'I' for Inactive)
REMARK    1  A    between atoms: N_9  and  C11_13 
REMARK    2  A    between atoms: C9_11  and  S_10 
ROOT
ATOM      1  C1  MOL d         122.527 133.264  64.233  0.00  0.00     0.045 A 
ATOM      2  C2  MOL d         122.475 131.952  63.656  0.00  0.00    -0.056 A 
ATOM      3  C3  MOL d         121.252 131.290  63.455  0.00  0.00    -0.080 A 
ATOM      4  C4  MOL d         120.043 131.906  63.808  0.00  0.00    -0.072 A 
ATOM      5  C5  MOL d         120.011 133.203  64.378  0.00  0.00    -0.022 A 
ATOM      6  C6  MOL d         118.766 133.801  64.720  0.00  0.00    -0.072 A 
ATOM      7  C7  MOL d         118.700 135.081  65.285  0.00  0.00    -0.081 A 
ATOM      8  C8  MOL d         119.877 135.803  65.526  0.00  0.00    -0.058 A 
ATOM      9  N   MOL d         123.692 133.846  64.402  0.00  0.00    -0.355 N 
ATOM     10  C9  MOL d         121.148 135.266  65.209  0.00  0.00     0.094 A 
ATOM     11  C10 MOL d         121.268 133.935  64.613  0.00  0.00     0.025 A 
ATOM     12  H1  MOL d         123.397 131.461  63.370  0.00  0.00     0.086 H 
ATOM     13  H2  MOL d         121.243 130.297  63.023  0.00  0.00     0.083 H 
ATOM     14  H3  MOL d         119.112 131.377  63.642  0.00  0.00     0.084 H 
ATOM     15  H4  MOL d         117.848 133.253  64.540  0.00  0.00     0.084 H 
ATOM     16  H5  MOL d         117.739 135.513  65.535  0.00  0.00     0.083 H 
ATOM     17  H6  MOL d         119.812 136.793  65.964  0.00  0.00     0.086 H 
ATOM     18  H7  MOL d         123.799 134.782  63.984  0.00  0.00     0.166 HD
ENDROOT
BRANCH   9  19
ATOM     19  C11 MOL d         124.744 133.369  65.049  0.00  0.00     0.032 A 
ATOM     20  C12 MOL d         126.103 133.502  64.575  0.00  0.00    -0.057 A 
ATOM     21  C13 MOL d         127.189 132.951  65.322  0.00  0.00    -0.081 A 
ATOM     22  H8  MOL d         126.300 134.023  63.646  0.00  0.00     0.086 H 
ATOM     23  C14 MOL d         126.929 132.264  66.544  0.00  0.00    -0.083 A 
ATOM     24  H9  MOL d         128.205 133.055  64.962  0.00  0.00     0.083 H 
ATOM     25  C15 MOL d         125.594 132.131  67.015  0.00  0.00    -0.081 A 
ATOM     26  H10 MOL d         127.748 131.842  67.114  0.00  0.00     0.083 H 
ATOM     27  C16 MOL d         124.510 132.678  66.271  0.00  0.00    -0.057 A 
ATOM     28  H11 MOL d         125.400 131.610  67.945  0.00  0.00     0.083 H 
ATOM     29  H12 MOL d         123.497 132.568  66.640  0.00  0.00     0.086 H 
ENDBRANCH   9  19
BRANCH  10  30
ATOM     30  S   MOL d         122.546 136.304  65.589  0.00  0.00     0.138 S 
ATOM     31  O1  MOL d         123.367 135.658  66.589  0.00  0.00    -0.591 OA
ATOM     32  O2  MOL d         122.027 137.577  66.055  0.00  0.00    -0.591 OA
ATOM     33  O3  MOL d         123.416 136.557  64.218  0.00  0.00    -0.591 OA
ENDBRANCH  10  30
TORSDOF 2
ENDMDL
MODEL 4
REMARK VINA RESULT:      -6.5      0.771      1.441
REMARK  2 active torsions:
REMARK  status: ('A' for Active; 'I' for Inactive)
REMARK    1  A    between atoms: N_9  and  C11_13 
REMARK    2  A    between atoms: C9_11  and  S_10 
ROOT
ATOM      1  C1  MOL d         122.142 135.031  65.601  0.00  0.00     0.045 A 
ATOM      2  C2  MOL d         121.647 136.195  66.278  0.00  0.00    -0.056 A 
ATOM      3  C3  MOL d         120.280 136.517  66.272  0.00  0.00    -0.080 A 
ATOM      4  C4  MOL d         119.358 135.697  65.607  0.00  0.00    -0.072 A 
ATOM      5  C5  MOL d         119.768 134.527  64.920  0.00  0.00    -0.022 A 
ATOM      6  C6  MOL d         118.805 133.714  64.259  0.00  0.00    -0.072 A 
ATOM      7  C7  MOL d         119.178 132.552  63.572  0.00  0.00    -0.081 A 
ATOM      8  C8  MOL d         120.525 132.166  63.523  0.00  0.00    -0.058 A 
ATOM      9  N   MOL d         123.428 134.766  65.634  0.00  0.00    -0.355 N 
ATOM     10  C9  MOL d         121.532 132.930  64.160  0.00  0.00     0.094 A 
ATOM     11  C10 MOL d         121.192 134.150  64.894  0.00  0.00     0.025 A 
ATOM     12  H1  MOL d         122.342 136.839  66.804  0.00  0.00     0.086 H 
ATOM     13  H2  MOL d         119.935 137.406  66.786  0.00  0.00     0.083 H 
ATOM     14  H3  MOL d         118.308 135.965  65.617  0.00  0.00     0.084 H 
ATOM     15  H4  MOL d         117.760 134.001  64.287  0.00  0.00     0.084 H 
ATOM     16  H5  MOL d         118.424 131.950  63.078  0.00  0.00     0.083 H 
ATOM     17  H6  MOL d         120.800 131.265  62.988  0.00  0.00     0.086 H 
ATOM     18  H7  MOL d         123.693 133.830  65.972  0.00  0.00     0.166 HD
ENDROOT
BRANCH   9  19
ATOM     19  C11 MOL d         124.423 135.565  65.281  0.00  0.00     0.032 A 
ATOM     20  C12 MOL d         125.767 135.448  65.800  0.00  0.00    -0.057 A 
ATOM     21  C13 MOL d         126.789 136.354  65.381  0.00  0.00    -0.081 A 
ATOM     22  H8  MOL d         126.001 134.667  66.514  0.00  0.00     0.086 H 
ATOM     23  C14 MOL d         126.479 137.383  64.443  0.00  0.00    -0.083 A 
ATOM     24  H9  MOL d         127.794 136.260  65.773  0.00  0.00     0.083 H 
ATOM     25  C15 MOL d         125.159 137.502  63.928  0.00  0.00    -0.081 A 
ATOM     26  H10 MOL d         127.249 138.074  64.123  0.00  0.00     0.083 H 
ATOM     27  C16 MOL d         124.139 136.600  64.346  0.00  0.00    -0.057 A 
ATOM     28  H11 MOL d         124.928 138.283  63.213  0.00  0.00     0.083 H 
ATOM     29  H12 MOL d         123.136 136.703  63.948  0.00  0.00     0.086 H 
ENDBRANCH   9  19
BRANCH  10  30
ATOM     30  S   MOL d         123.196 132.314  63.993  0.00  0.00     0.138 S 
ATOM     31  O1  MOL d         124.009 133.299  63.315  0.00  0.00    -0.591 OA
ATOM     32  O2  MOL d         123.124 131.067  63.251  0.00  0.00    -0.591 OA
ATOM     33  O3  MOL d         123.807 132.005  65.487  0.00  0.00    -0.591 OA
ENDBRANCH  10  30
TORSDOF 2
ENDMDL
MODEL 5
REMARK VINA RESULT:      -5.6      1.602      5.370
REMARK  2 active torsions:
REMARK  status: ('A' for Active; 'I' for Inactive)
REMARK    1  A    between atoms: N_9  and  C11_13 
REMARK    2  A    between atoms: C9_11  and  S_10 
ROOT
ATOM      1  C1  MOL d         123.727 134.991  64.203  0.00  0.00     0.045 A 
ATOM      2  C2  MOL d         123.615 136.408  64.008  0.00  0.00    -0.056 A 
ATOM      3  C3  MOL d         124.699 137.268  64.254  0.00  0.00    -0.080 A 
ATOM      4  C4  MOL d         125.928 136.756  64.691  0.00  0.00    -0.072 A 
ATOM      5  C5  MOL d         126.120 135.368  64.902  0.00  0.00    -0.022 A 
ATOM      6  C6  MOL d         127.383 134.882  65.342  0.00  0.00    -0.072 A 
ATOM      7  C7  MOL d         127.605 133.516  65.559  0.00  0.00    -0.081 A 
ATOM      8  C8  MOL d         126.571 132.593  65.344  0.00  0.00    -0.058 A 
ATOM      9  N   MOL d         122.690 134.224  63.959  0.00  0.00    -0.355 N 
ATOM     10  C9  MOL d         125.292 133.011  64.907  0.00  0.00     0.094 A 
ATOM     11  C10 MOL d         125.012 134.427  64.662  0.00  0.00     0.025 A 
ATOM     12  H1  MOL d         122.675 136.824  63.664  0.00  0.00     0.086 H 
ATOM     13  H2  MOL d         124.583 138.335  64.104  0.00  0.00     0.083 H 
ATOM     14  H3  MOL d         126.750 137.438  64.874  0.00  0.00     0.084 H 
ATOM     15  H4  MOL d         128.191 135.583  65.513  0.00  0.00     0.084 H 
ATOM     16  H5  MOL d         128.577 133.172  65.893  0.00  0.00     0.083 H 
ATOM     17  H6  MOL d         126.756 131.539  65.517  0.00  0.00     0.086 H 
ATOM     18  H7  MOL d         122.843 133.446  63.302  0.00  0.00     0.166 HD
ENDROOT
BRANCH   9  19
ATOM     19  C11 MOL d         121.470 134.337  64.461  0.00  0.00     0.032 A 
ATOM     20  C12 MOL d         121.114 135.282  65.495  0.00  0.00    -0.057 A 
ATOM     21  C13 MOL d         119.777 135.340  65.996  0.00  0.00    -0.081 A 
ATOM     22  H8  MOL d         121.866 135.953  65.893  0.00  0.00     0.086 H 
ATOM     23  C14 MOL d         118.788 134.456  65.473  0.00  0.00    -0.083 A 
ATOM     24  H9  MOL d         119.517 136.052  66.770  0.00  0.00     0.083 H 
ATOM     25  C15 MOL d         119.133 133.525  64.456  0.00  0.00    -0.081 A 
ATOM     26  H10 MOL d         117.773 134.494  65.851  0.00  0.00     0.083 H 
ATOM     27  C16 MOL d         120.465 133.465  63.955  0.00  0.00    -0.057 A 
ATOM     28  H11 MOL d         118.378 132.856  64.059  0.00  0.00     0.083 H 
ATOM     29  H12 MOL d         120.716 132.749  63.182  0.00  0.00     0.086 H 
ENDBRANCH   9  19
BRANCH  10  30
ATOM     30  S   MOL d         124.083 131.719  64.695  0.00  0.00     0.138 S 
ATOM     31  O1  MOL d         122.997 131.917  65.629  0.00  0.00    -0.591 OA
ATOM     32  O2  MOL d         124.760 130.453  64.913  0.00  0.00    -0.591 OA
ATOM     33  O3  MOL d         123.519 131.759  63.152  0.00  0.00    -0.591 OA
ENDBRANCH  10  30
TORSDOF 2
ENDMDL
MODEL 6
REMARK VINA RESULT:      -5.4      1.576      5.407
REMARK  2 active torsions:
REMARK  status: ('A' for Active; 'I' for Inactive)
REMARK    1  A    between atoms: N_9  and  C11_13 
REMARK    2  A    between atoms: C9_11  and  S_10 
ROOT
ATOM      1  C1  MOL d         123.959 135.125  64.191  0.00  0.00     0.045 A 
ATOM      2  C2  MOL d         123.809 136.515  63.867  0.00  0.00    -0.056 A 
ATOM      3  C3  MOL d         124.871 137.421  64.027  0.00  0.00    -0.080 A 
ATOM      4  C4  MOL d         126.114 136.984  64.503  0.00  0.00    -0.072 A 
ATOM      5  C5  MOL d         126.342 135.626  64.840  0.00  0.00    -0.022 A 
ATOM      6  C6  MOL d         127.619 135.214  65.317  0.00  0.00    -0.072 A 
ATOM      7  C7  MOL d         127.876 133.881  65.658  0.00  0.00    -0.081 A 
ATOM      8  C8  MOL d         126.866 132.916  65.535  0.00  0.00    -0.058 A 
ATOM      9  N   MOL d         122.941 134.313  64.024  0.00  0.00    -0.355 N 
ATOM     10  C9  MOL d         125.575 133.260  65.067  0.00  0.00     0.094 A 
ATOM     11  C10 MOL d         125.259 134.638  64.694  0.00  0.00     0.025 A 
ATOM     12  H1  MOL d         122.858 136.873  63.491  0.00  0.00     0.086 H 
ATOM     13  H2  MOL d         124.728 138.466  63.779  0.00  0.00     0.083 H 
ATOM     14  H3  MOL d         126.919 137.700  64.618  0.00  0.00     0.084 H 
ATOM     15  H4  MOL d         128.409 135.949  65.418  0.00  0.00     0.084 H 
ATOM     16  H5  MOL d         128.858 133.593  66.018  0.00  0.00     0.083 H 
ATOM     17  H6  MOL d         127.078 131.888  65.803  0.00  0.00     0.086 H 
ATOM     18  H7  MOL d         123.112 133.481  63.441  0.00  0.00     0.166 HD
ENDROOT
BRANCH   9  19
ATOM     19  C11 MOL d         121.719 134.441  64.520  0.00  0.00     0.032 A 
ATOM     20  C12 MOL d         120.575 133.710  64.027  0.00  0.00    -0.057 A 
ATOM     21  C13 MOL d         119.283 133.907  64.606  0.00  0.00    -0.081 A 
ATOM     22  H8  MOL d         120.696 133.007  63.212  0.00  0.00     0.086 H 
ATOM     23  C14 MOL d         119.124 134.834  65.678  0.00  0.00    -0.083 A 
ATOM     24  H9  MOL d         118.429 133.355  64.232  0.00  0.00     0.083 H 
ATOM     25  C15 MOL d         120.248 135.555  66.167  0.00  0.00    -0.081 A 
ATOM     26  H10 MOL d         118.147 134.989  66.119  0.00  0.00     0.083 H 
ATOM     27  C16 MOL d         121.535 135.360  65.591  0.00  0.00    -0.057 A 
ATOM     28  H11 MOL d         120.124 136.257  66.984  0.00  0.00     0.083 H 
ATOM     29  H12 MOL d         122.383 135.918  65.972  0.00  0.00     0.086 H 
ENDBRANCH   9  19
BRANCH  10  30
ATOM     30  S   MOL d         124.399 131.922  64.982  0.00  0.00     0.138 S 
ATOM     31  O1  MOL d         123.349 132.142  65.951  0.00  0.00    -0.591 OA
ATOM     32  O2  MOL d         125.125 130.691  65.238  0.00  0.00    -0.591 OA
ATOM     33  O3  MOL d         123.768 131.859  63.466  0.00  0.00    -0.591 OA
ENDBRANCH  10  30
TORSDOF 2
ENDMDL
MODEL 7
REMARK VINA RESULT:      -5.3      2.826      6.305
REMARK  2 active torsions:
REMARK  status: ('A' for Active; 'I' for Inactive)
REMARK    1  A    between atoms: N_9  and  C11_13 
REMARK    2  A    between atoms: C9_11  and  S_10 
ROOT
ATOM      1  C1  MOL d         124.240 132.925  65.309  0.00  0.00     0.045 A 
ATOM      2  C2  MOL d         124.399 131.521  65.556  0.00  0.00    -0.056 A 
ATOM      3  C3  MOL d         125.672 130.931  65.626  0.00  0.00    -0.080 A 
ATOM      4  C4  MOL d         126.827 131.708  65.463  0.00  0.00    -0.072 A 
ATOM      5  C5  MOL d         126.753 133.103  65.222  0.00  0.00    -0.022 A 
ATOM      6  C6  MOL d         127.946 133.863  65.066  0.00  0.00    -0.072 A 
ATOM      7  C7  MOL d         127.907 135.243  64.827  0.00  0.00    -0.081 A 
ATOM      8  C8  MOL d         126.675 135.905  64.735  0.00  0.00    -0.058 A 
ATOM      9  N   MOL d         123.032 133.435  65.254  0.00  0.00    -0.355 N 
ATOM     10  C9  MOL d         125.452 135.207  64.880  0.00  0.00     0.094 A 
ATOM     11  C10 MOL d         125.441 133.767  65.135  0.00  0.00     0.025 A 
ATOM     12  H1  MOL d         123.519 130.903  65.691  0.00  0.00     0.086 H 
ATOM     13  H2  MOL d         125.762 129.866  65.807  0.00  0.00     0.083 H 
ATOM     14  H3  MOL d         127.799 131.232  65.522  0.00  0.00     0.084 H 
ATOM     15  H4  MOL d         128.906 133.364  65.134  0.00  0.00     0.084 H 
ATOM     16  H5  MOL d         128.830 135.799  64.713  0.00  0.00     0.083 H 
ATOM     17  H6  MOL d         126.659 136.973  64.548  0.00  0.00     0.086 H 
ATOM     18  H7  MOL d         122.844 134.231  65.881  0.00  0.00     0.166 HD
ENDROOT
BRANCH   9  19
ATOM     19  C11 MOL d         122.028 133.045  64.484  0.00  0.00     0.032 A 
ATOM     20  C12 MOL d         122.095 131.907  63.597  0.00  0.00    -0.057 A 
ATOM     21  C13 MOL d         120.973 131.550  62.787  0.00  0.00    -0.081 A 
ATOM     22  H8  MOL d         123.003 131.318  63.545  0.00  0.00     0.086 H 
ATOM     23  C14 MOL d         119.779 132.326  62.854  0.00  0.00    -0.083 A 
ATOM     24  H9  MOL d         121.030 130.695  62.124  0.00  0.00     0.083 H 
ATOM     25  C15 MOL d         119.707 133.447  63.727  0.00  0.00    -0.081 A 
ATOM     26  H10 MOL d         118.925 132.062  62.241  0.00  0.00     0.083 H 
ATOM     27  C16 MOL d         120.825 133.804  64.534  0.00  0.00    -0.057 A 
ATOM     28  H11 MOL d         118.797 134.033  63.778  0.00  0.00     0.083 H 
ATOM     29  H12 MOL d         120.758 134.662  65.193  0.00  0.00     0.086 H 
ENDBRANCH   9  19
BRANCH  10  30
ATOM     30  S   MOL d         123.974 136.191  64.722  0.00  0.00     0.138 S 
ATOM     31  O1  MOL d         123.210 135.732  63.583  0.00  0.00    -0.591 OA
ATOM     32  O2  MOL d         124.388 137.575  64.575  0.00  0.00    -0.591 OA
ATOM     33  O3  MOL d         123.084 136.047  66.096  0.00  0.00    -0.591 OA
ENDBRANCH  10  30
TORSDOF 2
ENDMDL
MODEL 8
REMARK VINA RESULT:      -5.1      2.090      5.772
REMARK  2 active torsions:
REMARK  status: ('A' for Active; 'I' for Inactive)
REMARK    1  A    between atoms: N_9  and  C11_13 
REMARK    2  A    between atoms: C9_11  and  S_10 
ROOT
ATOM      1  C1  MOL d         124.226 134.725  64.458  0.00  0.00     0.045 A 
ATOM      2  C2  MOL d         123.565 135.660  63.594  0.00  0.00    -0.056 A 
ATOM      3  C3  MOL d         123.672 137.046  63.799  0.00  0.00    -0.080 A 
ATOM      4  C4  MOL d         124.439 137.552  64.857  0.00  0.00    -0.072 A 
ATOM      5  C5  MOL d         125.127 136.692  65.750  0.00  0.00    -0.022 A 
ATOM      6  C6  MOL d         125.902 137.240  66.811  0.00  0.00    -0.072 A 
ATOM      7  C7  MOL d         126.593 136.418  67.711  0.00  0.00    -0.081 A 
ATOM      8  C8  MOL d         126.530 135.024  67.579  0.00  0.00    -0.058 A 
ATOM      9  N   MOL d         124.100 133.438  64.229  0.00  0.00    -0.355 N 
ATOM     10  C9  MOL d         125.777 134.416  66.547  0.00  0.00     0.094 A 
ATOM     11  C10 MOL d         125.042 135.232  65.579  0.00  0.00     0.025 A 
ATOM     12  H1  MOL d         122.971 135.290  62.766  0.00  0.00     0.086 H 
ATOM     13  H2  MOL d         123.157 137.729  63.134  0.00  0.00     0.083 H 
ATOM     14  H3  MOL d         124.509 138.624  64.995  0.00  0.00     0.084 H 
ATOM     15  H4  MOL d         125.959 138.316  66.926  0.00  0.00     0.084 H 
ATOM     16  H5  MOL d         127.177 136.861  68.509  0.00  0.00     0.083 H 
ATOM     17  H6  MOL d         127.068 134.399  68.283  0.00  0.00     0.086 H 
ATOM     18  H7  MOL d         124.976 132.905  64.130  0.00  0.00     0.166 HD
ENDROOT
BRANCH   9  19
ATOM     19  C11 MOL d         122.976 132.747  64.110  0.00  0.00     0.032 A 
ATOM     20  C12 MOL d         121.662 133.318  64.300  0.00  0.00    -0.057 A 
ATOM     21  C13 MOL d         120.493 132.508  64.165  0.00  0.00    -0.081 A 
ATOM     22  H8  MOL d         121.562 134.368  64.546  0.00  0.00     0.086 H 
ATOM     23  C14 MOL d         120.626 131.125  63.843  0.00  0.00    -0.083 A 
ATOM     24  H9  MOL d         119.511 132.942  64.308  0.00  0.00     0.083 H 
ATOM     25  C15 MOL d         121.916 130.559  63.655  0.00  0.00    -0.081 A 
ATOM     26  H10 MOL d         119.743 130.505  63.742  0.00  0.00     0.083 H 
ATOM     27  C16 MOL d         123.083 131.365  63.789  0.00  0.00    -0.057 A 
ATOM     28  H11 MOL d         122.013 129.509  63.407  0.00  0.00     0.083 H 
ATOM     29  H12 MOL d         124.061 130.921  63.646  0.00  0.00     0.086 H 
ENDBRANCH   9  19
BRANCH  10  30
ATOM     30  S   MOL d         125.787 132.633  66.524  0.00  0.00     0.138 S 
ATOM     31  O1  MOL d         126.286 132.171  65.249  0.00  0.00    -0.591 OA
ATOM     32  O2  MOL d         124.425 132.190  66.766  0.00  0.00    -0.591 OA
ATOM     33  O3  MOL d         126.745 132.086  67.742  0.00  0.00    -0.591 OA
ENDBRANCH  10  30
TORSDOF 2
ENDMDL
MODEL 9
REMARK VINA RESULT:      -4.9      1.649      5.223
REMARK  2 active torsions:
REMARK  status: ('A' for Active; 'I' for Inactive)
REMARK    1  A    between atoms: N_9  and  C11_13 
REMARK    2  A    between atoms: C9_11  and  S_10 
ROOT
ATOM      1  C1  MOL d         122.824 134.787  64.983  0.00  0.00     0.045 A 
ATOM      2  C2  MOL d         122.323 136.128  65.082  0.00  0.00    -0.056 A 
ATOM      3  C3  MOL d         122.924 137.072  65.932  0.00  0.00    -0.080 A 
ATOM      4  C4  MOL d         124.042 136.726  66.702  0.00  0.00    -0.072 A 
ATOM      5  C5  MOL d         124.600 135.424  66.655  0.00  0.00    -0.022 A 
ATOM      6  C6  MOL d         125.739 135.108  67.447  0.00  0.00    -0.072 A 
ATOM      7  C7  MOL d         126.314 133.831  67.423  0.00  0.00    -0.081 A 
ATOM      8  C8  MOL d         125.768 132.830  66.608  0.00  0.00    -0.058 A 
ATOM      9  N   MOL d         122.233 133.938  64.175  0.00  0.00    -0.355 N 
ATOM     10  C9  MOL d         124.636 133.079  65.796  0.00  0.00     0.094 A 
ATOM     11  C10 MOL d         124.002 134.398  65.783  0.00  0.00     0.025 A 
ATOM     12  H1  MOL d         121.462 136.418  64.490  0.00  0.00     0.086 H 
ATOM     13  H2  MOL d         122.519 138.076  65.991  0.00  0.00     0.083 H 
ATOM     14  H3  MOL d         124.490 137.471  67.349  0.00  0.00     0.084 H 
ATOM     15  H4  MOL d         126.172 135.872  68.083  0.00  0.00     0.084 H 
ATOM     16  H5  MOL d         127.183 133.617  68.035  0.00  0.00     0.083 H 
ATOM     17  H6  MOL d         126.222 131.845  66.599  0.00  0.00     0.086 H 
ATOM     18  H7  MOL d         122.836 133.475  63.480  0.00  0.00     0.166 HD
ENDROOT
BRANCH   9  19
ATOM     19  C11 MOL d         120.951 133.608  64.152  0.00  0.00     0.032 A 
ATOM     20  C12 MOL d         120.421 132.508  63.380  0.00  0.00    -0.057 A 
ATOM     21  C13 MOL d         119.022 132.217  63.396  0.00  0.00    -0.081 A 
ATOM     22  H8  MOL d         121.089 131.899  62.783  0.00  0.00     0.086 H 
ATOM     23  C14 MOL d         118.143 133.020  64.180  0.00  0.00    -0.083 A 
ATOM     24  H9  MOL d         118.631 131.390  62.815  0.00  0.00     0.083 H 
ATOM     25  C15 MOL d         118.660 134.103  64.943  0.00  0.00    -0.081 A 
ATOM     26  H10 MOL d         117.081 132.806  64.195  0.00  0.00     0.083 H 
ATOM     27  C16 MOL d         120.053 134.395  64.927  0.00  0.00    -0.057 A 
ATOM     28  H11 MOL d         117.989 134.710  65.540  0.00  0.00     0.083 H 
ATOM     29  H12 MOL d         120.434 135.225  65.512  0.00  0.00     0.086 H 
ENDBRANCH   9  19
BRANCH  10  30
ATOM     30  S   MOL d         124.055 131.699  64.829  0.00  0.00     0.138 S 
ATOM     31  O1  MOL d         123.944 132.095  63.443  0.00  0.00    -0.591 OA
ATOM     32  O2  MOL d         122.774 131.292  65.381  0.00  0.00    -0.591 OA
ATOM     33  O3  MOL d         125.115 130.453  64.980  0.00  0.00    -0.591 OA
ENDBRANCH  10  30
TORSDOF 2
ENDMDL
MODEL 10
REMARK VINA RESULT:      -4.8      2.572      3.951
REMARK  2 active torsions:
REMARK  status: ('A' for Active; 'I' for Inactive)
REMARK    1  A    between atoms: N_9  and  C11_13 
REMARK    2  A    between atoms: C9_11  and  S_10 
ROOT
ATOM      1  C1  MOL d         122.532 132.797  64.126  0.00  0.00     0.045 A 
ATOM      2  C2  MOL d         123.227 131.681  63.550  0.00  0.00    -0.056 A 
ATOM      3  C3  MOL d         122.532 130.593  62.997  0.00  0.00    -0.080 A 
ATOM      4  C4  MOL d         121.130 130.575  62.988  0.00  0.00    -0.072 A 
ATOM      5  C5  MOL d         120.372 131.641  63.532  0.00  0.00    -0.022 A 
ATOM      6  C6  MOL d         118.950 131.593  63.502  0.00  0.00    -0.072 A 
ATOM      7  C7  MOL d         118.172 132.630  64.031  0.00  0.00    -0.081 A 
ATOM      8  C8  MOL d         118.790 133.748  64.608  0.00  0.00    -0.058 A 
ATOM      9  N   MOL d         123.222 133.793  64.630  0.00  0.00    -0.355 N 
ATOM     10  C9  MOL d         120.200 133.858  64.671  0.00  0.00     0.094 A 
ATOM     11  C10 MOL d         121.056 132.803  64.127  0.00  0.00     0.025 A 
ATOM     12  H1  MOL d         124.311 131.678  63.541  0.00  0.00     0.086 H 
ATOM     13  H2  MOL d         123.083 129.761  62.575  0.00  0.00     0.083 H 
ATOM     14  H3  MOL d         120.615 129.725  62.555  0.00  0.00     0.084 H 
ATOM     15  H4  MOL d         118.458 130.734  63.059  0.00  0.00     0.084 H 
ATOM     16  H5  MOL d         117.090 132.569  63.994  0.00  0.00     0.083 H 
ATOM     17  H6  MOL d         118.176 134.543  65.015  0.00  0.00     0.086 H 
ATOM     18  H7  MOL d         122.999 134.732  64.267  0.00  0.00     0.166 HD
ENDROOT
BRANCH   9  19
ATOM     19  C11 MOL d         124.171 133.731  65.551  0.00  0.00     0.032 A 
ATOM     20  C12 MOL d         124.144 132.815  66.668  0.00  0.00    -0.057 A 
ATOM     21  C13 MOL d         125.200 132.812  67.630  0.00  0.00    -0.081 A 
ATOM     22  H8  MOL d         123.315 132.125  66.777  0.00  0.00     0.086 H 
ATOM     23  C14 MOL d         126.288 133.721  67.487  0.00  0.00    -0.083 A 
ATOM     24  H9  MOL d         125.173 132.121  68.465  0.00  0.00     0.083 H 
ATOM     25  C15 MOL d         126.321 134.624  66.389  0.00  0.00    -0.081 A 
ATOM     26  H10 MOL d         127.091 133.724  68.214  0.00  0.00     0.083 H 
ATOM     27  C16 MOL d         125.268 134.629  65.429  0.00  0.00    -0.057 A 
ATOM     28  H11 MOL d         127.151 135.312  66.281  0.00  0.00     0.083 H 
ATOM     29  H12 MOL d         125.304 135.324  64.598  0.00  0.00     0.086 H 
ENDBRANCH   9  19
BRANCH  10  30
ATOM     30  S   MOL d         120.830 135.333  65.448  0.00  0.00     0.138 S 
ATOM     31  O1  MOL d         121.701 136.028  64.527  0.00  0.00    -0.591 OA
ATOM     32  O2  MOL d         121.532 134.922  66.651  0.00  0.00    -0.591 OA
ATOM     33  O3  MOL d         119.569 136.296  65.874  0.00  0.00    -0.591 OA
ENDBRANCH  10  30
TORSDOF 2
ENDMDL
