MODEL 1
REMARK VINA RESULT:      -7.3      0.000      0.000
REMARK  19 active torsions:
REMARK  status: ('A' for Active; 'I' for Inactive)
REMARK    1  A    between atoms: NA1_2  and  OA7_3 
REMARK    2  A    between atoms: CA2_4  and  OA2_5 
REMARK    3  A    between atoms: CA3_6  and  OA3_7 
REMARK    4  A    between atoms: CA4_8  and  OA4_9 
REMARK    5  A    between atoms: OA4_9  and  CB1_14 
REMARK    6  A    between atoms: CA5_10  and  CA6_12 
REMARK    7  A    between atoms: CA6_12  and  OA6_13 
REMARK    8  A    between atoms: CB2_15  and  OB2_20 
REMARK    9  A    between atoms: CB3_16  and  OB3_21 
REMARK   10  A    between atoms: CB4_17  and  OB4_22 
REMARK   11  A    between atoms: CB5_18  and  CB6_19 
REMARK   12  A    between atoms: CB6_19  and  OB6_24 
REMARK   13  A    between atoms: OB4_22  and  CD1_25 
REMARK   14  A    between atoms: CD2_26  and  OD2_31 
REMARK   15  A    between atoms: CD3_27  and  OD3_32 
REMARK   16  A    between atoms: CD4_28  and  OD4_33 
REMARK   17  A    between atoms: CD5_29  and  CD6_30 
REMARK   18  A    between atoms: CD6_30  and  OD6_35 
REMARK   19  A    between atoms: OD4_33  and  CD7_36 
ROOT
ATOM      1  CB1 MOL d          13.697  17.501  40.107  0.00  0.00     0.159 C 
ATOM      2  CB2 MOL d          13.487  17.894  38.568  0.00  0.00     0.110 C 
ATOM      3  CB3 MOL d          13.480  16.642  37.616  0.00  0.00     0.092 C 
ATOM      4  CB4 MOL d          14.851  15.914  37.800  0.00  0.00     0.096 C 
ATOM      5  CB5 MOL d          14.947  15.446  39.398  0.00  0.00     0.089 C 
ATOM      6  OB5 MOL d          14.910  16.657  40.250  0.00  0.00    -0.348 OA
ATOM      7  H12 MOL d          13.838  18.416  40.700  0.00  0.00     0.133 H 
ATOM      8  H13 MOL d          14.326  18.535  38.259  0.00  0.00     0.094 H 
ATOM      9  H14 MOL d          12.656  15.962  37.881  0.00  0.00     0.091 H 
ATOM     10  H15 MOL d          15.683  16.589  37.552  0.00  0.00     0.091 H 
ATOM     11  H16 MOL d          14.094  14.793  39.631  0.00  0.00     0.090 H 
ENDROOT
BRANCH   4  12
ATOM     12  OB4 MOL d          14.880  14.779  36.950  0.00  0.00    -0.348 OA
BRANCH  12  13
ATOM     13  CD1 MOL d          16.043  14.814  36.057  0.00  0.00     0.159 C 
ATOM     14  CD2 MOL d          15.691  14.750  34.516  0.00  0.00     0.110 C 
ATOM     15  CD3 MOL d          14.969  13.362  34.228  0.00  0.00     0.092 C 
ATOM     16  H23 MOL d          16.607  14.820  33.911  0.00  0.00     0.094 H 
ATOM     17  CD4 MOL d          15.959  12.205  34.576  0.00  0.00     0.092 C 
ATOM     18  H24 MOL d          14.055  13.279  34.835  0.00  0.00     0.091 H 
ATOM     19  CD5 MOL d          16.351  12.312  36.162  0.00  0.00     0.089 C 
ATOM     20  H25 MOL d          16.866  12.300  33.960  0.00  0.00     0.091 H 
ATOM     21  OD5 MOL d          16.956  13.664  36.405  0.00  0.00    -0.348 OA
ATOM     22  H26 MOL d          15.441  12.202  36.769  0.00  0.00     0.090 H 
ATOM     23  H22 MOL d          16.577  15.758  36.238  0.00  0.00     0.133 H 
BRANCH  14  24
ATOM     24  OD2 MOL d          14.830  15.869  34.225  0.00  0.00    -0.388 OA
ATOM     25  H29 MOL d          15.235  16.669  34.538  0.00  0.00     0.210 HD
ENDBRANCH  14  24
BRANCH  15  26
ATOM     26  OD3 MOL d          14.650  13.278  32.862  0.00  0.00    -0.390 OA
ATOM     27  H30 MOL d          14.705  14.142  32.471  0.00  0.00     0.210 HD
ENDBRANCH  15  26
BRANCH  17  28
ATOM     28  OD4 MOL d          15.333  10.899  34.329  0.00  0.00    -0.385 OA
BRANCH  28  29
ATOM     29  CD7 MOL d          15.903  10.155  33.219  0.00  0.00     0.005 C 
ATOM     30  H32 MOL d          15.742   9.078  33.378  0.00  0.00     0.066 H 
ATOM     31  H33 MOL d          16.982  10.359  33.156  0.00  0.00     0.066 H 
ATOM     32  H34 MOL d          15.415  10.464  32.282  0.00  0.00     0.066 H 
ENDBRANCH  28  29
ENDBRANCH  17  28
BRANCH  19  33
ATOM     33  CD6 MOL d          17.362  11.197  36.561  0.00  0.00     0.043 C 
ATOM     34  H27 MOL d          17.758  11.417  37.563  0.00  0.00     0.078 H 
ATOM     35  H28 MOL d          18.188  11.188  35.834  0.00  0.00     0.078 H 
BRANCH  33  36
ATOM     36  OD6 MOL d          16.745   9.905  36.579  0.00  0.00    -0.398 OA
ATOM     37  H31 MOL d          15.821   9.994  36.375  0.00  0.00     0.209 HD
ENDBRANCH  33  36
ENDBRANCH  19  33
ENDBRANCH  12  13
ENDBRANCH   4  12
BRANCH   3  38
ATOM     38  OB3 MOL d          13.311  17.101  36.252  0.00  0.00    -0.390 OA
ATOM     39  H20 MOL d          14.019  17.695  36.029  0.00  0.00     0.210 HD
ENDBRANCH   3  38
BRANCH   5  40
ATOM     40  CB6 MOL d          16.237  14.717  39.719  0.00  0.00     0.043 C 
ATOM     41  H17 MOL d          17.088  15.314  39.361  0.00  0.00     0.078 H 
ATOM     42  H18 MOL d          16.236  13.741  39.212  0.00  0.00     0.078 H 
BRANCH  40  43
ATOM     43  OB6 MOL d          16.363  14.521  41.087  0.00  0.00    -0.398 OA
ATOM     44  H21 MOL d          17.016  15.118  41.432  0.00  0.00     0.209 HD
ENDBRANCH  40  43
ENDBRANCH   5  40
BRANCH   2  45
ATOM     45  OB2 MOL d          12.266  18.664  38.470  0.00  0.00    -0.388 OA
ATOM     46  H19 MOL d          11.598  18.142  38.042  0.00  0.00     0.210 HD
ENDBRANCH   2  45
BRANCH   1  47
ATOM     47  OA4 MOL d          12.520  16.844  40.556  0.00  0.00    -0.348 OA
BRANCH  47  48
ATOM     48  CA4 MOL d          12.431  16.761  41.876  0.00  0.00     0.090 C 
ATOM     49  CA3 MOL d          11.536  17.940  42.407  0.00  0.00     0.094 C 
ATOM     50  CA2 MOL d          10.982  17.599  43.835  0.00  0.00     0.121 C 
ATOM     51  H4  MOL d          10.683  18.051  41.721  0.00  0.00     0.091 H 
ATOM     52  CA1 MOL d          10.248  16.246  43.767  0.00  0.00     0.159 C 
ATOM     53  H2  MOL d          11.850  17.476  44.499  0.00  0.00     0.099 H 
ATOM     54  NA1 MOL d           9.179  16.070  44.528  0.00  0.00    -0.120 NA
ATOM     55  NA5 MOL d          10.714  15.190  42.924  0.00  0.00    -0.365 N 
ATOM     56  CA5 MOL d          11.862  15.384  42.018  0.00  0.00     0.059 C 
ATOM     57  H8  MOL d          10.240  14.276  42.949  0.00  0.00     0.161 HD
ATOM     58  H7  MOL d          11.553  15.059  41.014  0.00  0.00     0.079 H 
ATOM     59  H6  MOL d          13.417  16.820  42.359  0.00  0.00     0.090 H 
BRANCH  49  60
ATOM     60  OA3 MOL d          12.184  19.098  42.442  0.00  0.00    -0.390 OA
ATOM     61  H5  MOL d          12.482  19.266  43.329  0.00  0.00     0.210 HD
ENDBRANCH  49  60
BRANCH  50  62
ATOM     62  OA2 MOL d          10.217  18.558  44.381  0.00  0.00    -0.385 OA
ATOM     63  H3  MOL d           9.304  18.306  44.320  0.00  0.00     0.210 HD
ENDBRANCH  50  62
BRANCH  54  64
ATOM     64  OA7 MOL d           8.561  14.901  44.452  0.00  0.00    -0.265 OA
ATOM     65  H1  MOL d           8.627  14.455  45.288  0.00  0.00     0.247 HD
ENDBRANCH  54  64
BRANCH  56  66
ATOM     66  CA6 MOL d          12.984  14.438  42.554  0.00  0.00     0.038 C 
ATOM     67  H9  MOL d          13.684  14.210  41.737  0.00  0.00     0.077 H 
ATOM     68  H10 MOL d          12.526  13.505  42.915  0.00  0.00     0.077 H 
BRANCH  66  69
ATOM     69  OA6 MOL d          13.670  15.030  43.583  0.00  0.00    -0.399 OA
ATOM     70  H11 MOL d          14.547  14.667  43.627  0.00  0.00     0.209 HD
ENDBRANCH  66  69
ENDBRANCH  56  66
ENDBRANCH  47  48
ENDBRANCH   1  47
TORSDOF 19
ENDMDL
MODEL 2
REMARK VINA RESULT:      -6.6      1.683      2.497
REMARK  19 active torsions:
REMARK  status: ('A' for Active; 'I' for Inactive)
REMARK    1  A    between atoms: NA1_2  and  OA7_3 
REMARK    2  A    between atoms: CA2_4  and  OA2_5 
REMARK    3  A    between atoms: CA3_6  and  OA3_7 
REMARK    4  A    between atoms: CA4_8  and  OA4_9 
REMARK    5  A    between atoms: OA4_9  and  CB1_14 
REMARK    6  A    between atoms: CA5_10  and  CA6_12 
REMARK    7  A    between atoms: CA6_12  and  OA6_13 
REMARK    8  A    between atoms: CB2_15  and  OB2_20 
REMARK    9  A    between atoms: CB3_16  and  OB3_21 
REMARK   10  A    between atoms: CB4_17  and  OB4_22 
REMARK   11  A    between atoms: CB5_18  and  CB6_19 
REMARK   12  A    between atoms: CB6_19  and  OB6_24 
REMARK   13  A    between atoms: OB4_22  and  CD1_25 
REMARK   14  A    between atoms: CD2_26  and  OD2_31 
REMARK   15  A    between atoms: CD3_27  and  OD3_32 
REMARK   16  A    between atoms: CD4_28  and  OD4_33 
REMARK   17  A    between atoms: CD5_29  and  CD6_30 
REMARK   18  A    between atoms: CD6_30  and  OD6_35 
REMARK   19  A    between atoms: OD4_33  and  CD7_36 
ROOT
ATOM      1  CB1 MOL d          12.865  16.462  39.501  0.00  0.00     0.159 C 
ATOM      2  CB2 MOL d          12.860  16.944  37.972  0.00  0.00     0.110 C 
ATOM      3  CB3 MOL d          13.237  15.791  36.970  0.00  0.00     0.092 C 
ATOM      4  CB4 MOL d          14.662  15.283  37.366  0.00  0.00     0.096 C 
ATOM      5  CB5 MOL d          14.560  14.705  38.927  0.00  0.00     0.089 C 
ATOM      6  OB5 MOL d          14.164  15.819  39.821  0.00  0.00    -0.348 OA
ATOM      7  H12 MOL d          12.740  17.336  40.157  0.00  0.00     0.133 H 
ATOM      8  H13 MOL d          13.614  17.736  37.858  0.00  0.00     0.094 H 
ATOM      9  H14 MOL d          12.512  14.967  37.043  0.00  0.00     0.091 H 
ATOM     10  H15 MOL d          15.393  16.103  37.312  0.00  0.00     0.091 H 
ATOM     11  H16 MOL d          13.807  13.905  38.963  0.00  0.00     0.090 H 
ENDROOT
BRANCH   4  12
ATOM     12  OB4 MOL d          15.036  14.243  36.478  0.00  0.00    -0.348 OA
BRANCH  12  13
ATOM     13  CD1 MOL d          16.361  14.489  35.900  0.00  0.00     0.159 C 
ATOM     14  CD2 MOL d          16.414  14.422  34.321  0.00  0.00     0.110 C 
ATOM     15  CD3 MOL d          16.016  12.949  33.872  0.00  0.00     0.092 C 
ATOM     16  H23 MOL d          17.427  14.655  33.961  0.00  0.00     0.094 H 
ATOM     17  CD4 MOL d          17.062  11.950  34.462  0.00  0.00     0.092 C 
ATOM     18  H24 MOL d          15.006  12.703  34.234  0.00  0.00     0.091 H 
ATOM     19  CD5 MOL d          17.030  12.064  36.094  0.00  0.00     0.089 C 
ATOM     20  H25 MOL d          18.065  12.206  34.089  0.00  0.00     0.091 H 
ATOM     21  OD5 MOL d          17.333  13.485  36.471  0.00  0.00    -0.348 OA
ATOM     22  H26 MOL d          16.028  11.793  36.458  0.00  0.00     0.090 H 
ATOM     23  H22 MOL d          16.676  15.499  36.202  0.00  0.00     0.133 H 
BRANCH  14  24
ATOM     24  OD2 MOL d          15.483  15.401  33.818  0.00  0.00    -0.388 OA
ATOM     25  H29 MOL d          15.674  16.247  34.206  0.00  0.00     0.210 HD
ENDBRANCH  14  24
BRANCH  15  26
ATOM     26  OD3 MOL d          16.060  12.861  32.470  0.00  0.00    -0.390 OA
ATOM     27  H30 MOL d          16.771  13.401  32.142  0.00  0.00     0.210 HD
ENDBRANCH  15  26
BRANCH  17  28
ATOM     28  OD4 MOL d          16.732  10.571  34.076  0.00  0.00    -0.385 OA
BRANCH  28  29
ATOM     29  CD7 MOL d          17.639   9.981  33.107  0.00  0.00     0.005 C 
ATOM     30  H32 MOL d          17.165   9.099  32.650  0.00  0.00     0.066 H 
ATOM     31  H33 MOL d          18.568   9.676  33.612  0.00  0.00     0.066 H 
ATOM     32  H34 MOL d          17.872  10.719  32.325  0.00  0.00     0.066 H 
ENDBRANCH  28  29
ENDBRANCH  17  28
BRANCH  19  33
ATOM     33  CD6 MOL d          18.077  11.108  36.739  0.00  0.00     0.043 C 
ATOM     34  H27 MOL d          17.940  10.098  36.325  0.00  0.00     0.078 H 
ATOM     35  H28 MOL d          17.915  11.083  37.827  0.00  0.00     0.078 H 
BRANCH  33  36
ATOM     36  OD6 MOL d          19.417  11.540  36.478  0.00  0.00    -0.398 OA
ATOM     37  H31 MOL d          19.804  11.869  37.281  0.00  0.00     0.209 HD
ENDBRANCH  33  36
ENDBRANCH  19  33
ENDBRANCH  12  13
ENDBRANCH   4  12
BRANCH   3  38
ATOM     38  OB3 MOL d          13.230  16.329  35.625  0.00  0.00    -0.390 OA
ATOM     39  H20 MOL d          12.332  16.475  35.348  0.00  0.00     0.210 HD
ENDBRANCH   3  38
BRANCH   5  40
ATOM     40  CB6 MOL d          15.883  14.172  39.442  0.00  0.00     0.043 C 
ATOM     41  H17 MOL d          16.264  13.415  38.741  0.00  0.00     0.078 H 
ATOM     42  H18 MOL d          15.726  13.711  40.429  0.00  0.00     0.078 H 
BRANCH  40  43
ATOM     43  OB6 MOL d          16.813  15.194  39.559  0.00  0.00    -0.398 OA
ATOM     44  H21 MOL d          16.396  16.024  39.360  0.00  0.00     0.209 HD
ENDBRANCH  40  43
ENDBRANCH   5  40
BRANCH   2  45
ATOM     45  OB2 MOL d          11.559  17.510  37.691  0.00  0.00    -0.388 OA
ATOM     46  H19 MOL d          11.302  17.286  36.805  0.00  0.00     0.210 HD
ENDBRANCH   2  45
BRANCH   1  47
ATOM     47  OA4 MOL d          11.762  15.587  39.689  0.00  0.00    -0.348 OA
BRANCH  47  48
ATOM     48  CA4 MOL d          11.254  15.633  40.912  0.00  0.00     0.090 C 
ATOM     49  CA3 MOL d          12.395  15.348  41.955  0.00  0.00     0.094 C 
ATOM     50  CA2 MOL d          11.986  15.893  43.369  0.00  0.00     0.121 C 
ATOM     51  H4  MOL d          13.296  15.886  41.624  0.00  0.00     0.091 H 
ATOM     52  CA1 MOL d          11.626  17.385  43.236  0.00  0.00     0.159 C 
ATOM     53  H2  MOL d          11.075  15.355  43.672  0.00  0.00     0.099 H 
ATOM     54  NA1 MOL d          11.921  18.197  44.239  0.00  0.00    -0.120 NA
ATOM     55  NA5 MOL d          10.968  17.888  42.071  0.00  0.00    -0.365 N 
ATOM     56  CA5 MOL d          10.689  17.018  40.913  0.00  0.00     0.059 C 
ATOM     57  H8  MOL d          10.684  18.878  42.039  0.00  0.00     0.161 HD
ATOM     58  H7  MOL d          11.074  17.524  40.016  0.00  0.00     0.079 H 
ATOM     59  H6  MOL d          10.453  14.892  41.052  0.00  0.00     0.090 H 
BRANCH  49  60
ATOM     60  OA3 MOL d          12.698  14.059  42.042  0.00  0.00    -0.390 OA
ATOM     61  H5  MOL d          11.915  13.564  42.252  0.00  0.00     0.210 HD
ENDBRANCH  49  60
BRANCH  50  62
ATOM     62  OA2 MOL d          12.894  15.680  44.334  0.00  0.00    -0.385 OA
ATOM     63  H3  MOL d          12.617  14.948  44.873  0.00  0.00     0.210 HD
ENDBRANCH  50  62
BRANCH  54  64
ATOM     64  OA7 MOL d          11.607  19.475  44.102  0.00  0.00    -0.265 OA
ATOM     65  H1  MOL d          10.759  19.548  43.681  0.00  0.00     0.247 HD
ENDBRANCH  54  64
BRANCH  56  66
ATOM     66  CA6 MOL d           9.132  16.918  40.830  0.00  0.00     0.038 C 
ATOM     67  H9  MOL d           8.763  16.320  41.676  0.00  0.00     0.077 H 
ATOM     68  H10 MOL d           8.852  16.427  39.885  0.00  0.00     0.077 H 
BRANCH  66  69
ATOM     69  OA6 MOL d           8.561  18.164  40.876  0.00  0.00    -0.399 OA
ATOM     70  H11 MOL d           9.192  18.788  41.214  0.00  0.00     0.209 HD
ENDBRANCH  66  69
ENDBRANCH  56  66
ENDBRANCH  47  48
ENDBRANCH   1  47
TORSDOF 19
ENDMDL
MODEL 3
REMARK VINA RESULT:      -6.5      1.746      3.267
REMARK  19 active torsions:
REMARK  status: ('A' for Active; 'I' for Inactive)
REMARK    1  A    between atoms: NA1_2  and  OA7_3 
REMARK    2  A    between atoms: CA2_4  and  OA2_5 
REMARK    3  A    between atoms: CA3_6  and  OA3_7 
REMARK    4  A    between atoms: CA4_8  and  OA4_9 
REMARK    5  A    between atoms: OA4_9  and  CB1_14 
REMARK    6  A    between atoms: CA5_10  and  CA6_12 
REMARK    7  A    between atoms: CA6_12  and  OA6_13 
REMARK    8  A    between atoms: CB2_15  and  OB2_20 
REMARK    9  A    between atoms: CB3_16  and  OB3_21 
REMARK   10  A    between atoms: CB4_17  and  OB4_22 
REMARK   11  A    between atoms: CB5_18  and  CB6_19 
REMARK   12  A    between atoms: CB6_19  and  OB6_24 
REMARK   13  A    between atoms: OB4_22  and  CD1_25 
REMARK   14  A    between atoms: CD2_26  and  OD2_31 
REMARK   15  A    between atoms: CD3_27  and  OD3_32 
REMARK   16  A    between atoms: CD4_28  and  OD4_33 
REMARK   17  A    between atoms: CD5_29  and  CD6_30 
REMARK   18  A    between atoms: CD6_30  and  OD6_35 
REMARK   19  A    between atoms: OD4_33  and  CD7_36 
ROOT
ATOM      1  CB1 MOL d          12.552  16.767  39.878  0.00  0.00     0.159 C 
ATOM      2  CB2 MOL d          12.718  17.510  38.468  0.00  0.00     0.110 C 
ATOM      3  CB3 MOL d          13.435  16.618  37.390  0.00  0.00     0.092 C 
ATOM      4  CB4 MOL d          14.841  16.242  37.964  0.00  0.00     0.096 C 
ATOM      5  CB5 MOL d          14.582  15.384  39.371  0.00  0.00     0.089 C 
ATOM      6  OB5 MOL d          13.869  16.255  40.334  0.00  0.00    -0.348 OA
ATOM      7  H12 MOL d          12.181  17.483  40.625  0.00  0.00     0.133 H 
ATOM      8  H13 MOL d          13.340  18.404  38.621  0.00  0.00     0.094 H 
ATOM      9  H14 MOL d          12.853  15.705  37.197  0.00  0.00     0.091 H 
ATOM     10  H15 MOL d          15.427  17.148  38.174  0.00  0.00     0.091 H 
ATOM     11  H16 MOL d          13.974  14.497  39.141  0.00  0.00     0.090 H 
ENDROOT
BRANCH   4  12
ATOM     12  OB4 MOL d          15.519  15.439  37.013  0.00  0.00    -0.348 OA
BRANCH  12  13
ATOM     13  CD1 MOL d          14.883  14.124  36.877  0.00  0.00     0.159 C 
ATOM     14  CD2 MOL d          15.872  12.952  36.490  0.00  0.00     0.110 C 
ATOM     15  CD3 MOL d          16.495  13.277  35.063  0.00  0.00     0.092 C 
ATOM     16  H23 MOL d          15.332  11.994  36.446  0.00  0.00     0.094 H 
ATOM     17  CD4 MOL d          15.336  13.336  34.018  0.00  0.00     0.092 C 
ATOM     18  H24 MOL d          17.030  14.237  35.095  0.00  0.00     0.091 H 
ATOM     19  CD5 MOL d          14.296  14.521  34.456  0.00  0.00     0.089 C 
ATOM     20  H25 MOL d          14.812  12.368  33.995  0.00  0.00     0.091 H 
ATOM     21  OD5 MOL d          13.793  14.217  35.837  0.00  0.00    -0.348 OA
ATOM     22  H26 MOL d          14.825  15.485  34.462  0.00  0.00     0.090 H 
ATOM     23  H22 MOL d          14.428  13.870  37.846  0.00  0.00     0.133 H 
BRANCH  14  24
ATOM     24  OD2 MOL d          16.887  12.891  37.512  0.00  0.00    -0.388 OA
ATOM     25  H29 MOL d          17.451  12.143  37.353  0.00  0.00     0.210 HD
ENDBRANCH  14  24
BRANCH  15  26
ATOM     26  OD3 MOL d          17.374  12.245  34.693  0.00  0.00    -0.390 OA
ATOM     27  H30 MOL d          17.000  11.756  33.969  0.00  0.00     0.210 HD
ENDBRANCH  15  26
BRANCH  17  28
ATOM     28  OD4 MOL d          15.863  13.639  32.680  0.00  0.00    -0.385 OA
BRANCH  28  29
ATOM     29  CD7 MOL d          16.600  14.887  32.589  0.00  0.00     0.005 C 
ATOM     30  H32 MOL d          16.627  15.371  33.577  0.00  0.00     0.066 H 
ATOM     31  H33 MOL d          16.104  15.554  31.868  0.00  0.00     0.066 H 
ATOM     32  H34 MOL d          17.628  14.683  32.253  0.00  0.00     0.066 H 
ENDBRANCH  28  29
ENDBRANCH  17  28
BRANCH  19  33
ATOM     33  CD6 MOL d          13.100  14.608  33.462  0.00  0.00     0.043 C 
ATOM     34  H27 MOL d          12.359  13.839  33.729  0.00  0.00     0.078 H 
ATOM     35  H28 MOL d          13.470  14.424  32.443  0.00  0.00     0.078 H 
BRANCH  33  36
ATOM     36  OD6 MOL d          12.470  15.893  33.503  0.00  0.00    -0.398 OA
ATOM     37  H31 MOL d          12.643  16.302  34.343  0.00  0.00     0.209 HD
ENDBRANCH  33  36
ENDBRANCH  19  33
ENDBRANCH  12  13
ENDBRANCH   4  12
BRANCH   3  38
ATOM     38  OB3 MOL d          13.559  17.383  36.166  0.00  0.00    -0.390 OA
ATOM     39  H20 MOL d          13.338  18.291  36.338  0.00  0.00     0.210 HD
ENDBRANCH   3  38
BRANCH   5  40
ATOM     40  CB6 MOL d          15.872  14.948  40.037  0.00  0.00     0.043 C 
ATOM     41  H17 MOL d          15.955  13.853  39.983  0.00  0.00     0.078 H 
ATOM     42  H18 MOL d          15.858  15.263  41.091  0.00  0.00     0.078 H 
BRANCH  40  43
ATOM     43  OB6 MOL d          16.968  15.519  39.406  0.00  0.00    -0.398 OA
ATOM     44  H21 MOL d          17.665  14.876  39.342  0.00  0.00     0.209 HD
ENDBRANCH  40  43
ENDBRANCH   5  40
BRANCH   2  45
ATOM     45  OB2 MOL d          11.404  17.939  38.038  0.00  0.00    -0.388 OA
ATOM     46  H19 MOL d          10.743  17.500  38.559  0.00  0.00     0.210 HD
ENDBRANCH   2  45
BRANCH   1  47
ATOM     47  OA4 MOL d          11.592  15.733  39.719  0.00  0.00    -0.348 OA
BRANCH  47  48
ATOM     48  CA4 MOL d          10.899  15.480  40.821  0.00  0.00     0.090 C 
ATOM     49  CA3 MOL d          11.897  15.203  42.004  0.00  0.00     0.094 C 
ATOM     50  CA2 MOL d          11.177  15.418  43.382  0.00  0.00     0.121 C 
ATOM     51  H4  MOL d          12.721  15.929  41.926  0.00  0.00     0.091 H 
ATOM     52  CA1 MOL d          10.567  16.832  43.403  0.00  0.00     0.159 C 
ATOM     53  H2  MOL d          10.349  14.696  43.430  0.00  0.00     0.099 H 
ATOM     54  NA1 MOL d          10.544  17.492  44.551  0.00  0.00    -0.120 NA
ATOM     55  NA5 MOL d          10.016  17.420  42.222  0.00  0.00    -0.365 N 
ATOM     56  CA5 MOL d          10.089  16.734  40.919  0.00  0.00     0.059 C 
ATOM     57  H8  MOL d           9.558  18.341  42.283  0.00  0.00     0.161 HD
ATOM     58  H7  MOL d          10.508  17.445  40.191  0.00  0.00     0.079 H 
ATOM     59  H6  MOL d          10.242  14.607  40.702  0.00  0.00     0.090 H 
BRANCH  49  60
ATOM     60  OA3 MOL d          12.421  13.985  41.957  0.00  0.00    -0.390 OA
ATOM     61  H5  MOL d          12.108  13.536  41.180  0.00  0.00     0.210 HD
ENDBRANCH  49  60
BRANCH  50  62
ATOM     62  OA2 MOL d          11.948  15.187  44.456  0.00  0.00    -0.385 OA
ATOM     63  H3  MOL d          12.092  16.002  44.922  0.00  0.00     0.210 HD
ENDBRANCH  50  62
BRANCH  54  64
ATOM     64  OA7 MOL d          10.019  18.707  44.546  0.00  0.00    -0.265 OA
ATOM     65  H1  MOL d           9.176  18.685  44.108  0.00  0.00     0.247 HD
ENDBRANCH  54  64
BRANCH  56  66
ATOM     66  CA6 MOL d           8.612  16.400  40.536  0.00  0.00     0.038 C 
ATOM     67  H9  MOL d           8.157  17.278  40.055  0.00  0.00     0.077 H 
ATOM     68  H10 MOL d           8.050  16.151  41.449  0.00  0.00     0.077 H 
BRANCH  66  69
ATOM     69  OA6 MOL d           8.561  15.337  39.672  0.00  0.00    -0.399 OA
ATOM     70  H11 MOL d           9.168  14.666  39.962  0.00  0.00     0.209 HD
ENDBRANCH  66  69
ENDBRANCH  56  66
ENDBRANCH  47  48
ENDBRANCH   1  47
TORSDOF 19
ENDMDL
MODEL 4
REMARK VINA RESULT:      -6.4      1.312      2.497
REMARK  19 active torsions:
REMARK  status: ('A' for Active; 'I' for Inactive)
REMARK    1  A    between atoms: NA1_2  and  OA7_3 
REMARK    2  A    between atoms: CA2_4  and  OA2_5 
REMARK    3  A    between atoms: CA3_6  and  OA3_7 
REMARK    4  A    between atoms: CA4_8  and  OA4_9 
REMARK    5  A    between atoms: OA4_9  and  CB1_14 
REMARK    6  A    between atoms: CA5_10  and  CA6_12 
REMARK    7  A    between atoms: CA6_12  and  OA6_13 
REMARK    8  A    between atoms: CB2_15  and  OB2_20 
REMARK    9  A    between atoms: CB3_16  and  OB3_21 
REMARK   10  A    between atoms: CB4_17  and  OB4_22 
REMARK   11  A    between atoms: CB5_18  and  CB6_19 
REMARK   12  A    between atoms: CB6_19  and  OB6_24 
REMARK   13  A    between atoms: OB4_22  and  CD1_25 
REMARK   14  A    between atoms: CD2_26  and  OD2_31 
REMARK   15  A    between atoms: CD3_27  and  OD3_32 
REMARK   16  A    between atoms: CD4_28  and  OD4_33 
REMARK   17  A    between atoms: CD5_29  and  CD6_30 
REMARK   18  A    between atoms: CD6_30  and  OD6_35 
REMARK   19  A    between atoms: OD4_33  and  CD7_36 
ROOT
ATOM      1  CB1 MOL d          13.380  17.777  40.287  0.00  0.00     0.159 C 
ATOM      2  CB2 MOL d          13.042  18.128  38.760  0.00  0.00     0.110 C 
ATOM      3  CB3 MOL d          13.294  16.917  37.788  0.00  0.00     0.092 C 
ATOM      4  CB4 MOL d          14.801  16.522  37.925  0.00  0.00     0.096 C 
ATOM      5  CB5 MOL d          15.048  16.072  39.512  0.00  0.00     0.089 C 
ATOM      6  OB5 MOL d          14.758  17.234  40.385  0.00  0.00    -0.348 OA
ATOM      7  H12 MOL d          13.325  18.694  40.891  0.00  0.00     0.133 H 
ATOM      8  H13 MOL d          13.702  18.948  38.441  0.00  0.00     0.094 H 
ATOM      9  H14 MOL d          12.657  16.064  38.063  0.00  0.00     0.091 H 
ATOM     10  H15 MOL d          15.448  17.373  37.666  0.00  0.00     0.091 H 
ATOM     11  H16 MOL d          14.374  15.238  39.755  0.00  0.00     0.090 H 
ENDROOT
BRANCH   4  12
ATOM     12  OB4 MOL d          15.064  15.433  37.056  0.00  0.00    -0.348 OA
BRANCH  12  13
ATOM     13  CD1 MOL d          14.348  14.227  37.483  0.00  0.00     0.159 C 
ATOM     14  CD2 MOL d          15.100  12.870  37.171  0.00  0.00     0.110 C 
ATOM     15  CD3 MOL d          15.258  12.740  35.594  0.00  0.00     0.092 C 
ATOM     16  H23 MOL d          14.522  12.016  37.554  0.00  0.00     0.094 H 
ATOM     17  CD4 MOL d          13.835  12.696  34.953  0.00  0.00     0.092 C 
ATOM     18  H24 MOL d          15.828  13.596  35.200  0.00  0.00     0.091 H 
ATOM     19  CD5 MOL d          13.051  14.085  35.323  0.00  0.00     0.089 C 
ATOM     20  H25 MOL d          13.279  11.835  35.354  0.00  0.00     0.091 H 
ATOM     21  OD5 MOL d          12.993  14.207  36.818  0.00  0.00    -0.348 OA
ATOM     22  H26 MOL d          13.607  14.937  34.906  0.00  0.00     0.090 H 
ATOM     23  H22 MOL d          14.208  14.288  38.572  0.00  0.00     0.133 H 
BRANCH  14  24
ATOM     24  OD2 MOL d          16.380  12.927  37.832  0.00  0.00    -0.388 OA
ATOM     25  H29 MOL d          16.322  13.505  38.584  0.00  0.00     0.210 HD
ENDBRANCH  14  24
BRANCH  15  26
ATOM     26  OD3 MOL d          15.920  11.538  35.289  0.00  0.00    -0.390 OA
ATOM     27  H30 MOL d          15.286  10.898  34.986  0.00  0.00     0.210 HD
ENDBRANCH  15  26
BRANCH  17  28
ATOM     28  OD4 MOL d          13.930  12.580  33.492  0.00  0.00    -0.385 OA
BRANCH  28  29
ATOM     29  CD7 MOL d          14.839  13.527  32.868  0.00  0.00     0.005 C 
ATOM     30  H32 MOL d          15.647  12.979  32.360  0.00  0.00     0.066 H 
ATOM     31  H33 MOL d          15.270  14.184  33.638  0.00  0.00     0.066 H 
ATOM     32  H34 MOL d          14.290  14.133  32.133  0.00  0.00     0.066 H 
ENDBRANCH  28  29
ENDBRANCH  17  28
BRANCH  19  33
ATOM     33  CD6 MOL d          11.610  14.085  34.733  0.00  0.00     0.043 C 
ATOM     34  H27 MOL d          11.015  13.315  35.246  0.00  0.00     0.078 H 
ATOM     35  H28 MOL d          11.664  13.851  33.659  0.00  0.00     0.078 H 
BRANCH  33  36
ATOM     36  OD6 MOL d          10.970  15.355  34.901  0.00  0.00    -0.398 OA
ATOM     37  H31 MOL d          10.887  15.546  35.827  0.00  0.00     0.209 HD
ENDBRANCH  33  36
ENDBRANCH  19  33
ENDBRANCH  12  13
ENDBRANCH   4  12
BRANCH   3  38
ATOM     38  OB3 MOL d          12.986  17.339  36.437  0.00  0.00    -0.390 OA
ATOM     39  H20 MOL d          13.405  16.751  35.819  0.00  0.00     0.210 HD
ENDBRANCH   3  38
BRANCH   5  40
ATOM     40  CB6 MOL d          16.479  15.656  39.787  0.00  0.00     0.043 C 
ATOM     41  H17 MOL d          16.980  16.446  40.366  0.00  0.00     0.078 H 
ATOM     42  H18 MOL d          17.004  15.514  38.831  0.00  0.00     0.078 H 
BRANCH  40  43
ATOM     43  OB6 MOL d          16.516  14.471  40.507  0.00  0.00    -0.398 OA
ATOM     44  H21 MOL d          15.951  14.546  41.267  0.00  0.00     0.209 HD
ENDBRANCH  40  43
ENDBRANCH   5  40
BRANCH   2  45
ATOM     45  OB2 MOL d          11.674  18.597  38.707  0.00  0.00    -0.388 OA
ATOM     46  H19 MOL d          11.106  17.963  39.128  0.00  0.00     0.210 HD
ENDBRANCH   2  45
BRANCH   1  47
ATOM     47  OA4 MOL d          12.399  16.862  40.755  0.00  0.00    -0.348 OA
BRANCH  47  48
ATOM     48  CA4 MOL d          12.339  16.782  42.077  0.00  0.00     0.090 C 
ATOM     49  CA3 MOL d          11.431  17.943  42.623  0.00  0.00     0.094 C 
ATOM     50  CA2 MOL d          10.913  17.595  44.063  0.00  0.00     0.121 C 
ATOM     51  H4  MOL d          10.562  18.035  41.954  0.00  0.00     0.091 H 
ATOM     52  CA1 MOL d          10.206  16.227  44.013  0.00  0.00     0.159 C 
ATOM     53  H2  MOL d          11.797  17.491  44.709  0.00  0.00     0.099 H 
ATOM     54  NA1 MOL d           9.156  16.031  44.797  0.00  0.00    -0.120 NA
ATOM     55  NA5 MOL d          10.676  15.179  43.163  0.00  0.00    -0.365 N 
ATOM     56  CA5 MOL d          11.801  15.394  42.233  0.00  0.00     0.059 C 
ATOM     57  H8  MOL d          10.221  14.256  43.200  0.00  0.00     0.161 HD
ATOM     58  H7  MOL d          11.478  15.059  41.237  0.00  0.00     0.079 H 
ATOM     59  H6  MOL d          13.333  16.862  42.539  0.00  0.00     0.090 H 
BRANCH  49  60
ATOM     60  OA3 MOL d          12.056  19.114  42.642  0.00  0.00    -0.390 OA
ATOM     61  H5  MOL d          12.781  19.075  43.255  0.00  0.00     0.210 HD
ENDBRANCH  49  60
BRANCH  50  62
ATOM     62  OA2 MOL d          10.140  18.540  44.622  0.00  0.00    -0.385 OA
ATOM     63  H3  MOL d           9.567  18.910  43.962  0.00  0.00     0.210 HD
ENDBRANCH  50  62
BRANCH  54  64
ATOM     64  OA7 MOL d           8.562  14.850  44.736  0.00  0.00    -0.265 OA
ATOM     65  H1  MOL d           8.726  14.373  45.540  0.00  0.00     0.247 HD
ENDBRANCH  54  64
BRANCH  56  66
ATOM     66  CA6 MOL d          12.953  14.472  42.748  0.00  0.00     0.038 C 
ATOM     67  H9  MOL d          12.779  13.446  42.393  0.00  0.00     0.077 H 
ATOM     68  H10 MOL d          12.960  14.484  43.848  0.00  0.00     0.077 H 
BRANCH  66  69
ATOM     69  OA6 MOL d          14.168  14.908  42.286  0.00  0.00    -0.399 OA
ATOM     70  H11 MOL d          14.683  14.162  42.000  0.00  0.00     0.209 HD
ENDBRANCH  66  69
ENDBRANCH  56  66
ENDBRANCH  47  48
ENDBRANCH   1  47
TORSDOF 19
ENDMDL
MODEL 5
REMARK VINA RESULT:      -6.0      3.223      8.902
REMARK  19 active torsions:
REMARK  status: ('A' for Active; 'I' for Inactive)
REMARK    1  A    between atoms: NA1_2  and  OA7_3 
REMARK    2  A    between atoms: CA2_4  and  OA2_5 
REMARK    3  A    between atoms: CA3_6  and  OA3_7 
REMARK    4  A    between atoms: CA4_8  and  OA4_9 
REMARK    5  A    between atoms: OA4_9  and  CB1_14 
REMARK    6  A    between atoms: CA5_10  and  CA6_12 
REMARK    7  A    between atoms: CA6_12  and  OA6_13 
REMARK    8  A    between atoms: CB2_15  and  OB2_20 
REMARK    9  A    between atoms: CB3_16  and  OB3_21 
REMARK   10  A    between atoms: CB4_17  and  OB4_22 
REMARK   11  A    between atoms: CB5_18  and  CB6_19 
REMARK   12  A    between atoms: CB6_19  and  OB6_24 
REMARK   13  A    between atoms: OB4_22  and  CD1_25 
REMARK   14  A    between atoms: CD2_26  and  OD2_31 
REMARK   15  A    between atoms: CD3_27  and  OD3_32 
REMARK   16  A    between atoms: CD4_28  and  OD4_33 
REMARK   17  A    between atoms: CD5_29  and  CD6_30 
REMARK   18  A    between atoms: CD6_30  and  OD6_35 
REMARK   19  A    between atoms: OD4_33  and  CD7_36 
ROOT
ATOM      1  CB1 MOL d          15.184  15.025  36.926  0.00  0.00     0.159 C 
ATOM      2  CB2 MOL d          15.659  15.856  38.212  0.00  0.00     0.110 C 
ATOM      3  CB3 MOL d          14.486  16.133  39.223  0.00  0.00     0.092 C 
ATOM      4  CB4 MOL d          13.386  16.929  38.447  0.00  0.00     0.096 C 
ATOM      5  CB5 MOL d          12.872  15.960  37.192  0.00  0.00     0.089 C 
ATOM      6  OB5 MOL d          14.022  15.697  36.294  0.00  0.00    -0.348 OA
ATOM      7  H12 MOL d          16.005  14.988  36.194  0.00  0.00     0.133 H 
ATOM      8  H13 MOL d          16.036  16.831  37.871  0.00  0.00     0.094 H 
ATOM      9  H14 MOL d          14.069  15.187  39.597  0.00  0.00     0.091 H 
ATOM     10  H15 MOL d          13.797  17.872  38.056  0.00  0.00     0.091 H 
ATOM     11  H16 MOL d          12.491  15.015  37.604  0.00  0.00     0.090 H 
ENDROOT
BRANCH   4  12
ATOM     12  OB4 MOL d          12.314  17.201  39.333  0.00  0.00    -0.348 OA
BRANCH  12  13
ATOM     13  CD1 MOL d          11.605  15.971  39.703  0.00  0.00     0.159 C 
ATOM     14  CD2 MOL d          10.071  16.171  40.035  0.00  0.00     0.110 C 
ATOM     15  CD3 MOL d           9.957  17.129  41.300  0.00  0.00     0.092 C 
ATOM     16  H23 MOL d           9.601  15.203  40.264  0.00  0.00     0.094 H 
ATOM     17  CD4 MOL d          10.659  16.438  42.512  0.00  0.00     0.092 C 
ATOM     18  H24 MOL d          10.433  18.097  41.084  0.00  0.00     0.091 H 
ATOM     19  CD5 MOL d          12.234  16.196  42.136  0.00  0.00     0.089 C 
ATOM     20  H25 MOL d          10.171  15.473  42.718  0.00  0.00     0.091 H 
ATOM     21  OD5 MOL d          12.295  15.353  40.895  0.00  0.00    -0.348 OA
ATOM     22  H26 MOL d          12.715  17.165  41.946  0.00  0.00     0.090 H 
ATOM     23  H22 MOL d          11.674  15.276  38.853  0.00  0.00     0.133 H 
BRANCH  14  24
ATOM     24  OD2 MOL d           9.451  16.750  38.871  0.00  0.00    -0.388 OA
ATOM     25  H29 MOL d           9.205  16.059  38.267  0.00  0.00     0.210 HD
ENDBRANCH  14  24
BRANCH  15  26
ATOM     26  OD3 MOL d           8.602  17.318  41.620  0.00  0.00    -0.390 OA
ATOM     27  H30 MOL d           8.477  17.187  42.553  0.00  0.00     0.210 HD
ENDBRANCH  15  26
BRANCH  17  28
ATOM     28  OD4 MOL d          10.583  17.290  43.706  0.00  0.00    -0.385 OA
BRANCH  28  29
ATOM     29  CD7 MOL d          11.462  18.447  43.681  0.00  0.00     0.005 C 
ATOM     30  H32 MOL d          11.617  18.812  44.707  0.00  0.00     0.066 H 
ATOM     31  H33 MOL d          11.004  19.242  43.074  0.00  0.00     0.066 H 
ATOM     32  H34 MOL d          12.430  18.162  43.243  0.00  0.00     0.066 H 
ENDBRANCH  28  29
ENDBRANCH  17  28
BRANCH  19  33
ATOM     33  CD6 MOL d          12.980  15.480  43.300  0.00  0.00     0.043 C 
ATOM     34  H27 MOL d          13.554  16.228  43.868  0.00  0.00     0.078 H 
ATOM     35  H28 MOL d          13.667  14.733  42.877  0.00  0.00     0.078 H 
BRANCH  33  36
ATOM     36  OD6 MOL d          12.068  14.823  44.188  0.00  0.00    -0.398 OA
ATOM     37  H31 MOL d          12.076  13.889  44.013  0.00  0.00     0.209 HD
ENDBRANCH  33  36
ENDBRANCH  19  33
ENDBRANCH  12  13
ENDBRANCH   4  12
BRANCH   3  38
ATOM     38  OB3 MOL d          15.007  16.907  40.332  0.00  0.00    -0.390 OA
ATOM     39  H20 MOL d          14.293  17.367  40.758  0.00  0.00     0.210 HD
ENDBRANCH   3  38
BRANCH   5  40
ATOM     40  CB6 MOL d          11.793  16.612  36.351  0.00  0.00     0.043 C 
ATOM     41  H17 MOL d          12.169  16.756  35.327  0.00  0.00     0.078 H 
ATOM     42  H18 MOL d          11.536  17.589  36.787  0.00  0.00     0.078 H 
BRANCH  40  43
ATOM     43  OB6 MOL d          10.656  15.819  36.310  0.00  0.00    -0.398 OA
ATOM     44  H21 MOL d          10.901  14.926  36.095  0.00  0.00     0.209 HD
ENDBRANCH  40  43
ENDBRANCH   5  40
BRANCH   2  45
ATOM     45  OB2 MOL d          16.752  15.134  38.826  0.00  0.00    -0.388 OA
ATOM     46  H19 MOL d          17.568  15.383  38.409  0.00  0.00     0.210 HD
ENDBRANCH   2  45
BRANCH   1  47
ATOM     47  OA4 MOL d          14.887  13.700  37.345  0.00  0.00    -0.348 OA
BRANCH  47  48
ATOM     48  CA4 MOL d          15.162  12.782  36.430  0.00  0.00     0.090 C 
ATOM     49  CA3 MOL d          14.476  13.184  35.073  0.00  0.00     0.094 C 
ATOM     50  CA2 MOL d          15.175  12.452  33.874  0.00  0.00     0.121 C 
ATOM     51  H4  MOL d          14.604  14.269  34.940  0.00  0.00     0.091 H 
ATOM     52  CA1 MOL d          16.683  12.761  33.921  0.00  0.00     0.159 C 
ATOM     53  H2  MOL d          15.049  11.372  34.036  0.00  0.00     0.099 H 
ATOM     54  NA1 MOL d          17.338  12.885  32.777  0.00  0.00    -0.120 NA
ATOM     55  NA5 MOL d          17.376  12.891  35.165  0.00  0.00    -0.365 N 
ATOM     56  CA5 MOL d          16.657  12.824  36.452  0.00  0.00     0.059 C 
ATOM     57  H8  MOL d          18.396  13.034  35.163  0.00  0.00     0.161 HD
ATOM     58  H7  MOL d          16.945  13.707  37.040  0.00  0.00     0.079 H 
ATOM     59  H6  MOL d          14.802  11.786  36.726  0.00  0.00     0.090 H 
BRANCH  49  60
ATOM     60  OA3 MOL d          13.174  12.924  35.061  0.00  0.00    -0.390 OA
ATOM     61  H5  MOL d          13.014  12.098  35.503  0.00  0.00     0.210 HD
ENDBRANCH  49  60
BRANCH  50  62
ATOM     62  OA2 MOL d          14.645  12.722  32.670  0.00  0.00    -0.385 OA
ATOM     63  H3  MOL d          15.206  13.332  32.208  0.00  0.00     0.210 HD
ENDBRANCH  50  62
BRANCH  54  64
ATOM     64  OA7 MOL d          18.633  13.153  32.840  0.00  0.00    -0.265 OA
ATOM     65  H1  MOL d          19.111  12.530  32.306  0.00  0.00     0.247 HD
ENDBRANCH  54  64
BRANCH  56  66
ATOM     66  CA6 MOL d          17.179  11.531  37.157  0.00  0.00     0.038 C 
ATOM     67  H9  MOL d          16.794  11.501  38.187  0.00  0.00     0.077 H 
ATOM     68  H10 MOL d          18.279  11.550  37.177  0.00  0.00     0.077 H 
BRANCH  66  69
ATOM     69  OA6 MOL d          16.761  10.409  36.488  0.00  0.00    -0.399 OA
ATOM     70  H11 MOL d          16.433  10.657  35.631  0.00  0.00     0.209 HD
ENDBRANCH  66  69
ENDBRANCH  56  66
ENDBRANCH  47  48
ENDBRANCH   1  47
TORSDOF 19
ENDMDL
MODEL 6
REMARK VINA RESULT:      -5.9      1.705      2.457
REMARK  19 active torsions:
REMARK  status: ('A' for Active; 'I' for Inactive)
REMARK    1  A    between atoms: NA1_2  and  OA7_3 
REMARK    2  A    between atoms: CA2_4  and  OA2_5 
REMARK    3  A    between atoms: CA3_6  and  OA3_7 
REMARK    4  A    between atoms: CA4_8  and  OA4_9 
REMARK    5  A    between atoms: OA4_9  and  CB1_14 
REMARK    6  A    between atoms: CA5_10  and  CA6_12 
REMARK    7  A    between atoms: CA6_12  and  OA6_13 
REMARK    8  A    between atoms: CB2_15  and  OB2_20 
REMARK    9  A    between atoms: CB3_16  and  OB3_21 
REMARK   10  A    between atoms: CB4_17  and  OB4_22 
REMARK   11  A    between atoms: CB5_18  and  CB6_19 
REMARK   12  A    between atoms: CB6_19  and  OB6_24 
REMARK   13  A    between atoms: OB4_22  and  CD1_25 
REMARK   14  A    between atoms: CD2_26  and  OD2_31 
REMARK   15  A    between atoms: CD3_27  and  OD3_32 
REMARK   16  A    between atoms: CD4_28  and  OD4_33 
REMARK   17  A    between atoms: CD5_29  and  CD6_30 
REMARK   18  A    between atoms: CD6_30  and  OD6_35 
REMARK   19  A    between atoms: OD4_33  and  CD7_36 
ROOT
ATOM      1  CB1 MOL d          12.759  16.598  38.816  0.00  0.00     0.159 C 
ATOM      2  CB2 MOL d          11.812  16.264  37.567  0.00  0.00     0.110 C 
ATOM      3  CB3 MOL d          12.102  14.848  36.946  0.00  0.00     0.092 C 
ATOM      4  CB4 MOL d          13.600  14.839  36.498  0.00  0.00     0.096 C 
ATOM      5  CB5 MOL d          14.522  15.089  37.865  0.00  0.00     0.089 C 
ATOM      6  OB5 MOL d          14.181  16.415  38.431  0.00  0.00    -0.348 OA
ATOM      7  H12 MOL d          12.612  17.647  39.113  0.00  0.00     0.133 H 
ATOM      8  H13 MOL d          12.000  17.011  36.783  0.00  0.00     0.094 H 
ATOM      9  H14 MOL d          11.929  14.059  37.692  0.00  0.00     0.091 H 
ATOM     10  H15 MOL d          13.787  15.635  35.763  0.00  0.00     0.091 H 
ATOM     11  H16 MOL d          14.300  14.298  38.595  0.00  0.00     0.090 H 
ENDROOT
BRANCH   4  12
ATOM     12  OB4 MOL d          13.894  13.575  35.927  0.00  0.00    -0.348 OA
BRANCH  12  13
ATOM     13  CD1 MOL d          14.103  13.682  34.479  0.00  0.00     0.159 C 
ATOM     14  CD2 MOL d          13.659  12.407  33.655  0.00  0.00     0.110 C 
ATOM     15  CD3 MOL d          14.546  11.175  34.127  0.00  0.00     0.092 C 
ATOM     16  H23 MOL d          13.808  12.577  32.578  0.00  0.00     0.094 H 
ATOM     17  CD4 MOL d          16.043  11.492  33.813  0.00  0.00     0.092 C 
ATOM     18  H24 MOL d          14.410  11.003  35.205  0.00  0.00     0.091 H 
ATOM     19  CD5 MOL d          16.476  12.839  34.636  0.00  0.00     0.089 C 
ATOM     20  H25 MOL d          16.164  11.659  32.732  0.00  0.00     0.091 H 
ATOM     21  OD5 MOL d          15.564  13.956  34.219  0.00  0.00    -0.348 OA
ATOM     22  H26 MOL d          16.365  12.658  35.715  0.00  0.00     0.090 H 
ATOM     23  H22 MOL d          13.512  14.536  34.117  0.00  0.00     0.133 H 
BRANCH  14  24
ATOM     24  OD2 MOL d          12.259  12.189  33.923  0.00  0.00    -0.388 OA
ATOM     25  H29 MOL d          11.844  11.816  33.153  0.00  0.00     0.210 HD
ENDBRANCH  14  24
BRANCH  15  26
ATOM     26  OD3 MOL d          14.174  10.029  33.404  0.00  0.00    -0.390 OA
ATOM     27  H30 MOL d          14.948   9.512  33.212  0.00  0.00     0.210 HD
ENDBRANCH  15  26
BRANCH  17  28
ATOM     28  OD4 MOL d          16.905  10.381  34.237  0.00  0.00    -0.385 OA
BRANCH  28  29
ATOM     29  CD7 MOL d          16.963  10.173  35.674  0.00  0.00     0.005 C 
ATOM     30  H32 MOL d          17.405   9.188  35.886  0.00  0.00     0.066 H 
ATOM     31  H33 MOL d          15.945  10.215  36.092  0.00  0.00     0.066 H 
ATOM     32  H34 MOL d          17.581  10.959  36.134  0.00  0.00     0.066 H 
ENDBRANCH  28  29
ENDBRANCH  17  28
BRANCH  19  33
ATOM     33  CD6 MOL d          17.956  13.222  34.338  0.00  0.00     0.043 C 
ATOM     34  H27 MOL d          17.975  14.192  33.819  0.00  0.00     0.078 H 
ATOM     35  H28 MOL d          18.400  12.450  33.691  0.00  0.00     0.078 H 
BRANCH  33  36
ATOM     36  OD6 MOL d          18.728  13.322  35.540  0.00  0.00    -0.398 OA
ATOM     37  H31 MOL d          18.493  14.119  36.000  0.00  0.00     0.209 HD
ENDBRANCH  33  36
ENDBRANCH  19  33
ENDBRANCH  12  13
ENDBRANCH   4  12
BRANCH   3  38
ATOM     38  OB3 MOL d          11.217  14.651  35.815  0.00  0.00    -0.390 OA
ATOM     39  H20 MOL d          11.152  15.461  35.322  0.00  0.00     0.210 HD
ENDBRANCH   3  38
BRANCH   5  40
ATOM     40  CB6 MOL d          16.010  15.100  37.574  0.00  0.00     0.043 C 
ATOM     41  H17 MOL d          16.508  15.796  38.266  0.00  0.00     0.078 H 
ATOM     42  H18 MOL d          16.173  15.433  36.539  0.00  0.00     0.078 H 
BRANCH  40  43
ATOM     43  OB6 MOL d          16.551  13.833  37.736  0.00  0.00    -0.398 OA
ATOM     44  H21 MOL d          15.971  13.309  38.276  0.00  0.00     0.209 HD
ENDBRANCH  40  43
ENDBRANCH   5  40
BRANCH   2  45
ATOM     45  OB2 MOL d          10.439  16.399  38.005  0.00  0.00    -0.388 OA
ATOM     46  H19 MOL d          10.144  17.288  37.849  0.00  0.00     0.210 HD
ENDBRANCH   2  45
BRANCH   1  47
ATOM     47  OA4 MOL d          12.374  15.760  39.896  0.00  0.00    -0.348 OA
BRANCH  47  48
ATOM     48  CA4 MOL d          12.751  16.218  41.082  0.00  0.00     0.090 C 
ATOM     49  CA3 MOL d          12.692  17.789  41.069  0.00  0.00     0.094 C 
ATOM     50  CA2 MOL d          12.613  18.340  42.536  0.00  0.00     0.121 C 
ATOM     51  H4  MOL d          11.777  18.087  40.536  0.00  0.00     0.091 H 
ATOM     52  CA1 MOL d          11.415  17.681  43.245  0.00  0.00     0.159 C 
ATOM     53  H2  MOL d          13.528  18.016  43.054  0.00  0.00     0.099 H 
ATOM     54  NA1 MOL d          10.731  18.396  44.126  0.00  0.00    -0.120 NA
ATOM     55  NA5 MOL d          11.054  16.323  42.984  0.00  0.00    -0.365 N 
ATOM     56  CA5 MOL d          11.757  15.527  41.961  0.00  0.00     0.059 C 
ATOM     57  H8  MOL d          10.288  15.891  43.521  0.00  0.00     0.161 HD
ATOM     58  H7  MOL d          10.995  15.086  41.301  0.00  0.00     0.079 H 
ATOM     59  H6  MOL d          13.773  15.904  41.338  0.00  0.00     0.090 H 
BRANCH  49  60
ATOM     60  OA3 MOL d          13.726  18.334  40.440  0.00  0.00    -0.390 OA
ATOM     61  H5  MOL d          14.433  18.475  41.059  0.00  0.00     0.210 HD
ENDBRANCH  49  60
BRANCH  50  62
ATOM     62  OA2 MOL d          12.576  19.679  42.628  0.00  0.00    -0.385 OA
ATOM     63  H3  MOL d          12.979  20.060  41.857  0.00  0.00     0.210 HD
ENDBRANCH  50  62
BRANCH  54  64
ATOM     64  OA7 MOL d           9.704  17.812  44.721  0.00  0.00    -0.265 OA
ATOM     65  H1  MOL d           9.005  18.445  44.837  0.00  0.00     0.247 HD
ENDBRANCH  54  64
BRANCH  56  66
ATOM     66  CA6 MOL d          12.493  14.392  42.744  0.00  0.00     0.038 C 
ATOM     67  H9  MOL d          12.711  13.562  42.056  0.00  0.00     0.077 H 
ATOM     68  H10 MOL d          11.842  14.034  43.556  0.00  0.00     0.077 H 
BRANCH  66  69
ATOM     69  OA6 MOL d          13.668  14.854  43.279  0.00  0.00    -0.399 OA
ATOM     70  H11 MOL d          14.138  14.131  43.678  0.00  0.00     0.209 HD
ENDBRANCH  66  69
ENDBRANCH  56  66
ENDBRANCH  47  48
ENDBRANCH   1  47
TORSDOF 19
ENDMDL
MODEL 7
REMARK VINA RESULT:      -5.7      3.292      9.237
REMARK  19 active torsions:
REMARK  status: ('A' for Active; 'I' for Inactive)
REMARK    1  A    between atoms: NA1_2  and  OA7_3 
REMARK    2  A    between atoms: CA2_4  and  OA2_5 
REMARK    3  A    between atoms: CA3_6  and  OA3_7 
REMARK    4  A    between atoms: CA4_8  and  OA4_9 
REMARK    5  A    between atoms: OA4_9  and  CB1_14 
REMARK    6  A    between atoms: CA5_10  and  CA6_12 
REMARK    7  A    between atoms: CA6_12  and  OA6_13 
REMARK    8  A    between atoms: CB2_15  and  OB2_20 
REMARK    9  A    between atoms: CB3_16  and  OB3_21 
REMARK   10  A    between atoms: CB4_17  and  OB4_22 
REMARK   11  A    between atoms: CB5_18  and  CB6_19 
REMARK   12  A    between atoms: CB6_19  and  OB6_24 
REMARK   13  A    between atoms: OB4_22  and  CD1_25 
REMARK   14  A    between atoms: CD2_26  and  OD2_31 
REMARK   15  A    between atoms: CD3_27  and  OD3_32 
REMARK   16  A    between atoms: CD4_28  and  OD4_33 
REMARK   17  A    between atoms: CD5_29  and  CD6_30 
REMARK   18  A    between atoms: CD6_30  and  OD6_35 
REMARK   19  A    between atoms: OD4_33  and  CD7_36 
ROOT
ATOM      1  CB1 MOL d          14.583  15.203  36.499  0.00  0.00     0.159 C 
ATOM      2  CB2 MOL d          14.805  15.636  38.026  0.00  0.00     0.110 C 
ATOM      3  CB3 MOL d          13.646  15.146  38.971  0.00  0.00     0.092 C 
ATOM      4  CB4 MOL d          12.316  15.764  38.428  0.00  0.00     0.096 C 
ATOM      5  CB5 MOL d          12.104  15.186  36.879  0.00  0.00     0.089 C 
ATOM      6  OB5 MOL d          13.240  15.641  36.043  0.00  0.00    -0.348 OA
ATOM      7  H12 MOL d          15.340  15.693  35.869  0.00  0.00     0.133 H 
ATOM      8  H13 MOL d          14.825  16.734  38.073  0.00  0.00     0.094 H 
ATOM      9  H14 MOL d          13.581  14.049  38.962  0.00  0.00     0.091 H 
ATOM     10  H15 MOL d          12.376  16.862  38.419  0.00  0.00     0.091 H 
ATOM     11  H16 MOL d          12.072  14.088  36.908  0.00  0.00     0.090 H 
ENDROOT
BRANCH   4  12
ATOM     12  OB4 MOL d          11.249  15.346  39.262  0.00  0.00    -0.348 OA
BRANCH  12  13
ATOM     13  CD1 MOL d          10.285  16.431  39.476  0.00  0.00     0.159 C 
ATOM     14  CD2 MOL d          10.935  17.830  39.822  0.00  0.00     0.110 C 
ATOM     15  CD3 MOL d          11.728  17.684  41.193  0.00  0.00     0.092 C 
ATOM     16  H23 MOL d          10.155  18.599  39.929  0.00  0.00     0.094 H 
ATOM     17  CD4 MOL d          10.713  17.299  42.316  0.00  0.00     0.092 C 
ATOM     18  H24 MOL d          12.505  16.911  41.100  0.00  0.00     0.091 H 
ATOM     19  CD5 MOL d          10.014  15.873  41.922  0.00  0.00     0.089 C 
ATOM     20  H25 MOL d           9.944  18.082  42.400  0.00  0.00     0.091 H 
ATOM     21  OD5 MOL d           9.344  16.032  40.587  0.00  0.00    -0.348 OA
ATOM     22  H26 MOL d          10.788  15.095  41.854  0.00  0.00     0.090 H 
ATOM     23  H22 MOL d           9.707  16.552  38.548  0.00  0.00     0.133 H 
BRANCH  14  24
ATOM     24  OD2 MOL d          11.814  18.177  38.734  0.00  0.00    -0.388 OA
ATOM     25  H29 MOL d          12.174  17.384  38.353  0.00  0.00     0.210 HD
ENDBRANCH  14  24
BRANCH  15  26
ATOM     26  OD3 MOL d          12.312  18.918  41.527  0.00  0.00    -0.390 OA
ATOM     27  H30 MOL d          11.670  19.462  41.970  0.00  0.00     0.210 HD
ENDBRANCH  15  26
BRANCH  17  28
ATOM     28  OD4 MOL d          11.402  17.149  43.605  0.00  0.00    -0.385 OA
BRANCH  28  29
ATOM     29  CD7 MOL d          12.457  16.150  43.614  0.00  0.00     0.005 C 
ATOM     30  H32 MOL d          13.335  16.548  44.143  0.00  0.00     0.066 H 
ATOM     31  H33 MOL d          12.735  15.900  42.579  0.00  0.00     0.066 H 
ATOM     32  H34 MOL d          12.100  15.244  44.127  0.00  0.00     0.066 H 
ENDBRANCH  28  29
ENDBRANCH  17  28
BRANCH  19  33
ATOM     33  CD6 MOL d           8.967  15.451  42.994  0.00  0.00     0.043 C 
ATOM     34  H27 MOL d           9.330  14.551  43.513  0.00  0.00     0.078 H 
ATOM     35  H28 MOL d           8.013  15.227  42.493  0.00  0.00     0.078 H 
BRANCH  33  36
ATOM     36  OD6 MOL d           8.751  16.488  43.959  0.00  0.00    -0.398 OA
ATOM     37  H31 MOL d           8.205  17.165  43.577  0.00  0.00     0.209 HD
ENDBRANCH  33  36
ENDBRANCH  19  33
ENDBRANCH  12  13
ENDBRANCH   4  12
BRANCH   3  38
ATOM     38  OB3 MOL d          13.924  15.606  40.317  0.00  0.00    -0.390 OA
ATOM     39  H20 MOL d          14.692  15.157  40.652  0.00  0.00     0.210 HD
ENDBRANCH   3  38
BRANCH   5  40
ATOM     40  CB6 MOL d          10.838  15.706  36.227  0.00  0.00     0.043 C 
ATOM     41  H17 MOL d           9.965  15.326  36.779  0.00  0.00     0.078 H 
ATOM     42  H18 MOL d          10.796  15.352  35.187  0.00  0.00     0.078 H 
BRANCH  40  43
ATOM     43  OB6 MOL d          10.814  17.093  36.238  0.00  0.00    -0.398 OA
ATOM     44  H21 MOL d          11.605  17.425  35.830  0.00  0.00     0.209 HD
ENDBRANCH  40  43
ENDBRANCH   5  40
BRANCH   2  45
ATOM     45  OB2 MOL d          16.098  15.139  38.443  0.00  0.00    -0.388 OA
ATOM     46  H19 MOL d          16.780  15.587  37.957  0.00  0.00     0.210 HD
ENDBRANCH   2  45
BRANCH   1  47
ATOM     47  OA4 MOL d          14.757  13.796  36.412  0.00  0.00    -0.348 OA
BRANCH  47  48
ATOM     48  CA4 MOL d          15.790  13.436  35.664  0.00  0.00     0.090 C 
ATOM     49  CA3 MOL d          16.514  12.214  36.340  0.00  0.00     0.094 C 
ATOM     50  CA2 MOL d          17.377  11.442  35.280  0.00  0.00     0.121 C 
ATOM     51  H4  MOL d          15.739  11.532  36.719  0.00  0.00     0.091 H 
ATOM     52  CA1 MOL d          16.471  11.050  34.099  0.00  0.00     0.159 C 
ATOM     53  H2  MOL d          18.133  12.147  34.903  0.00  0.00     0.099 H 
ATOM     54  NA1 MOL d          16.701   9.902  33.480  0.00  0.00    -0.120 NA
ATOM     55  NA5 MOL d          15.416  11.907  33.656  0.00  0.00    -0.365 N 
ATOM     56  CA5 MOL d          15.096  13.159  34.368  0.00  0.00     0.059 C 
ATOM     57  H8  MOL d          14.869  11.646  32.823  0.00  0.00     0.161 HD
ATOM     58  H7  MOL d          14.016  13.157  34.575  0.00  0.00     0.079 H 
ATOM     59  H6  MOL d          16.515  14.254  35.544  0.00  0.00     0.090 H 
BRANCH  49  60
ATOM     60  OA3 MOL d          17.277  12.574  37.364  0.00  0.00    -0.390 OA
ATOM     61  H5  MOL d          16.890  13.326  37.797  0.00  0.00     0.210 HD
ENDBRANCH  49  60
BRANCH  50  62
ATOM     62  OA2 MOL d          18.050  10.388  35.769  0.00  0.00    -0.385 OA
ATOM     63  H3  MOL d          18.127   9.723  35.096  0.00  0.00     0.210 HD
ENDBRANCH  50  62
BRANCH  54  64
ATOM     64  OA7 MOL d          15.908   9.582  32.470  0.00  0.00    -0.265 OA
ATOM     65  H1  MOL d          16.374   9.709  31.652  0.00  0.00     0.247 HD
ENDBRANCH  54  64
BRANCH  56  66
ATOM     66  CA6 MOL d          15.437  14.310  33.368  0.00  0.00     0.038 C 
ATOM     67  H9  MOL d          15.753  13.873  32.409  0.00  0.00     0.077 H 
ATOM     68  H10 MOL d          16.256  14.917  33.782  0.00  0.00     0.077 H 
BRANCH  66  69
ATOM     69  OA6 MOL d          14.344  15.112  33.159  0.00  0.00    -0.399 OA
ATOM     70  H11 MOL d          14.163  15.161  32.227  0.00  0.00     0.209 HD
ENDBRANCH  66  69
ENDBRANCH  56  66
ENDBRANCH  47  48
ENDBRANCH   1  47
TORSDOF 19
ENDMDL
MODEL 8
REMARK VINA RESULT:      -5.5      3.488      9.010
REMARK  19 active torsions:
REMARK  status: ('A' for Active; 'I' for Inactive)
REMARK    1  A    between atoms: NA1_2  and  OA7_3 
REMARK    2  A    between atoms: CA2_4  and  OA2_5 
REMARK    3  A    between atoms: CA3_6  and  OA3_7 
REMARK    4  A    between atoms: CA4_8  and  OA4_9 
REMARK    5  A    between atoms: OA4_9  and  CB1_14 
REMARK    6  A    between atoms: CA5_10  and  CA6_12 
REMARK    7  A    between atoms: CA6_12  and  OA6_13 
REMARK    8  A    between atoms: CB2_15  and  OB2_20 
REMARK    9  A    between atoms: CB3_16  and  OB3_21 
REMARK   10  A    between atoms: CB4_17  and  OB4_22 
REMARK   11  A    between atoms: CB5_18  and  CB6_19 
REMARK   12  A    between atoms: CB6_19  and  OB6_24 
REMARK   13  A    between atoms: OB4_22  and  CD1_25 
REMARK   14  A    between atoms: CD2_26  and  OD2_31 
REMARK   15  A    between atoms: CD3_27  and  OD3_32 
REMARK   16  A    between atoms: CD4_28  and  OD4_33 
REMARK   17  A    between atoms: CD5_29  and  CD6_30 
REMARK   18  A    between atoms: CD6_30  and  OD6_35 
REMARK   19  A    between atoms: OD4_33  and  CD7_36 
ROOT
ATOM      1  CB1 MOL d          13.186  15.105  34.966  0.00  0.00     0.159 C 
ATOM      2  CB2 MOL d          13.744  16.301  35.875  0.00  0.00     0.110 C 
ATOM      3  CB3 MOL d          13.117  16.312  37.317  0.00  0.00     0.092 C 
ATOM      4  CB4 MOL d          11.568  16.447  37.146  0.00  0.00     0.096 C 
ATOM      5  CB5 MOL d          11.052  15.118  36.283  0.00  0.00     0.089 C 
ATOM      6  OB5 MOL d          11.702  15.135  34.951  0.00  0.00    -0.348 OA
ATOM      7  H12 MOL d          13.546  15.235  33.935  0.00  0.00     0.133 H 
ATOM      8  H13 MOL d          13.476  17.253  35.394  0.00  0.00     0.094 H 
ATOM      9  H14 MOL d          13.354  15.378  37.847  0.00  0.00     0.091 H 
ATOM     10  H15 MOL d          11.320  17.372  36.605  0.00  0.00     0.091 H 
ATOM     11  H16 MOL d          11.333  14.206  36.829  0.00  0.00     0.090 H 
ENDROOT
BRANCH   4  12
ATOM     12  OB4 MOL d          10.970  16.465  38.432  0.00  0.00    -0.348 OA
BRANCH  12  13
ATOM     13  CD1 MOL d          11.674  15.572  39.358  0.00  0.00     0.159 C 
ATOM     14  CD2 MOL d          10.732  14.613  40.191  0.00  0.00     0.110 C 
ATOM     15  CD3 MOL d           9.784  15.512  41.098  0.00  0.00     0.092 C 
ATOM     16  H23 MOL d          11.331  13.949  40.831  0.00  0.00     0.094 H 
ATOM     17  CD4 MOL d          10.673  16.337  42.082  0.00  0.00     0.092 C 
ATOM     18  H24 MOL d           9.186  16.186  40.467  0.00  0.00     0.091 H 
ATOM     19  CD5 MOL d          11.675  17.290  41.206  0.00  0.00     0.089 C 
ATOM     20  H25 MOL d          11.263  15.650  42.707  0.00  0.00     0.091 H 
ATOM     21  OD5 MOL d          12.495  16.409  40.309  0.00  0.00    -0.348 OA
ATOM     22  H26 MOL d          11.077  17.981  40.595  0.00  0.00     0.090 H 
ATOM     23  H22 MOL d          12.352  14.941  38.765  0.00  0.00     0.133 H 
BRANCH  14  24
ATOM     24  OD2 MOL d           9.976  13.827  39.248  0.00  0.00    -0.388 OA
ATOM     25  H29 MOL d           9.911  14.298  38.425  0.00  0.00     0.210 HD
ENDBRANCH  14  24
BRANCH  15  26
ATOM     26  OD3 MOL d           8.938  14.682  41.854  0.00  0.00    -0.390 OA
ATOM     27  H30 MOL d           8.854  13.840  41.422  0.00  0.00     0.210 HD
ENDBRANCH  15  26
BRANCH  17  28
ATOM     28  OD4 MOL d           9.839  17.189  42.940  0.00  0.00    -0.385 OA
BRANCH  28  29
ATOM     29  CD7 MOL d           9.724  16.734  44.315  0.00  0.00     0.005 C 
ATOM     30  H32 MOL d          10.712  16.419  44.682  0.00  0.00     0.066 H 
ATOM     31  H33 MOL d           9.028  15.883  44.363  0.00  0.00     0.066 H 
ATOM     32  H34 MOL d           9.344  17.555  44.942  0.00  0.00     0.066 H 
ENDBRANCH  28  29
ENDBRANCH  17  28
BRANCH  19  33
ATOM     33  CD6 MOL d          12.610  18.117  42.136  0.00  0.00     0.043 C 
ATOM     34  H27 MOL d          13.397  18.586  41.526  0.00  0.00     0.078 H 
ATOM     35  H28 MOL d          13.070  17.441  42.872  0.00  0.00     0.078 H 
BRANCH  33  36
ATOM     36  OD6 MOL d          11.891  19.141  42.833  0.00  0.00    -0.398 OA
ATOM     37  H31 MOL d          10.961  18.954  42.797  0.00  0.00     0.209 HD
ENDBRANCH  33  36
ENDBRANCH  19  33
ENDBRANCH  12  13
ENDBRANCH   4  12
BRANCH   3  38
ATOM     38  OB3 MOL d          13.662  17.438  38.049  0.00  0.00    -0.390 OA
ATOM     39  H20 MOL d          14.099  18.025  37.443  0.00  0.00     0.210 HD
ENDBRANCH   3  38
BRANCH   5  40
ATOM     40  CB6 MOL d           9.554  15.118  36.046  0.00  0.00     0.043 C 
ATOM     41  H17 MOL d           9.264  14.170  35.569  0.00  0.00     0.078 H 
ATOM     42  H18 MOL d           9.294  15.956  35.382  0.00  0.00     0.078 H 
BRANCH  40  43
ATOM     43  OB6 MOL d           8.867  15.255  37.243  0.00  0.00    -0.398 OA
ATOM     44  H21 MOL d           9.483  15.450  37.940  0.00  0.00     0.209 HD
ENDBRANCH  40  43
ENDBRANCH   5  40
BRANCH   2  45
ATOM     45  OB2 MOL d          15.187  16.197  35.906  0.00  0.00    -0.388 OA
ATOM     46  H19 MOL d          15.457  15.795  36.723  0.00  0.00     0.210 HD
ENDBRANCH   2  45
BRANCH   1  47
ATOM     47  OA4 MOL d          13.702  13.886  35.480  0.00  0.00    -0.348 OA
BRANCH  47  48
ATOM     48  CA4 MOL d          15.008  13.748  35.303  0.00  0.00     0.090 C 
ATOM     49  CA3 MOL d          15.622  13.010  36.548  0.00  0.00     0.094 C 
ATOM     50  CA2 MOL d          17.006  12.372  36.173  0.00  0.00     0.121 C 
ATOM     51  H4  MOL d          14.933  12.201  36.834  0.00  0.00     0.091 H 
ATOM     52  CA1 MOL d          16.810  11.460  34.947  0.00  0.00     0.159 C 
ATOM     53  H2  MOL d          17.672  13.195  35.875  0.00  0.00     0.099 H 
ATOM     54  NA1 MOL d          17.535  10.355  34.860  0.00  0.00    -0.120 NA
ATOM     55  NA5 MOL d          15.888  11.800  33.908  0.00  0.00    -0.365 N 
ATOM     56  CA5 MOL d          15.022  12.990  34.013  0.00  0.00     0.059 C 
ATOM     57  H8  MOL d          15.827  11.202  33.071  0.00  0.00     0.161 HD
ATOM     58  H7  MOL d          13.989  12.667  33.817  0.00  0.00     0.079 H 
ATOM     59  H6  MOL d          15.512  14.718  35.183  0.00  0.00     0.090 H 
BRANCH  49  60
ATOM     60  OA3 MOL d          15.767  13.811  37.596  0.00  0.00    -0.390 OA
ATOM     61  H5  MOL d          15.705  14.716  37.313  0.00  0.00     0.210 HD
ENDBRANCH  49  60
BRANCH  50  62
ATOM     62  OA2 MOL d          17.618  11.732  37.182  0.00  0.00    -0.385 OA
ATOM     63  H3  MOL d          18.554  11.885  37.131  0.00  0.00     0.210 HD
ENDBRANCH  50  62
BRANCH  54  64
ATOM     64  OA7 MOL d          17.348   9.584  33.801  0.00  0.00    -0.265 OA
ATOM     65  H1  MOL d          17.450  10.102  33.012  0.00  0.00     0.247 HD
ENDBRANCH  54  64
BRANCH  56  66
ATOM     66  CA6 MOL d          15.495  13.953  32.877  0.00  0.00     0.038 C 
ATOM     67  H9  MOL d          14.616  14.437  32.426  0.00  0.00     0.077 H 
ATOM     68  H10 MOL d          16.028  13.372  32.110  0.00  0.00     0.077 H 
BRANCH  66  69
ATOM     69  OA6 MOL d          16.334  14.917  33.375  0.00  0.00    -0.399 OA
ATOM     70  H11 MOL d          15.820  15.588  33.809  0.00  0.00     0.209 HD
ENDBRANCH  66  69
ENDBRANCH  56  66
ENDBRANCH  47  48
ENDBRANCH   1  47
TORSDOF 19
ENDMDL
MODEL 9
REMARK VINA RESULT:      -5.2      3.473      9.124
REMARK  19 active torsions:
REMARK  status: ('A' for Active; 'I' for Inactive)
REMARK    1  A    between atoms: NA1_2  and  OA7_3 
REMARK    2  A    between atoms: CA2_4  and  OA2_5 
REMARK    3  A    between atoms: CA3_6  and  OA3_7 
REMARK    4  A    between atoms: CA4_8  and  OA4_9 
REMARK    5  A    between atoms: OA4_9  and  CB1_14 
REMARK    6  A    between atoms: CA5_10  and  CA6_12 
REMARK    7  A    between atoms: CA6_12  and  OA6_13 
REMARK    8  A    between atoms: CB2_15  and  OB2_20 
REMARK    9  A    between atoms: CB3_16  and  OB3_21 
REMARK   10  A    between atoms: CB4_17  and  OB4_22 
REMARK   11  A    between atoms: CB5_18  and  CB6_19 
REMARK   12  A    between atoms: CB6_19  and  OB6_24 
REMARK   13  A    between atoms: OB4_22  and  CD1_25 
REMARK   14  A    between atoms: CD2_26  and  OD2_31 
REMARK   15  A    between atoms: CD3_27  and  OD3_32 
REMARK   16  A    between atoms: CD4_28  and  OD4_33 
REMARK   17  A    between atoms: CD5_29  and  CD6_30 
REMARK   18  A    between atoms: CD6_30  and  OD6_35 
REMARK   19  A    between atoms: OD4_33  and  CD7_36 
ROOT
ATOM      1  CB1 MOL d          13.077  15.507  34.799  0.00  0.00     0.159 C 
ATOM      2  CB2 MOL d          13.455  16.781  35.694  0.00  0.00     0.110 C 
ATOM      3  CB3 MOL d          12.886  16.686  37.158  0.00  0.00     0.092 C 
ATOM      4  CB4 MOL d          11.332  16.556  37.041  0.00  0.00     0.096 C 
ATOM      5  CB5 MOL d          11.019  15.158  36.189  0.00  0.00     0.089 C 
ATOM      6  OB5 MOL d          11.610  15.284  34.836  0.00  0.00    -0.348 OA
ATOM      7  H12 MOL d          13.373  15.695  33.756  0.00  0.00     0.133 H 
ATOM      8  H13 MOL d          13.013  17.674  35.228  0.00  0.00     0.094 H 
ATOM      9  H14 MOL d          13.298  15.806  37.673  0.00  0.00     0.091 H 
ATOM     10  H15 MOL d          10.912  17.425  36.514  0.00  0.00     0.091 H 
ATOM     11  H16 MOL d          11.470  14.308  36.720  0.00  0.00     0.090 H 
ENDROOT
BRANCH   4  12
ATOM     12  OB4 MOL d          10.785  16.473  38.346  0.00  0.00    -0.348 OA
BRANCH  12  13
ATOM     13  CD1 MOL d          11.543  15.535  39.181  0.00  0.00     0.159 C 
ATOM     14  CD2 MOL d          10.653  14.512  39.996  0.00  0.00     0.110 C 
ATOM     15  CD3 MOL d           9.737  15.339  41.000  0.00  0.00     0.092 C 
ATOM     16  H23 MOL d          11.290  13.819  40.565  0.00  0.00     0.094 H 
ATOM     17  CD4 MOL d          10.662  16.115  41.991  0.00  0.00     0.092 C 
ATOM     18  H24 MOL d           9.102  16.042  40.440  0.00  0.00     0.091 H 
ATOM     19  CD5 MOL d          11.610  17.136  41.131  0.00  0.00     0.089 C 
ATOM     20  H25 MOL d          11.289  15.400  42.545  0.00  0.00     0.091 H 
ATOM     21  OD5 MOL d          12.398  16.324  40.144  0.00  0.00    -0.348 OA
ATOM     22  H26 MOL d          10.975  17.854  40.593  0.00  0.00     0.090 H 
ATOM     23  H22 MOL d          12.200  14.952  38.519  0.00  0.00     0.133 H 
BRANCH  14  24
ATOM     24  OD2 MOL d           9.864  13.775  39.041  0.00  0.00    -0.388 OA
ATOM     25  H29 MOL d           9.333  14.379  38.536  0.00  0.00     0.210 HD
ENDBRANCH  14  24
BRANCH  15  26
ATOM     26  OD3 MOL d           8.939  14.451  41.741  0.00  0.00    -0.390 OA
ATOM     27  H30 MOL d           8.024  14.682  41.630  0.00  0.00     0.210 HD
ENDBRANCH  15  26
BRANCH  17  28
ATOM     28  OD4 MOL d           9.859  16.899  42.939  0.00  0.00    -0.385 OA
BRANCH  28  29
ATOM     29  CD7 MOL d           8.614  17.414  42.396  0.00  0.00     0.005 C 
ATOM     30  H32 MOL d           7.800  17.239  43.115  0.00  0.00     0.066 H 
ATOM     31  H33 MOL d           8.384  16.898  41.451  0.00  0.00     0.066 H 
ATOM     32  H34 MOL d           8.713  18.494  42.209  0.00  0.00     0.066 H 
ENDBRANCH  28  29
ENDBRANCH  17  28
BRANCH  19  33
ATOM     33  CD6 MOL d          12.577  17.918  42.067  0.00  0.00     0.043 C 
ATOM     34  H27 MOL d          13.357  18.396  41.455  0.00  0.00     0.078 H 
ATOM     35  H28 MOL d          13.044  17.211  42.769  0.00  0.00     0.078 H 
BRANCH  33  36
ATOM     36  OD6 MOL d          11.889  18.928  42.814  0.00  0.00    -0.398 OA
ATOM     37  H31 MOL d          11.001  18.639  42.991  0.00  0.00     0.209 HD
ENDBRANCH  33  36
ENDBRANCH  19  33
ENDBRANCH  12  13
ENDBRANCH   4  12
BRANCH   3  38
ATOM     38  OB3 MOL d          13.258  17.889  37.876  0.00  0.00    -0.390 OA
ATOM     39  H20 MOL d          13.182  18.638  37.296  0.00  0.00     0.210 HD
ENDBRANCH   3  38
BRANCH   5  40
ATOM     40  CB6 MOL d           9.536  14.904  36.004  0.00  0.00     0.043 C 
ATOM     41  H17 MOL d           9.352  13.819  36.008  0.00  0.00     0.078 H 
ATOM     42  H18 MOL d           9.216  15.325  35.039  0.00  0.00     0.078 H 
BRANCH  40  43
ATOM     43  OB6 MOL d           8.805  15.493  37.025  0.00  0.00    -0.398 OA
ATOM     44  H21 MOL d           7.882  15.475  36.802  0.00  0.00     0.209 HD
ENDBRANCH  40  43
ENDBRANCH   5  40
BRANCH   2  45
ATOM     45  OB2 MOL d          14.895  16.923  35.675  0.00  0.00    -0.388 OA
ATOM     46  H19 MOL d          15.120  17.826  35.484  0.00  0.00     0.210 HD
ENDBRANCH   2  45
BRANCH   1  47
ATOM     47  OA4 MOL d          13.810  14.393  35.288  0.00  0.00    -0.348 OA
BRANCH  47  48
ATOM     48  CA4 MOL d          14.384  13.676  34.332  0.00  0.00     0.090 C 
ATOM     49  CA3 MOL d          15.900  14.081  34.224  0.00  0.00     0.094 C 
ATOM     50  CA2 MOL d          16.715  12.943  33.513  0.00  0.00     0.121 C 
ATOM     51  H4  MOL d          16.290  14.200  35.246  0.00  0.00     0.091 H 
ATOM     52  CA1 MOL d          16.478  11.622  34.270  0.00  0.00     0.159 C 
ATOM     53  H2  MOL d          16.298  12.829  32.502  0.00  0.00     0.099 H 
ATOM     54  NA1 MOL d          17.475  10.755  34.354  0.00  0.00    -0.120 NA
ATOM     55  NA5 MOL d          15.208  11.318  34.853  0.00  0.00    -0.365 N 
ATOM     56  CA5 MOL d          14.103  12.294  34.831  0.00  0.00     0.059 C 
ATOM     57  H8  MOL d          15.063  10.400  35.296  0.00  0.00     0.161 HD
ATOM     58  H7  MOL d          13.727  12.394  35.861  0.00  0.00     0.079 H 
ATOM     59  H6  MOL d          13.905  13.836  33.355  0.00  0.00     0.090 H 
BRANCH  49  60
ATOM     60  OA3 MOL d          16.078  15.228  33.582  0.00  0.00    -0.390 OA
ATOM     61  H5  MOL d          16.307  15.052  32.677  0.00  0.00     0.210 HD
ENDBRANCH  49  60
BRANCH  50  62
ATOM     62  OA2 MOL d          18.022  13.206  33.360  0.00  0.00    -0.385 OA
ATOM     63  H3  MOL d          18.344  12.764  32.583  0.00  0.00     0.210 HD
ENDBRANCH  50  62
BRANCH  54  64
ATOM     64  OA7 MOL d          17.252   9.628  35.011  0.00  0.00    -0.265 OA
ATOM     65  H1  MOL d          17.098   9.823  35.928  0.00  0.00     0.247 HD
ENDBRANCH  54  64
BRANCH  56  66
ATOM     66  CA6 MOL d          12.998  11.657  33.929  0.00  0.00     0.038 C 
ATOM     67  H9  MOL d          12.606  10.755  34.422  0.00  0.00     0.077 H 
ATOM     68  H10 MOL d          13.438  11.383  32.959  0.00  0.00     0.077 H 
BRANCH  66  69
ATOM     69  OA6 MOL d          11.969  12.540  33.723  0.00  0.00    -0.399 OA
ATOM     70  H11 MOL d          12.275  13.425  33.886  0.00  0.00     0.209 HD
ENDBRANCH  66  69
ENDBRANCH  56  66
ENDBRANCH  47  48
ENDBRANCH   1  47
TORSDOF 19
ENDMDL
MODEL 10
REMARK VINA RESULT:      -5.2      3.080      8.668
REMARK  19 active torsions:
REMARK  status: ('A' for Active; 'I' for Inactive)
REMARK    1  A    between atoms: NA1_2  and  OA7_3 
REMARK    2  A    between atoms: CA2_4  and  OA2_5 
REMARK    3  A    between atoms: CA3_6  and  OA3_7 
REMARK    4  A    between atoms: CA4_8  and  OA4_9 
REMARK    5  A    between atoms: OA4_9  and  CB1_14 
REMARK    6  A    between atoms: CA5_10  and  CA6_12 
REMARK    7  A    between atoms: CA6_12  and  OA6_13 
REMARK    8  A    between atoms: CB2_15  and  OB2_20 
REMARK    9  A    between atoms: CB3_16  and  OB3_21 
REMARK   10  A    between atoms: CB4_17  and  OB4_22 
REMARK   11  A    between atoms: CB5_18  and  CB6_19 
REMARK   12  A    between atoms: CB6_19  and  OB6_24 
REMARK   13  A    between atoms: OB4_22  and  CD1_25 
REMARK   14  A    between atoms: CD2_26  and  OD2_31 
REMARK   15  A    between atoms: CD3_27  and  OD3_32 
REMARK   16  A    between atoms: CD4_28  and  OD4_33 
REMARK   17  A    between atoms: CD5_29  and  CD6_30 
REMARK   18  A    between atoms: CD6_30  and  OD6_35 
REMARK   19  A    between atoms: OD4_33  and  CD7_36 
ROOT
ATOM      1  CB1 MOL d          14.361  14.293  37.076  0.00  0.00     0.159 C 
ATOM      2  CB2 MOL d          13.145  15.311  36.845  0.00  0.00     0.110 C 
ATOM      3  CB3 MOL d          13.272  16.617  37.711  0.00  0.00     0.092 C 
ATOM      4  CB4 MOL d          13.319  16.173  39.210  0.00  0.00     0.096 C 
ATOM      5  CB5 MOL d          14.664  15.205  39.393  0.00  0.00     0.089 C 
ATOM      6  OB5 MOL d          14.513  14.013  38.526  0.00  0.00    -0.348 OA
ATOM      7  H12 MOL d          14.146  13.346  36.560  0.00  0.00     0.133 H 
ATOM      8  H13 MOL d          12.214  14.808  37.143  0.00  0.00     0.094 H 
ATOM      9  H14 MOL d          14.191  17.162  37.453  0.00  0.00     0.091 H 
ATOM     10  H15 MOL d          12.410  15.614  39.476  0.00  0.00     0.091 H 
ATOM     11  H16 MOL d          15.557  15.776  39.098  0.00  0.00     0.090 H 
ENDROOT
BRANCH   4  12
ATOM     12  OB4 MOL d          13.428  17.330  40.022  0.00  0.00    -0.348 OA
BRANCH  12  13
ATOM     13  CD1 MOL d          12.113  17.928  40.275  0.00  0.00     0.159 C 
ATOM     14  CD2 MOL d          11.935  18.540  41.723  0.00  0.00     0.110 C 
ATOM     15  CD3 MOL d          12.084  17.363  42.782  0.00  0.00     0.092 C 
ATOM     16  H23 MOL d          10.942  19.003  41.824  0.00  0.00     0.094 H 
ATOM     17  CD4 MOL d          10.951  16.319  42.526  0.00  0.00     0.092 C 
ATOM     18  H24 MOL d          13.071  16.888  42.684  0.00  0.00     0.091 H 
ATOM     19  CD5 MOL d          11.119  15.728  41.009  0.00  0.00     0.089 C 
ATOM     20  H25 MOL d           9.971  16.807  42.631  0.00  0.00     0.091 H 
ATOM     21  OD5 MOL d          11.051  16.879  40.047  0.00  0.00    -0.348 OA
ATOM     22  H26 MOL d          12.095  15.230  40.918  0.00  0.00     0.090 H 
ATOM     23  H22 MOL d          11.969  18.741  39.549  0.00  0.00     0.133 H 
BRANCH  14  24
ATOM     24  OD2 MOL d          12.958  19.542  41.894  0.00  0.00    -0.388 OA
ATOM     25  H29 MOL d          13.806  19.119  41.966  0.00  0.00     0.210 HD
ENDBRANCH  14  24
BRANCH  15  26
ATOM     26  OD3 MOL d          11.924  17.881  44.079  0.00  0.00    -0.390 OA
ATOM     27  H30 MOL d          12.770  17.913  44.512  0.00  0.00     0.210 HD
ENDBRANCH  15  26
BRANCH  17  28
ATOM     28  OD4 MOL d          11.050  15.207  43.481  0.00  0.00    -0.385 OA
BRANCH  28  29
ATOM     29  CD7 MOL d          12.382  14.644  43.620  0.00  0.00     0.005 C 
ATOM     30  H32 MOL d          12.986  15.290  44.275  0.00  0.00     0.066 H 
ATOM     31  H33 MOL d          12.858  14.579  42.630  0.00  0.00     0.066 H 
ATOM     32  H34 MOL d          12.312  13.638  44.061  0.00  0.00     0.066 H 
ENDBRANCH  28  29
ENDBRANCH  17  28
BRANCH  19  33
ATOM     33  CD6 MOL d           9.995  14.699  40.685  0.00  0.00     0.043 C 
ATOM     34  H27 MOL d          10.394  13.682  40.819  0.00  0.00     0.078 H 
ATOM     35  H28 MOL d           9.678  14.834  39.641  0.00  0.00     0.078 H 
BRANCH  33  36
ATOM     36  OD6 MOL d           8.860  14.870  41.541  0.00  0.00    -0.398 OA
ATOM     37  H31 MOL d           9.023  14.438  42.372  0.00  0.00     0.209 HD
ENDBRANCH  33  36
ENDBRANCH  19  33
ENDBRANCH  12  13
ENDBRANCH   4  12
BRANCH   3  38
ATOM     38  OB3 MOL d          12.119  17.456  37.452  0.00  0.00    -0.390 OA
ATOM     39  H20 MOL d          11.738  17.733  38.277  0.00  0.00     0.210 HD
ENDBRANCH   3  38
BRANCH   5  40
ATOM     40  CB6 MOL d          14.837  14.703  40.813  0.00  0.00     0.043 C 
ATOM     41  H17 MOL d          14.264  13.773  40.939  0.00  0.00     0.078 H 
ATOM     42  H18 MOL d          14.460  15.463  41.513  0.00  0.00     0.078 H 
BRANCH  40  43
ATOM     43  OB6 MOL d          16.174  14.455  41.087  0.00  0.00    -0.398 OA
ATOM     44  H21 MOL d          16.501  13.793  40.488  0.00  0.00     0.209 HD
ENDBRANCH  40  43
ENDBRANCH   5  40
BRANCH   2  45
ATOM     45  OB2 MOL d          13.074  15.599  35.428  0.00  0.00    -0.388 OA
ATOM     46  H19 MOL d          12.606  14.899  34.987  0.00  0.00     0.210 HD
ENDBRANCH   2  45
BRANCH   1  47
ATOM     47  OA4 MOL d          15.529  14.868  36.508  0.00  0.00    -0.348 OA
BRANCH  47  48
ATOM     48  CA4 MOL d          16.280  13.997  35.848  0.00  0.00     0.090 C 
ATOM     49  CA3 MOL d          16.321  12.643  36.647  0.00  0.00     0.094 C 
ATOM     50  CA2 MOL d          16.731  11.464  35.696  0.00  0.00     0.121 C 
ATOM     51  H4  MOL d          15.307  12.446  37.027  0.00  0.00     0.091 H 
ATOM     52  CA1 MOL d          15.769  11.445  34.493  0.00  0.00     0.159 C 
ATOM     53  H2  MOL d          17.738  11.691  35.315  0.00  0.00     0.099 H 
ATOM     54  NA1 MOL d          15.436  10.275  33.970  0.00  0.00    -0.120 NA
ATOM     55  NA5 MOL d          15.259  12.657  33.931  0.00  0.00    -0.365 N 
ATOM     56  CA5 MOL d          15.561  13.968  34.536  0.00  0.00     0.059 C 
ATOM     57  H8  MOL d          14.669  12.613  33.088  0.00  0.00     0.161 HD
ATOM     58  H7  MOL d          14.607  14.496  34.679  0.00  0.00     0.079 H 
ATOM     59  H6  MOL d          17.309  14.360  35.714  0.00  0.00     0.090 H 
BRANCH  49  60
ATOM     60  OA3 MOL d          17.144  12.688  37.687  0.00  0.00    -0.390 OA
ATOM     61  H5  MOL d          16.852  13.360  38.292  0.00  0.00     0.210 HD
ENDBRANCH  49  60
BRANCH  50  62
ATOM     62  OA2 MOL d          16.810  10.265  36.295  0.00  0.00    -0.385 OA
ATOM     63  H3  MOL d          17.347  10.337  37.075  0.00  0.00     0.210 HD
ENDBRANCH  50  62
BRANCH  54  64
ATOM     64  OA7 MOL d          14.605  10.281  32.940  0.00  0.00    -0.265 OA
ATOM     65  H1  MOL d          14.842  10.985  32.347  0.00  0.00     0.247 HD
ENDBRANCH  54  64
BRANCH  56  66
ATOM     66  CA6 MOL d          16.428  14.727  33.480  0.00  0.00     0.038 C 
ATOM     67  H9  MOL d          16.808  14.007  32.741  0.00  0.00     0.077 H 
ATOM     68  H10 MOL d          17.275  15.211  33.989  0.00  0.00     0.077 H 
BRANCH  66  69
ATOM     69  OA6 MOL d          15.684  15.682  32.837  0.00  0.00    -0.399 OA
ATOM     70  H11 MOL d          16.159  15.991  32.073  0.00  0.00     0.209 HD
ENDBRANCH  66  69
ENDBRANCH  56  66
ENDBRANCH  47  48
ENDBRANCH   1  47
TORSDOF 19
ENDMDL
