MODEL 1
REMARK VINA RESULT:      -5.8      0.000      0.000
REMARK  6 active torsions:
REMARK  status: ('A' for Active; 'I' for Inactive)
REMARK    1  A    between atoms: C1_1  and  O1_7 
REMARK    2  A    between atoms: C2_2  and  O2_8 
REMARK    3  A    between atoms: C3_3  and  O3_9 
REMARK    4  A    between atoms: C4_4  and  O4_10 
REMARK    5  A    between atoms: C5_5  and  C6_6 
REMARK    6  A    between atoms: O1_7  and  CM_12 
ROOT
ATOM      1  C1  MFU d          12.410   4.866  -3.679  0.00  0.00     0.158 C 
ATOM      2  C2  MFU d          11.079   4.720  -2.913  0.00  0.00     0.110 C 
ATOM      3  C3  MFU d          10.278   3.548  -3.472  0.00  0.00     0.092 C 
ATOM      4  C4  MFU d          11.139   2.287  -3.551  0.00  0.00     0.087 C 
ATOM      5  C5  MFU d          12.487   2.525  -4.245  0.00  0.00     0.065 C 
ATOM      6  O5  MFU d          13.161   3.632  -3.630  0.00  0.00    -0.351 OA
ATOM      7  H1  MFU d          13.007   5.667  -3.218  0.00  0.00     0.133 H 
ATOM      8  H2  MFU d          11.331   4.497  -1.865  0.00  0.00     0.094 H 
ATOM      9  H3  MFU d           9.903   3.807  -4.473  0.00  0.00     0.091 H 
ATOM     10  H4  MFU d          10.587   1.520  -4.114  0.00  0.00     0.091 H 
ATOM     11  H5  MFU d          12.286   2.786  -5.294  0.00  0.00     0.086 H 
ENDROOT
BRANCH   1  12
ATOM     12  O1  MFU d          12.126   5.212  -5.047  0.00  0.00    -0.363 OA
BRANCH  12  13
ATOM     13  CM  MFU d          12.886   6.314  -5.566  0.00  0.00     0.007 C 
ATOM     14  H12 MFU d          13.883   5.962  -5.870  0.00  0.00     0.066 H 
ATOM     15  H13 MFU d          12.992   7.085  -4.787  0.00  0.00     0.066 H 
ATOM     16  H14 MFU d          12.367   6.741  -6.437  0.00  0.00     0.066 H 
ENDBRANCH  12  13
ENDBRANCH   1  12
BRANCH   2  17
ATOM     17  O2  MFU d          10.240   5.908  -2.912  0.00  0.00    -0.388 OA
ATOM     18  H9  MFU d           9.899   6.054  -3.787  0.00  0.00     0.210 HD
ENDBRANCH   2  17
BRANCH   3  19
ATOM     19  O3  MFU d           9.182   3.254  -2.595  0.00  0.00    -0.390 OA
ATOM     20  H10 MFU d           8.774   2.439  -2.862  0.00  0.00     0.210 HD
ENDBRANCH   3  19
BRANCH   5  21
ATOM     21  C6  MFU d          13.367   1.271  -4.237  0.00  0.00    -0.050 C 
ATOM     22  H6  MFU d          14.410   1.555  -4.440  0.00  0.00     0.031 H 
ATOM     23  H7  MFU d          13.019   0.574  -5.014  0.00  0.00     0.031 H 
ATOM     24  H8  MFU d          13.304   0.785  -3.252  0.00  0.00     0.031 H 
ENDBRANCH   5  21
BRANCH   4  25
ATOM     25  O4  MFU d          11.374   1.818  -2.210  0.00  0.00    -0.390 OA
ATOM     26  H11 MFU d          11.025   2.448  -1.590  0.00  0.00     0.210 HD
ENDBRANCH   4  25
TORSDOF 6
ENDMDL
MODEL 2
REMARK VINA RESULT:      -4.9      1.118      3.401
REMARK  6 active torsions:
REMARK  status: ('A' for Active; 'I' for Inactive)
REMARK    1  A    between atoms: C1_1  and  O1_7 
REMARK    2  A    between atoms: C2_2  and  O2_8 
REMARK    3  A    between atoms: C3_3  and  O3_9 
REMARK    4  A    between atoms: C4_4  and  O4_10 
REMARK    5  A    between atoms: C5_5  and  C6_6 
REMARK    6  A    between atoms: O1_7  and  CM_12 
ROOT
ATOM      1  C1  MFU d          12.115   2.598  -4.900  0.00  0.00     0.158 C 
ATOM      2  C2  MFU d          10.710   2.439  -4.281  0.00  0.00     0.110 C 
ATOM      3  C3  MFU d          10.613   3.246  -2.990  0.00  0.00     0.092 C 
ATOM      4  C4  MFU d          11.082   4.685  -3.208  0.00  0.00     0.087 C 
ATOM      5  C5  MFU d          12.444   4.771  -3.910  0.00  0.00     0.065 C 
ATOM      6  O5  MFU d          12.418   3.995  -5.117  0.00  0.00    -0.351 OA
ATOM      7  H1  MFU d          12.146   2.072  -5.866  0.00  0.00     0.133 H 
ATOM      8  H2  MFU d           9.990   2.854  -5.002  0.00  0.00     0.094 H 
ATOM      9  H3  MFU d          11.228   2.767  -2.213  0.00  0.00     0.091 H 
ATOM     10  H4  MFU d          11.162   5.180  -2.229  0.00  0.00     0.091 H 
ATOM     11  H5  MFU d          13.198   4.335  -3.239  0.00  0.00     0.086 H 
ENDROOT
BRANCH   1  12
ATOM     12  O1  MFU d          13.087   2.019  -4.010  0.00  0.00    -0.363 OA
BRANCH  12  13
ATOM     13  CM  MFU d          13.780   0.874  -4.530  0.00  0.00     0.007 C 
ATOM     14  H12 MFU d          13.773   0.909  -5.630  0.00  0.00     0.066 H 
ATOM     15  H13 MFU d          13.278  -0.045  -4.190  0.00  0.00     0.066 H 
ATOM     16  H14 MFU d          14.819   0.880  -4.170  0.00  0.00     0.066 H 
ENDBRANCH  12  13
ENDBRANCH   1  12
BRANCH   2  17
ATOM     17  O2  MFU d          10.312   1.067  -4.012  0.00  0.00    -0.388 OA
ATOM     18  H9  MFU d           9.403   0.948  -4.259  0.00  0.00     0.210 HD
ENDBRANCH   2  17
BRANCH   3  19
ATOM     19  O3  MFU d           9.244   3.310  -2.566  0.00  0.00    -0.390 OA
ATOM     20  H10 MFU d           9.188   3.088  -1.644  0.00  0.00     0.210 HD
ENDBRANCH   3  19
BRANCH   5  21
ATOM     21  C6  MFU d          12.854   6.219  -4.195  0.00  0.00    -0.050 C 
ATOM     22  H6  MFU d          13.066   6.335  -5.267  0.00  0.00     0.031 H 
ATOM     23  H7  MFU d          13.756   6.466  -3.614  0.00  0.00     0.031 H 
ATOM     24  H8  MFU d          12.035   6.895  -3.907  0.00  0.00     0.031 H 
ENDBRANCH   5  21
BRANCH   4  25
ATOM     25  O4  MFU d          10.095   5.363  -4.008  0.00  0.00    -0.390 OA
ATOM     26  H11 MFU d          10.505   5.703  -4.794  0.00  0.00     0.210 HD
ENDBRANCH   4  25
TORSDOF 6
ENDMDL
MODEL 3
REMARK VINA RESULT:      -4.8      1.610      2.006
REMARK  6 active torsions:
REMARK  status: ('A' for Active; 'I' for Inactive)
REMARK    1  A    between atoms: C1_1  and  O1_7 
REMARK    2  A    between atoms: C2_2  and  O2_8 
REMARK    3  A    between atoms: C3_3  and  O3_9 
REMARK    4  A    between atoms: C4_4  and  O4_10 
REMARK    5  A    between atoms: C5_5  and  C6_6 
REMARK    6  A    between atoms: O1_7  and  CM_12 
ROOT
ATOM      1  C1  MFU d          11.321   4.302  -3.716  0.00  0.00     0.158 C 
ATOM      2  C2  MFU d          10.527   3.109  -3.143  0.00  0.00     0.110 C 
ATOM      3  C3  MFU d          10.293   2.065  -4.231  0.00  0.00     0.092 C 
ATOM      4  C4  MFU d          11.601   1.712  -4.939  0.00  0.00     0.087 C 
ATOM      5  C5  MFU d          12.384   2.948  -5.403  0.00  0.00     0.065 C 
ATOM      6  O5  MFU d          12.563   3.850  -4.301  0.00  0.00    -0.351 OA
ATOM      7  H1  MFU d          11.544   5.011  -2.904  0.00  0.00     0.133 H 
ATOM      8  H2  MFU d          11.148   2.655  -2.357  0.00  0.00     0.094 H 
ATOM      9  H3  MFU d           9.567   2.455  -4.960  0.00  0.00     0.091 H 
ATOM     10  H4  MFU d          11.368   1.096  -5.821  0.00  0.00     0.091 H 
ATOM     11  H5  MFU d          11.785   3.459  -6.171  0.00  0.00     0.086 H 
ENDROOT
BRANCH   1  12
ATOM     12  O1  MFU d          10.520   4.960  -4.715  0.00  0.00    -0.363 OA
BRANCH  12  13
ATOM     13  CM  MFU d          10.135   6.306  -4.395  0.00  0.00     0.007 C 
ATOM     14  H12 MFU d          10.979   6.825  -3.918  0.00  0.00     0.066 H 
ATOM     15  H13 MFU d           9.278   6.288  -3.704  0.00  0.00     0.066 H 
ATOM     16  H14 MFU d           9.852   6.836  -5.317  0.00  0.00     0.066 H 
ENDBRANCH  12  13
ENDBRANCH   1  12
BRANCH   2  17
ATOM     17  O2  MFU d           9.251   3.457  -2.540  0.00  0.00    -0.388 OA
ATOM     18  H9  MFU d           8.552   3.300  -3.165  0.00  0.00     0.210 HD
ENDBRANCH   2  17
BRANCH   3  19
ATOM     19  O3  MFU d           9.797   0.857  -3.638  0.00  0.00    -0.390 OA
ATOM     20  H10 MFU d           8.913   0.695  -3.945  0.00  0.00     0.210 HD
ENDBRANCH   3  19
BRANCH   5  21
ATOM     21  C6  MFU d          13.729   2.575  -6.033  0.00  0.00    -0.050 C 
ATOM     22  H6  MFU d          14.395   2.167  -5.259  0.00  0.00     0.031 H 
ATOM     23  H7  MFU d          14.188   3.472  -6.476  0.00  0.00     0.031 H 
ATOM     24  H8  MFU d          13.570   1.819  -6.816  0.00  0.00     0.031 H 
ENDBRANCH   5  21
BRANCH   4  25
ATOM     25  O4  MFU d          12.415   0.952  -4.027  0.00  0.00    -0.390 OA
ATOM     26  H11 MFU d          12.010   0.953  -3.168  0.00  0.00     0.210 HD
ENDBRANCH   4  25
TORSDOF 6
ENDMDL
MODEL 4
REMARK VINA RESULT:      -4.8      1.090      3.390
REMARK  6 active torsions:
REMARK  status: ('A' for Active; 'I' for Inactive)
REMARK    1  A    between atoms: C1_1  and  O1_7 
REMARK    2  A    between atoms: C2_2  and  O2_8 
REMARK    3  A    between atoms: C3_3  and  O3_9 
REMARK    4  A    between atoms: C4_4  and  O4_10 
REMARK    5  A    between atoms: C5_5  and  C6_6 
REMARK    6  A    between atoms: O1_7  and  CM_12 
ROOT
ATOM      1  C1  MFU d          11.216   2.885  -4.461  0.00  0.00     0.158 C 
ATOM      2  C2  MFU d          10.193   3.731  -3.674  0.00  0.00     0.110 C 
ATOM      3  C3  MFU d          10.879   4.952  -3.068  0.00  0.00     0.092 C 
ATOM      4  C4  MFU d          11.687   5.705  -4.125  0.00  0.00     0.087 C 
ATOM      5  C5  MFU d          12.618   4.789  -4.931  0.00  0.00     0.065 C 
ATOM      6  O5  MFU d          11.869   3.689  -5.469  0.00  0.00    -0.351 OA
ATOM      7  H1  MFU d          10.694   2.050  -4.952  0.00  0.00     0.133 H 
ATOM      8  H2  MFU d           9.440   4.081  -4.395  0.00  0.00     0.094 H 
ATOM      9  H3  MFU d          11.541   4.630  -2.250  0.00  0.00     0.091 H 
ATOM     10  H4  MFU d          12.300   6.467  -3.620  0.00  0.00     0.091 H 
ATOM     11  H5  MFU d          13.374   4.385  -4.244  0.00  0.00     0.086 H 
ENDROOT
BRANCH   1  12
ATOM     12  O1  MFU d          12.195   2.362  -3.544  0.00  0.00    -0.363 OA
BRANCH  12  13
ATOM     13  CM  MFU d          13.036   1.328  -4.078  0.00  0.00     0.007 C 
ATOM     14  H12 MFU d          13.480   0.753  -3.252  0.00  0.00     0.066 H 
ATOM     15  H13 MFU d          13.837   1.782  -4.681  0.00  0.00     0.066 H 
ATOM     16  H14 MFU d          12.436   0.657  -4.711  0.00  0.00     0.066 H 
ENDBRANCH  12  13
ENDBRANCH   1  12
BRANCH   2  17
ATOM     17  O2  MFU d           9.487   3.015  -2.624  0.00  0.00    -0.388 OA
ATOM     18  H9  MFU d           8.830   3.584  -2.240  0.00  0.00     0.210 HD
ENDBRANCH   2  17
BRANCH   3  19
ATOM     19  O3  MFU d           9.887   5.861  -2.571  0.00  0.00    -0.390 OA
ATOM     20  H10 MFU d           9.109   5.808  -3.115  0.00  0.00     0.210 HD
ENDBRANCH   3  19
BRANCH   5  21
ATOM     21  C6  MFU d          13.354   5.549  -6.039  0.00  0.00    -0.050 C 
ATOM     22  H6  MFU d          13.870   4.832  -6.694  0.00  0.00     0.031 H 
ATOM     23  H7  MFU d          14.091   6.230  -5.589  0.00  0.00     0.031 H 
ATOM     24  H8  MFU d          12.629   6.129  -6.629  0.00  0.00     0.031 H 
ENDBRANCH   5  21
BRANCH   4  25
ATOM     25  O4  MFU d          10.764   6.350  -5.022  0.00  0.00    -0.390 OA
ATOM     26  H11 MFU d          10.575   5.769  -5.750  0.00  0.00     0.210 HD
ENDBRANCH   4  25
TORSDOF 6
ENDMDL
MODEL 5
REMARK VINA RESULT:      -4.8      1.521      2.261
REMARK  6 active torsions:
REMARK  status: ('A' for Active; 'I' for Inactive)
REMARK    1  A    between atoms: C1_1  and  O1_7 
REMARK    2  A    between atoms: C2_2  and  O2_8 
REMARK    3  A    between atoms: C3_3  and  O3_9 
REMARK    4  A    between atoms: C4_4  and  O4_10 
REMARK    5  A    between atoms: C5_5  and  C6_6 
REMARK    6  A    between atoms: O1_7  and  CM_12 
ROOT
ATOM      1  C1  MFU d          12.883   3.369  -3.652  0.00  0.00     0.158 C 
ATOM      2  C2  MFU d          12.193   4.458  -2.804  0.00  0.00     0.110 C 
ATOM      3  C3  MFU d          10.864   4.854  -3.440  0.00  0.00     0.092 C 
ATOM      4  C4  MFU d          10.017   3.619  -3.748  0.00  0.00     0.087 C 
ATOM      5  C5  MFU d          10.791   2.539  -4.515  0.00  0.00     0.065 C 
ATOM      6  O5  MFU d          12.009   2.230  -3.821  0.00  0.00    -0.351 OA
ATOM      7  H1  MFU d          13.802   3.042  -3.143  0.00  0.00     0.133 H 
ATOM      8  H2  MFU d          11.986   4.017  -1.818  0.00  0.00     0.094 H 
ATOM      9  H3  MFU d          11.056   5.416  -4.366  0.00  0.00     0.091 H 
ATOM     10  H4  MFU d           9.155   3.929  -4.358  0.00  0.00     0.091 H 
ATOM     11  H5  MFU d          11.053   2.945  -5.502  0.00  0.00     0.086 H 
ENDROOT
BRANCH   1  12
ATOM     12  O1  MFU d          13.221   3.922  -4.938  0.00  0.00    -0.363 OA
BRANCH  12  13
ATOM     13  CM  MFU d          13.780   2.986  -5.873  0.00  0.00     0.007 C 
ATOM     14  H12 MFU d          12.980   2.346  -6.274  0.00  0.00     0.066 H 
ATOM     15  H13 MFU d          14.529   2.361  -5.363  0.00  0.00     0.066 H 
ATOM     16  H14 MFU d          14.259   3.534  -6.698  0.00  0.00     0.066 H 
ENDBRANCH  12  13
ENDBRANCH   1  12
BRANCH   2  17
ATOM     17  O2  MFU d          12.988   5.656  -2.584  0.00  0.00    -0.388 OA
ATOM     18  H9  MFU d          13.338   5.645  -1.701  0.00  0.00     0.210 HD
ENDBRANCH   2  17
BRANCH   3  19
ATOM     19  O3  MFU d          10.114   5.660  -2.521  0.00  0.00    -0.390 OA
ATOM     20  H10 MFU d          10.278   5.362  -1.634  0.00  0.00     0.210 HD
ENDBRANCH   3  19
BRANCH   5  21
ATOM     21  C6  MFU d           9.951   1.278  -4.738  0.00  0.00    -0.050 C 
ATOM     22  H6  MFU d           9.147   1.235  -3.988  0.00  0.00     0.031 H 
ATOM     23  H7  MFU d          10.591   0.388  -4.640  0.00  0.00     0.031 H 
ATOM     24  H8  MFU d           9.511   1.304  -5.746  0.00  0.00     0.031 H 
ENDBRANCH   5  21
BRANCH   4  25
ATOM     25  O4  MFU d           9.550   3.072  -2.501  0.00  0.00    -0.390 OA
ATOM     26  H11 MFU d          10.201   2.472  -2.157  0.00  0.00     0.210 HD
ENDBRANCH   4  25
TORSDOF 6
ENDMDL
MODEL 6
REMARK VINA RESULT:      -4.5      1.462      3.227
REMARK  6 active torsions:
REMARK  status: ('A' for Active; 'I' for Inactive)
REMARK    1  A    between atoms: C1_1  and  O1_7 
REMARK    2  A    between atoms: C2_2  and  O2_8 
REMARK    3  A    between atoms: C3_3  and  O3_9 
REMARK    4  A    between atoms: C4_4  and  O4_10 
REMARK    5  A    between atoms: C5_5  and  C6_6 
REMARK    6  A    between atoms: O1_7  and  CM_12 
ROOT
ATOM      1  C1  MFU d          11.786   3.308  -5.393  0.00  0.00     0.158 C 
ATOM      2  C2  MFU d          11.581   2.171  -4.371  0.00  0.00     0.110 C 
ATOM      3  C3  MFU d          11.644   2.725  -2.950  0.00  0.00     0.092 C 
ATOM      4  C4  MFU d          10.718   3.931  -2.794  0.00  0.00     0.087 C 
ATOM      5  C5  MFU d          10.912   4.982  -3.895  0.00  0.00     0.065 C 
ATOM      6  O5  MFU d          10.815   4.358  -5.183  0.00  0.00    -0.351 OA
ATOM      7  H1  MFU d          11.666   2.907  -6.410  0.00  0.00     0.133 H 
ATOM      8  H2  MFU d          10.573   1.763  -4.537  0.00  0.00     0.094 H 
ATOM      9  H3  MFU d          12.679   3.016  -2.718  0.00  0.00     0.091 H 
ATOM     10  H4  MFU d          10.919   4.404  -1.821  0.00  0.00     0.091 H 
ATOM     11  H5  MFU d          11.924   5.398  -3.791  0.00  0.00     0.086 H 
ENDROOT
BRANCH   1  12
ATOM     12  O1  MFU d          13.117   3.836  -5.244  0.00  0.00    -0.363 OA
BRANCH  12  13
ATOM     13  CM  MFU d          13.515   4.774  -6.256  0.00  0.00     0.007 C 
ATOM     14  H12 MFU d          12.946   4.582  -7.178  0.00  0.00     0.066 H 
ATOM     15  H13 MFU d          14.591   4.660  -6.459  0.00  0.00     0.066 H 
ATOM     16  H14 MFU d          13.313   5.798  -5.907  0.00  0.00     0.066 H 
ENDBRANCH  12  13
ENDBRANCH   1  12
BRANCH   2  17
ATOM     17  O2  MFU d          12.519   1.066  -4.489  0.00  0.00    -0.388 OA
ATOM     18  H9  MFU d          13.098   1.220  -5.226  0.00  0.00     0.210 HD
ENDBRANCH   2  17
BRANCH   3  19
ATOM     19  O3  MFU d          11.193   1.725  -2.026  0.00  0.00    -0.390 OA
ATOM     20  H10 MFU d          10.294   1.494  -2.225  0.00  0.00     0.210 HD
ENDBRANCH   3  19
BRANCH   5  21
ATOM     21  C6  MFU d           9.917   6.139  -3.767  0.00  0.00    -0.050 C 
ATOM     22  H6  MFU d          10.008   6.799  -4.643  0.00  0.00     0.031 H 
ATOM     23  H7  MFU d          10.136   6.712  -2.853  0.00  0.00     0.031 H 
ATOM     24  H8  MFU d           8.894   5.739  -3.714  0.00  0.00     0.031 H 
ENDBRANCH   5  21
BRANCH   4  25
ATOM     25  O4  MFU d           9.357   3.460  -2.824  0.00  0.00    -0.390 OA
ATOM     26  H11 MFU d           9.303   2.690  -3.377  0.00  0.00     0.210 HD
ENDBRANCH   4  25
TORSDOF 6
ENDMDL
MODEL 7
REMARK VINA RESULT:      -4.5      1.700      3.347
REMARK  6 active torsions:
REMARK  status: ('A' for Active; 'I' for Inactive)
REMARK    1  A    between atoms: C1_1  and  O1_7 
REMARK    2  A    between atoms: C2_2  and  O2_8 
REMARK    3  A    between atoms: C3_3  and  O3_9 
REMARK    4  A    between atoms: C4_4  and  O4_10 
REMARK    5  A    between atoms: C5_5  and  C6_6 
REMARK    6  A    between atoms: O1_7  and  CM_12 
ROOT
ATOM      1  C1  MFU d          10.351   2.940  -4.810  0.00  0.00     0.158 C 
ATOM      2  C2  MFU d          10.314   3.832  -3.552  0.00  0.00     0.110 C 
ATOM      3  C3  MFU d          11.695   3.888  -2.907  0.00  0.00     0.092 C 
ATOM      4  C4  MFU d          12.766   4.243  -3.939  0.00  0.00     0.087 C 
ATOM      5  C5  MFU d          12.689   3.377  -5.203  0.00  0.00     0.065 C 
ATOM      6  O5  MFU d          11.357   3.411  -5.735  0.00  0.00    -0.351 OA
ATOM      7  H1  MFU d           9.369   2.969  -5.304  0.00  0.00     0.133 H 
ATOM      8  H2  MFU d          10.047   4.847  -3.883  0.00  0.00     0.094 H 
ATOM      9  H3  MFU d          11.924   2.913  -2.451  0.00  0.00     0.091 H 
ATOM     10  H4  MFU d          13.756   4.103  -3.480  0.00  0.00     0.091 H 
ATOM     11  H5  MFU d          12.917   2.339  -4.917  0.00  0.00     0.086 H 
ENDROOT
BRANCH   1  12
ATOM     12  O1  MFU d          10.646   1.587  -4.415  0.00  0.00    -0.363 OA
BRANCH  12  13
ATOM     13  CM  MFU d           9.999   0.571  -5.197  0.00  0.00     0.007 C 
ATOM     14  H12 MFU d          10.691  -0.269  -5.351  0.00  0.00     0.066 H 
ATOM     15  H13 MFU d           9.707   0.989  -6.172  0.00  0.00     0.066 H 
ATOM     16  H14 MFU d           9.103   0.216  -4.667  0.00  0.00     0.066 H 
ENDBRANCH  12  13
ENDBRANCH   1  12
BRANCH   2  17
ATOM     17  O2  MFU d           9.339   3.434  -2.549  0.00  0.00    -0.388 OA
ATOM     18  H9  MFU d           8.603   4.035  -2.567  0.00  0.00     0.210 HD
ENDBRANCH   2  17
BRANCH   3  19
ATOM     19  O3  MFU d          11.717   4.916  -1.908  0.00  0.00    -0.390 OA
ATOM     20  H10 MFU d          11.531   4.535  -1.058  0.00  0.00     0.210 HD
ENDBRANCH   3  19
BRANCH   5  21
ATOM     21  C6  MFU d          13.714   3.805  -6.257  0.00  0.00    -0.050 C 
ATOM     22  H6  MFU d          13.357   3.515  -7.256  0.00  0.00     0.031 H 
ATOM     23  H7  MFU d          14.677   3.310  -6.055  0.00  0.00     0.031 H 
ATOM     24  H8  MFU d          13.847   4.896  -6.218  0.00  0.00     0.031 H 
ENDBRANCH   5  21
BRANCH   4  25
ATOM     25  O4  MFU d          12.599   5.626  -4.303  0.00  0.00    -0.390 OA
ATOM     26  H11 MFU d          11.747   5.928  -4.009  0.00  0.00     0.210 HD
ENDBRANCH   4  25
TORSDOF 6
ENDMDL
MODEL 8
REMARK VINA RESULT:      -4.4      1.603      3.089
REMARK  6 active torsions:
REMARK  status: ('A' for Active; 'I' for Inactive)
REMARK    1  A    between atoms: C1_1  and  O1_7 
REMARK    2  A    between atoms: C2_2  and  O2_8 
REMARK    3  A    between atoms: C3_3  and  O3_9 
REMARK    4  A    between atoms: C4_4  and  O4_10 
REMARK    5  A    between atoms: C5_5  and  C6_6 
REMARK    6  A    between atoms: O1_7  and  CM_12 
ROOT
ATOM      1  C1  MFU d          10.418   5.696  -4.012  0.00  0.00     0.158 C 
ATOM      2  C2  MFU d          10.711   4.449  -3.152  0.00  0.00     0.110 C 
ATOM      3  C3  MFU d          11.800   3.604  -3.806  0.00  0.00     0.092 C 
ATOM      4  C4  MFU d          13.014   4.460  -4.164  0.00  0.00     0.087 C 
ATOM      5  C5  MFU d          12.642   5.731  -4.941  0.00  0.00     0.065 C 
ATOM      6  O5  MFU d          11.629   6.456  -4.229  0.00  0.00    -0.351 OA
ATOM      7  H1  MFU d           9.686   6.330  -3.491  0.00  0.00     0.133 H 
ATOM      8  H2  MFU d          11.088   4.805  -2.181  0.00  0.00     0.094 H 
ATOM      9  H3  MFU d          11.397   3.129  -4.714  0.00  0.00     0.091 H 
ATOM     10  H4  MFU d          13.697   3.860  -4.784  0.00  0.00     0.091 H 
ATOM     11  H5  MFU d          12.227   5.425  -5.912  0.00  0.00     0.086 H 
ENDROOT
BRANCH   1  12
ATOM     12  O1  MFU d           9.872   5.275  -5.275  0.00  0.00    -0.363 OA
BRANCH  12  13
ATOM     13  CM  MFU d           9.556   6.340  -6.185  0.00  0.00     0.007 C 
ATOM     14  H12 MFU d           8.776   6.979  -5.745  0.00  0.00     0.066 H 
ATOM     15  H13 MFU d           9.191   5.916  -7.133  0.00  0.00     0.066 H 
ATOM     16  H14 MFU d          10.459   6.940  -6.374  0.00  0.00     0.066 H 
ENDBRANCH  12  13
ENDBRANCH   1  12
BRANCH   2  17
ATOM     17  O2  MFU d           9.556   3.606  -2.884  0.00  0.00    -0.388 OA
ATOM     18  H9  MFU d           9.115   3.914  -2.101  0.00  0.00     0.210 HD
ENDBRANCH   2  17
BRANCH   3  19
ATOM     19  O3  MFU d          12.249   2.602  -2.883  0.00  0.00    -0.390 OA
ATOM     20  H10 MFU d          11.697   1.833  -2.959  0.00  0.00     0.210 HD
ENDBRANCH   3  19
BRANCH   5  21
ATOM     21  C6  MFU d          13.862   6.616  -5.215  0.00  0.00    -0.050 C 
ATOM     22  H6  MFU d          14.567   6.078  -5.865  0.00  0.00     0.031 H 
ATOM     23  H7  MFU d          14.357   6.863  -4.263  0.00  0.00     0.031 H 
ATOM     24  H8  MFU d          13.539   7.542  -5.712  0.00  0.00     0.031 H 
ENDBRANCH   5  21
BRANCH   4  25
ATOM     25  O4  MFU d          13.679   4.831  -2.942  0.00  0.00    -0.390 OA
ATOM     26  H11 MFU d          13.520   5.750  -2.763  0.00  0.00     0.210 HD
ENDBRANCH   4  25
TORSDOF 6
ENDMDL
MODEL 9
REMARK VINA RESULT:      -3.7      1.808      2.059
REMARK  6 active torsions:
REMARK  status: ('A' for Active; 'I' for Inactive)
REMARK    1  A    between atoms: C1_1  and  O1_7 
REMARK    2  A    between atoms: C2_2  and  O2_8 
REMARK    3  A    between atoms: C3_3  and  O3_9 
REMARK    4  A    between atoms: C4_4  and  O4_10 
REMARK    5  A    between atoms: C5_5  and  C6_6 
REMARK    6  A    between atoms: O1_7  and  CM_12 
ROOT
ATOM      1  C1  MFU d          12.019   4.526  -2.875  0.00  0.00     0.158 C 
ATOM      2  C2  MFU d          10.632   4.725  -3.522  0.00  0.00     0.110 C 
ATOM      3  C3  MFU d          10.756   4.701  -5.043  0.00  0.00     0.092 C 
ATOM      4  C4  MFU d          11.534   3.471  -5.508  0.00  0.00     0.087 C 
ATOM      5  C5  MFU d          12.860   3.283  -4.760  0.00  0.00     0.065 C 
ATOM      6  O5  MFU d          12.626   3.302  -3.345  0.00  0.00    -0.351 OA
ATOM      7  H1  MFU d          11.904   4.472  -1.782  0.00  0.00     0.133 H 
ATOM      8  H2  MFU d          10.006   3.874  -3.214  0.00  0.00     0.094 H 
ATOM      9  H3  MFU d          11.265   5.616  -5.382  0.00  0.00     0.091 H 
ATOM     10  H4  MFU d          11.751   3.578  -6.582  0.00  0.00     0.091 H 
ATOM     11  H5  MFU d          13.513   4.131  -5.011  0.00  0.00     0.086 H 
ENDROOT
BRANCH   1  12
ATOM     12  O1  MFU d          12.856   5.648  -3.210  0.00  0.00    -0.363 OA
BRANCH  12  13
ATOM     13  CM  MFU d          14.071   5.748  -2.451  0.00  0.00     0.007 C 
ATOM     14  H12 MFU d          14.416   4.740  -2.177  0.00  0.00     0.066 H 
ATOM     15  H13 MFU d          13.885   6.333  -1.537  0.00  0.00     0.066 H 
ATOM     16  H14 MFU d          14.842   6.247  -3.056  0.00  0.00     0.066 H 
ENDBRANCH  12  13
ENDBRANCH   1  12
BRANCH   2  17
ATOM     17  O2  MFU d           9.939   5.939  -3.123  0.00  0.00    -0.388 OA
ATOM     18  H9  MFU d           9.382   5.754  -2.376  0.00  0.00     0.210 HD
ENDBRANCH   2  17
BRANCH   3  19
ATOM     19  O3  MFU d           9.449   4.619  -5.628  0.00  0.00    -0.390 OA
ATOM     20  H10 MFU d           9.381   3.820  -6.138  0.00  0.00     0.210 HD
ENDBRANCH   3  19
BRANCH   5  21
ATOM     21  C6  MFU d          13.582   1.999  -5.182  0.00  0.00    -0.050 C 
ATOM     22  H6  MFU d          14.667   2.133  -5.064  0.00  0.00     0.031 H 
ATOM     23  H7  MFU d          13.353   1.779  -6.236  0.00  0.00     0.031 H 
ATOM     24  H8  MFU d          13.245   1.165  -4.550  0.00  0.00     0.031 H 
ENDBRANCH   5  21
BRANCH   4  25
ATOM     25  O4  MFU d          10.706   2.310  -5.302  0.00  0.00    -0.390 OA
ATOM     26  H11 MFU d          10.882   1.673  -5.983  0.00  0.00     0.210 HD
ENDBRANCH   4  25
TORSDOF 6
ENDMDL
MODEL 10
REMARK VINA RESULT:      -3.6      1.790      2.055
REMARK  6 active torsions:
REMARK  status: ('A' for Active; 'I' for Inactive)
REMARK    1  A    between atoms: C1_1  and  O1_7 
REMARK    2  A    between atoms: C2_2  and  O2_8 
REMARK    3  A    between atoms: C3_3  and  O3_9 
REMARK    4  A    between atoms: C4_4  and  O4_10 
REMARK    5  A    between atoms: C5_5  and  C6_6 
REMARK    6  A    between atoms: O1_7  and  CM_12 
ROOT
ATOM      1  C1  MFU d          12.181   3.431  -3.322  0.00  0.00     0.158 C 
ATOM      2  C2  MFU d          10.765   3.248  -3.908  0.00  0.00     0.110 C 
ATOM      3  C3  MFU d          10.855   2.743  -5.345  0.00  0.00     0.092 C 
ATOM      4  C4  MFU d          11.774   1.525  -5.440  0.00  0.00     0.087 C 
ATOM      5  C5  MFU d          13.131   1.745  -4.758  0.00  0.00     0.065 C 
ATOM      6  O5  MFU d          12.930   2.198  -3.412  0.00  0.00    -0.351 OA
ATOM      7  H1  MFU d          12.100   3.725  -2.264  0.00  0.00     0.133 H 
ATOM      8  H2  MFU d          10.262   2.479  -3.303  0.00  0.00     0.094 H 
ATOM      9  H3  MFU d          11.234   3.549  -5.991  0.00  0.00     0.091 H 
ATOM     10  H4  MFU d          11.950   1.300  -6.502  0.00  0.00     0.091 H 
ATOM     11  H5  MFU d          13.663   2.534  -5.310  0.00  0.00     0.086 H 
ENDROOT
BRANCH   1  12
ATOM     12  O1  MFU d          12.858   4.470  -4.053  0.00  0.00    -0.363 OA
BRANCH  12  13
ATOM     13  CM  MFU d          13.306   5.579  -3.259  0.00  0.00     0.007 C 
ATOM     14  H12 MFU d          12.707   5.636  -2.338  0.00  0.00     0.066 H 
ATOM     15  H13 MFU d          13.188   6.512  -3.831  0.00  0.00     0.066 H 
ATOM     16  H14 MFU d          14.366   5.440  -2.998  0.00  0.00     0.066 H 
ENDBRANCH  12  13
ENDBRANCH   1  12
BRANCH   2  17
ATOM     17  O2  MFU d           9.931   4.438  -3.876  0.00  0.00    -0.388 OA
ATOM     18  H9  MFU d           9.321   4.377  -3.150  0.00  0.00     0.210 HD
ENDBRANCH   2  17
BRANCH   3  19
ATOM     19  O3  MFU d           9.556   2.325  -5.787  0.00  0.00    -0.390 OA
ATOM     20  H10 MFU d           9.597   2.085  -6.706  0.00  0.00     0.210 HD
ENDBRANCH   3  19
BRANCH   5  21
ATOM     21  C6  MFU d          14.002   0.486  -4.791  0.00  0.00    -0.050 C 
ATOM     22  H6  MFU d          13.990   0.006  -3.802  0.00  0.00     0.031 H 
ATOM     23  H7  MFU d          15.036   0.761  -5.051  0.00  0.00     0.031 H 
ATOM     24  H8  MFU d          13.608  -0.213  -5.543  0.00  0.00     0.031 H 
ENDBRANCH   5  21
BRANCH   4  25
ATOM     25  O4  MFU d          11.108   0.410  -4.819  0.00  0.00    -0.390 OA
ATOM     26  H11 MFU d          11.740  -0.097  -4.322  0.00  0.00     0.210 HD
ENDBRANCH   4  25
TORSDOF 6
ENDMDL
