MODEL 1
REMARK VINA RESULT:      -8.4      0.000      0.000
REMARK  8 active torsions:
REMARK  status: ('A' for Active; 'I' for Inactive)
REMARK    1  A    between atoms: CAU_6  and  OAS_7 
REMARK    2  A    between atoms: OAS_7  and  CAV_8 
REMARK    3  A    between atoms: CAT_13  and  CAQ_14 
REMARK    4  A    between atoms: CAQ_14  and  CAP_15 
REMARK    5  A    between atoms: CAP_15  and  CAR_16 
REMARK    6  A    between atoms: CAR_16  and  CAW_17 
REMARK    7  A    between atoms: CAW_17  and  PAX_18 
REMARK    8  A    between atoms: CAW_17  and  SAY_22 
ROOT
ATOM      1  CAV B65 d          15.561  52.520  38.963  0.00  0.00     0.076 A 
ATOM      2  CAO B65 d          16.013  52.001  37.751  0.00  0.00    -0.044 A 
ATOM      3  CAN B65 d          16.015  51.972  40.157  0.00  0.00    -0.050 A 
ATOM      4  CAJ B65 d          16.908  50.908  40.129  0.00  0.00    -0.080 A 
ATOM      5  CAK B65 d          17.349  50.385  38.916  0.00  0.00    -0.077 A 
ATOM      6  CAT B65 d          16.897  50.936  37.721  0.00  0.00    -0.056 A 
ATOM      7  H6  B65 d          15.669  52.437  36.821  0.00  0.00     0.088 H 
ATOM      8  H7  B65 d          15.674  52.372  41.104  0.00  0.00     0.087 H 
ATOM      9  H8  B65 d          17.264  50.481  41.060  0.00  0.00     0.083 H 
ATOM     10  H9  B65 d          18.042  49.552  38.903  0.00  0.00     0.084 H 
ENDROOT
BRANCH   6  11
ATOM     11  CAQ B65 d          17.317  50.353  36.367  0.00  0.00    -0.041 C 
ATOM     12  H10 B65 d          16.440  50.325  35.704  0.00  0.00     0.040 H 
ATOM     13  H11 B65 d          17.693  49.331  36.520  0.00  0.00     0.040 H 
BRANCH  11  14
ATOM     14  CAP B65 d          18.413  51.191  35.705  0.00  0.00    -0.059 C 
ATOM     15  H12 B65 d          18.067  52.230  35.597  0.00  0.00     0.033 H 
ATOM     16  H13 B65 d          18.644  50.776  34.713  0.00  0.00     0.033 H 
BRANCH  14  17
ATOM     17  CAR B65 d          19.670  51.161  36.576  0.00  0.00    -0.034 C 
ATOM     18  H14 B65 d          19.895  50.115  36.833  0.00  0.00     0.036 H 
ATOM     19  H15 B65 d          19.474  51.731  37.496  0.00  0.00     0.036 H 
BRANCH  17  20
ATOM     20  CAW B65 d          20.889  51.767  35.875  0.00  0.00     0.169 C 
ATOM     21  H16 B65 d          20.650  52.799  35.580  0.00  0.00     0.090 H 
BRANCH  20  22
ATOM     22  PAX B65 d          21.326  50.813  34.365  0.00  0.00     0.281 P 
ATOM     23  OAB B65 d          22.829  51.227  33.962  0.00  0.00    -0.639 OA
ATOM     24  OAC B65 d          21.371  49.267  34.818  0.00  0.00    -0.639 OA
ATOM     25  OAA B65 d          20.371  51.043  33.255  0.00  0.00    -0.639 OA
ENDBRANCH  20  22
BRANCH  20  26
ATOM     26  SAY B65 d          22.302  51.794  37.035  0.00  0.00     0.119 S 
ATOM     27  OAF B65 d          23.462  52.289  36.359  0.00  0.00    -0.594 OA
ATOM     28  OAE B65 d          22.577  50.408  37.531  0.00  0.00    -0.594 OA
ATOM     29  OAD B65 d          21.968  52.668  38.212  0.00  0.00    -0.594 OA
ENDBRANCH  20  26
ENDBRANCH  17  20
ENDBRANCH  14  17
ENDBRANCH  11  14
ENDBRANCH   6  11
BRANCH   1  30
ATOM     30  OAS B65 d          14.593  53.471  38.912  0.00  0.00    -0.311 OA
BRANCH  30  31
ATOM     31  CAU B65 d          14.439  54.238  40.029  0.00  0.00     0.076 A 
ATOM     32  CAL B65 d          15.230  55.359  40.217  0.00  0.00    -0.050 A 
ATOM     33  CAH B65 d          14.943  56.234  41.268  0.00  0.00    -0.080 A 
ATOM     34  H1  B65 d          16.065  55.556  39.554  0.00  0.00     0.087 H 
ATOM     35  CAG B65 d          13.874  55.981  42.119  0.00  0.00    -0.083 A 
ATOM     36  H2  B65 d          15.557  57.115  41.419  0.00  0.00     0.083 H 
ATOM     37  CAI B65 d          13.087  54.855  41.930  0.00  0.00    -0.080 A 
ATOM     38  H3  B65 d          13.655  56.665  42.932  0.00  0.00     0.083 H 
ATOM     39  CAM B65 d          13.373  53.978  40.884  0.00  0.00    -0.050 A 
ATOM     40  H4  B65 d          12.253  54.657  42.592  0.00  0.00     0.083 H 
ATOM     41  H5  B65 d          12.764  53.093  40.737  0.00  0.00     0.087 H 
ENDBRANCH  30  31
ENDBRANCH   1  30
TORSDOF 8
ENDMDL
