MODEL 1
REMARK VINA RESULT:      -8.7      0.000      0.000
REMARK  8 active torsions:
REMARK  status: ('A' for Active; 'I' for Inactive)
REMARK    1  A    between atoms: CAU_6  and  OAS_7 
REMARK    2  A    between atoms: OAS_7  and  CAV_8 
REMARK    3  A    between atoms: CAT_13  and  CAQ_14 
REMARK    4  A    between atoms: CAQ_14  and  CAP_15 
REMARK    5  A    between atoms: CAP_15  and  CAR_16 
REMARK    6  A    between atoms: CAR_16  and  CAW_17 
REMARK    7  A    between atoms: CAW_17  and  PAX_18 
REMARK    8  A    between atoms: CAW_17  and  SAY_22 
ROOT
ATOM      1  CAV B65 d          15.182  52.177  39.515  0.00  0.00     0.076 A 
ATOM      2  CAO B65 d          15.602  51.907  38.214  0.00  0.00    -0.044 A 
ATOM      3  CAN B65 d          15.874  51.628  40.588  0.00  0.00    -0.050 A 
ATOM      4  CAJ B65 d          16.972  50.810  40.352  0.00  0.00    -0.080 A 
ATOM      5  CAK B65 d          17.382  50.534  39.050  0.00  0.00    -0.077 A 
ATOM      6  CAT B65 d          16.691  51.085  37.976  0.00  0.00    -0.056 A 
ATOM      7  H6  B65 d          15.070  52.345  37.377  0.00  0.00     0.088 H 
ATOM      8  H7  B65 d          15.559  51.838  41.603  0.00  0.00     0.087 H 
ATOM      9  H8  B65 d          17.513  50.384  41.188  0.00  0.00     0.083 H 
ATOM     10  H9  B65 d          18.237  49.891  38.874  0.00  0.00     0.084 H 
ENDROOT
BRANCH   6  11
ATOM     11  CAQ B65 d          17.079  50.760  36.529  0.00  0.00    -0.041 C 
ATOM     12  H10 B65 d          16.188  50.856  35.892  0.00  0.00     0.040 H 
ATOM     13  H11 B65 d          17.452  49.727  36.484  0.00  0.00     0.040 H 
BRANCH  11  14
ATOM     14  CAP B65 d          18.166  51.704  36.009  0.00  0.00    -0.059 C 
ATOM     15  H12 B65 d          18.312  51.537  34.931  0.00  0.00     0.033 H 
ATOM     16  H13 B65 d          19.109  51.506  36.541  0.00  0.00     0.033 H 
BRANCH  14  17
ATOM     17  CAR B65 d          17.738  53.151  36.248  0.00  0.00    -0.034 C 
ATOM     18  H14 B65 d          17.126  53.192  37.161  0.00  0.00     0.036 H 
ATOM     19  H15 B65 d          17.139  53.488  35.390  0.00  0.00     0.036 H 
BRANCH  17  20
ATOM     20  CAW B65 d          18.930  54.100  36.415  0.00  0.00     0.169 C 
ATOM     21  H16 B65 d          19.696  53.838  35.671  0.00  0.00     0.090 H 
BRANCH  20  22
ATOM     22  PAX B65 d          19.666  53.948  38.093  0.00  0.00     0.281 P 
ATOM     23  OAB B65 d          18.447  53.835  39.137  0.00  0.00    -0.639 OA
ATOM     24  OAC B65 d          20.432  52.530  38.111  0.00  0.00    -0.639 OA
ATOM     25  OAA B65 d          20.571  55.076  38.416  0.00  0.00    -0.639 OA
ENDBRANCH  20  22
BRANCH  20  26
ATOM     26  SAY B65 d          18.380  55.819  36.121  0.00  0.00     0.119 S 
ATOM     27  OAF B65 d          19.523  56.652  35.903  0.00  0.00    -0.594 OA
ATOM     28  OAE B65 d          17.626  56.321  37.314  0.00  0.00    -0.594 OA
ATOM     29  OAD B65 d          17.468  55.856  34.926  0.00  0.00    -0.594 OA
ENDBRANCH  20  26
ENDBRANCH  17  20
ENDBRANCH  14  17
ENDBRANCH  11  14
ENDBRANCH   6  11
BRANCH   1  30
ATOM     30  OAS B65 d          14.028  52.876  39.664  0.00  0.00    -0.311 OA
BRANCH  30  31
ATOM     31  CAU B65 d          14.093  53.990  40.449  0.00  0.00     0.076 A 
ATOM     32  CAL B65 d          15.006  54.991  40.162  0.00  0.00    -0.050 A 
ATOM     33  CAH B65 d          14.941  56.200  40.858  0.00  0.00    -0.080 A 
ATOM     34  H1  B65 d          15.765  54.837  39.403  0.00  0.00     0.087 H 
ATOM     35  CAG B65 d          13.970  56.398  41.833  0.00  0.00    -0.083 A 
ATOM     36  H2  B65 d          15.652  56.988  40.637  0.00  0.00     0.083 H 
ATOM     37  CAI B65 d          13.060  55.391  42.120  0.00  0.00    -0.080 A 
ATOM     38  H3  B65 d          13.924  57.339  42.369  0.00  0.00     0.083 H 
ATOM     39  CAM B65 d          13.125  54.182  41.429  0.00  0.00    -0.050 A 
ATOM     40  H4  B65 d          12.302  55.544  42.879  0.00  0.00     0.083 H 
ATOM     41  H5  B65 d          12.419  53.390  41.655  0.00  0.00     0.087 H 
ENDBRANCH  30  31
ENDBRANCH   1  30
TORSDOF 8
ENDMDL
MODEL 2
REMARK VINA RESULT:      -8.6      2.115      3.371
REMARK  8 active torsions:
REMARK  status: ('A' for Active; 'I' for Inactive)
REMARK    1  A    between atoms: CAU_6  and  OAS_7 
REMARK    2  A    between atoms: OAS_7  and  CAV_8 
REMARK    3  A    between atoms: CAT_13  and  CAQ_14 
REMARK    4  A    between atoms: CAQ_14  and  CAP_15 
REMARK    5  A    between atoms: CAP_15  and  CAR_16 
REMARK    6  A    between atoms: CAR_16  and  CAW_17 
REMARK    7  A    between atoms: CAW_17  and  PAX_18 
REMARK    8  A    between atoms: CAW_17  and  SAY_22 
ROOT
ATOM      1  CAV B65 d          15.774  54.744  38.957  0.00  0.00     0.076 A 
ATOM      2  CAO B65 d          16.176  53.451  38.626  0.00  0.00    -0.044 A 
ATOM      3  CAN B65 d          15.376  55.618  37.953  0.00  0.00    -0.050 A 
ATOM      4  CAJ B65 d          15.391  55.197  36.629  0.00  0.00    -0.080 A 
ATOM      5  CAK B65 d          15.804  53.908  36.300  0.00  0.00    -0.077 A 
ATOM      6  CAT B65 d          16.199  53.032  37.306  0.00  0.00    -0.056 A 
ATOM      7  H6  B65 d          16.473  52.765  39.410  0.00  0.00     0.088 H 
ATOM      8  H7  B65 d          15.056  56.623  38.202  0.00  0.00     0.087 H 
ATOM      9  H8  B65 d          15.079  55.878  35.845  0.00  0.00     0.083 H 
ATOM     10  H9  B65 d          15.817  53.589  35.265  0.00  0.00     0.084 H 
ENDROOT
BRANCH   6  11
ATOM     11  CAQ B65 d          16.711  51.625  36.979  0.00  0.00    -0.041 C 
ATOM     12  H10 B65 d          15.947  51.096  36.391  0.00  0.00     0.040 H 
ATOM     13  H11 B65 d          16.889  51.084  37.920  0.00  0.00     0.040 H 
BRANCH  11  14
ATOM     14  CAP B65 d          18.014  51.668  36.177  0.00  0.00    -0.059 C 
ATOM     15  H12 B65 d          18.097  52.637  35.664  0.00  0.00     0.033 H 
ATOM     16  H13 B65 d          18.013  50.857  35.432  0.00  0.00     0.033 H 
BRANCH  14  17
ATOM     17  CAR B65 d          19.199  51.488  37.125  0.00  0.00    -0.034 C 
ATOM     18  H14 B65 d          19.564  50.454  37.041  0.00  0.00     0.036 H 
ATOM     19  H15 B65 d          18.858  51.674  38.154  0.00  0.00     0.036 H 
BRANCH  17  20
ATOM     20  CAW B65 d          20.355  52.443  36.813  0.00  0.00     0.169 C 
ATOM     21  H16 B65 d          20.153  52.940  35.853  0.00  0.00     0.090 H 
BRANCH  20  22
ATOM     22  PAX B65 d          21.947  51.532  36.678  0.00  0.00     0.281 P 
ATOM     23  OAB B65 d          22.281  50.942  38.137  0.00  0.00    -0.639 OA
ATOM     24  OAC B65 d          21.653  50.272  35.718  0.00  0.00    -0.639 OA
ATOM     25  OAA B65 d          23.043  52.385  36.160  0.00  0.00    -0.639 OA
ENDBRANCH  20  22
BRANCH  20  26
ATOM     26  SAY B65 d          20.464  53.711  38.127  0.00  0.00     0.119 S 
ATOM     27  OAF B65 d          20.147  54.993  37.576  0.00  0.00    -0.594 OA
ATOM     28  OAE B65 d          21.855  53.746  38.683  0.00  0.00    -0.594 OA
ATOM     29  OAD B65 d          19.511  53.366  39.237  0.00  0.00    -0.594 OA
ENDBRANCH  20  26
ENDBRANCH  17  20
ENDBRANCH  14  17
ENDBRANCH  11  14
ENDBRANCH   6  11
BRANCH   1  30
ATOM     30  OAS B65 d          15.908  55.125  40.253  0.00  0.00    -0.311 OA
BRANCH  30  31
ATOM     31  CAU B65 d          14.751  55.329  40.947  0.00  0.00     0.076 A 
ATOM     32  CAL B65 d          13.750  54.373  40.926  0.00  0.00    -0.050 A 
ATOM     33  CAH B65 d          12.652  54.509  41.780  0.00  0.00    -0.080 A 
ATOM     34  H1  B65 d          13.817  53.526  40.253  0.00  0.00     0.087 H 
ATOM     35  CAG B65 d          12.564  55.597  42.641  0.00  0.00    -0.083 A 
ATOM     36  H2  B65 d          11.866  53.763  41.770  0.00  0.00     0.083 H 
ATOM     37  CAI B65 d          13.567  56.554  42.655  0.00  0.00    -0.080 A 
ATOM     38  H3  B65 d          11.711  55.696  43.303  0.00  0.00     0.083 H 
ATOM     39  CAM B65 d          14.662  56.422  41.802  0.00  0.00    -0.050 A 
ATOM     40  H4  B65 d          13.500  57.402  43.327  0.00  0.00     0.083 H 
ATOM     41  H5  B65 d          15.445  57.172  41.806  0.00  0.00     0.087 H 
ENDBRANCH  30  31
ENDBRANCH   1  30
TORSDOF 8
ENDMDL
MODEL 3
REMARK VINA RESULT:      -8.5      1.543      2.449
REMARK  8 active torsions:
REMARK  status: ('A' for Active; 'I' for Inactive)
REMARK    1  A    between atoms: CAU_6  and  OAS_7 
REMARK    2  A    between atoms: OAS_7  and  CAV_8 
REMARK    3  A    between atoms: CAT_13  and  CAQ_14 
REMARK    4  A    between atoms: CAQ_14  and  CAP_15 
REMARK    5  A    between atoms: CAP_15  and  CAR_16 
REMARK    6  A    between atoms: CAR_16  and  CAW_17 
REMARK    7  A    between atoms: CAW_17  and  PAX_18 
REMARK    8  A    between atoms: CAW_17  and  SAY_22 
ROOT
ATOM      1  CAV B65 d          15.029  52.275  39.578  0.00  0.00     0.076 A 
ATOM      2  CAO B65 d          15.427  51.921  38.290  0.00  0.00    -0.044 A 
ATOM      3  CAN B65 d          15.696  51.742  40.674  0.00  0.00    -0.050 A 
ATOM      4  CAJ B65 d          16.747  50.856  40.475  0.00  0.00    -0.080 A 
ATOM      5  CAK B65 d          17.135  50.495  39.187  0.00  0.00    -0.077 A 
ATOM      6  CAT B65 d          16.469  51.031  38.090  0.00  0.00    -0.056 A 
ATOM      7  H6  B65 d          14.914  52.346  37.436  0.00  0.00     0.088 H 
ATOM      8  H7  B65 d          15.398  52.016  41.680  0.00  0.00     0.087 H 
ATOM      9  H8  B65 d          17.270  50.441  41.330  0.00  0.00     0.083 H 
ATOM     10  H9  B65 d          17.953  49.800  39.040  0.00  0.00     0.084 H 
ENDROOT
BRANCH   6  11
ATOM     11  CAQ B65 d          16.831  50.617  36.659  0.00  0.00    -0.041 C 
ATOM     12  H10 B65 d          16.284  51.259  35.953  0.00  0.00     0.040 H 
ATOM     13  H11 B65 d          16.536  49.569  36.506  0.00  0.00     0.040 H 
BRANCH  11  14
ATOM     14  CAP B65 d          18.332  50.753  36.393  0.00  0.00    -0.059 C 
ATOM     15  H12 B65 d          18.562  50.379  35.384  0.00  0.00     0.033 H 
ATOM     16  H13 B65 d          18.892  50.166  37.137  0.00  0.00     0.033 H 
BRANCH  14  17
ATOM     17  CAR B65 d          18.735  52.224  36.496  0.00  0.00    -0.034 C 
ATOM     18  H14 B65 d          17.824  52.832  36.605  0.00  0.00     0.036 H 
ATOM     19  H15 B65 d          19.258  52.511  35.572  0.00  0.00     0.036 H 
BRANCH  17  20
ATOM     20  CAW B65 d          19.655  52.503  37.687  0.00  0.00     0.169 C 
ATOM     21  H16 B65 d          19.390  51.819  38.506  0.00  0.00     0.090 H 
BRANCH  20  22
ATOM     22  PAX B65 d          19.462  54.232  38.283  0.00  0.00     0.281 P 
ATOM     23  OAB B65 d          17.884  54.498  38.459  0.00  0.00    -0.639 OA
ATOM     24  OAC B65 d          20.111  54.265  39.757  0.00  0.00    -0.639 OA
ATOM     25  OAA B65 d          20.093  55.216  37.372  0.00  0.00    -0.639 OA
ENDBRANCH  20  22
BRANCH  20  26
ATOM     26  SAY B65 d          21.390  52.196  37.196  0.00  0.00     0.119 S 
ATOM     27  OAF B65 d          21.510  52.314  35.775  0.00  0.00    -0.594 OA
ATOM     28  OAE B65 d          21.797  50.815  37.610  0.00  0.00    -0.594 OA
ATOM     29  OAD B65 d          22.288  53.187  37.882  0.00  0.00    -0.594 OA
ENDBRANCH  20  26
ENDBRANCH  17  20
ENDBRANCH  14  17
ENDBRANCH  11  14
ENDBRANCH   6  11
BRANCH   1  30
ATOM     30  OAS B65 d          13.914  53.041  39.697  0.00  0.00    -0.311 OA
BRANCH  30  31
ATOM     31  CAU B65 d          14.002  54.108  40.544  0.00  0.00     0.076 A 
ATOM     32  CAL B65 d          14.954  55.090  40.329  0.00  0.00    -0.050 A 
ATOM     33  CAH B65 d          14.916  56.261  41.090  0.00  0.00    -0.080 A 
ATOM     34  H1  B65 d          15.722  54.951  39.577  0.00  0.00     0.087 H 
ATOM     35  CAG B65 d          13.933  56.439  42.057  0.00  0.00    -0.083 A 
ATOM     36  H2  B65 d          15.657  57.035  40.926  0.00  0.00     0.083 H 
ATOM     37  CAI B65 d          12.984  55.450  42.271  0.00  0.00    -0.080 A 
ATOM     38  H3  B65 d          13.908  57.350  42.643  0.00  0.00     0.083 H 
ATOM     39  CAM B65 d          13.021  54.279  41.515  0.00  0.00    -0.050 A 
ATOM     40  H4  B65 d          12.216  55.587  43.023  0.00  0.00     0.083 H 
ATOM     41  H5  B65 d          12.284  53.502  41.684  0.00  0.00     0.087 H 
ENDBRANCH  30  31
ENDBRANCH   1  30
TORSDOF 8
ENDMDL
MODEL 4
REMARK VINA RESULT:      -8.5      2.698      4.319
REMARK  8 active torsions:
REMARK  status: ('A' for Active; 'I' for Inactive)
REMARK    1  A    between atoms: CAU_6  and  OAS_7 
REMARK    2  A    between atoms: OAS_7  and  CAV_8 
REMARK    3  A    between atoms: CAT_13  and  CAQ_14 
REMARK    4  A    between atoms: CAQ_14  and  CAP_15 
REMARK    5  A    between atoms: CAP_15  and  CAR_16 
REMARK    6  A    between atoms: CAR_16  and  CAW_17 
REMARK    7  A    between atoms: CAW_17  and  PAX_18 
REMARK    8  A    between atoms: CAW_17  and  SAY_22 
ROOT
ATOM      1  CAV B65 d          15.001  56.429  38.562  0.00  0.00     0.076 A 
ATOM      2  CAO B65 d          16.255  56.420  37.954  0.00  0.00    -0.044 A 
ATOM      3  CAN B65 d          13.859  56.555  37.780  0.00  0.00    -0.050 A 
ATOM      4  CAJ B65 d          13.981  56.678  36.401  0.00  0.00    -0.080 A 
ATOM      5  CAK B65 d          15.236  56.679  35.798  0.00  0.00    -0.077 A 
ATOM      6  CAT B65 d          16.378  56.551  36.581  0.00  0.00    -0.056 A 
ATOM      7  H6  B65 d          17.144  56.309  38.564  0.00  0.00     0.088 H 
ATOM      8  H7  B65 d          12.879  56.556  38.243  0.00  0.00     0.087 H 
ATOM      9  H8  B65 d          13.091  56.774  35.790  0.00  0.00     0.083 H 
ATOM     10  H9  B65 d          15.322  56.780  34.723  0.00  0.00     0.084 H 
ENDROOT
BRANCH   6  11
ATOM     11  CAQ B65 d          17.779  56.602  35.960  0.00  0.00    -0.041 C 
ATOM     12  H10 B65 d          18.096  57.653  35.883  0.00  0.00     0.040 H 
ATOM     13  H11 B65 d          17.739  56.157  34.955  0.00  0.00     0.040 H 
BRANCH  11  14
ATOM     14  CAP B65 d          18.801  55.836  36.803  0.00  0.00    -0.059 C 
ATOM     15  H12 B65 d          18.509  55.878  37.863  0.00  0.00     0.033 H 
ATOM     16  H13 B65 d          19.795  56.291  36.678  0.00  0.00     0.033 H 
BRANCH  14  17
ATOM     17  CAR B65 d          18.846  54.379  36.344  0.00  0.00    -0.034 C 
ATOM     18  H14 B65 d          19.501  54.307  35.462  0.00  0.00     0.036 H 
ATOM     19  H15 B65 d          17.829  54.064  36.072  0.00  0.00     0.036 H 
BRANCH  17  20
ATOM     20  CAW B65 d          19.378  53.434  37.426  0.00  0.00     0.169 C 
ATOM     21  H16 B65 d          20.177  53.948  37.981  0.00  0.00     0.090 H 
BRANCH  20  22
ATOM     22  PAX B65 d          20.072  51.902  36.684  0.00  0.00     0.281 P 
ATOM     23  OAB B65 d          20.820  52.330  35.325  0.00  0.00    -0.639 OA
ATOM     24  OAC B65 d          21.210  51.394  37.706  0.00  0.00    -0.639 OA
ATOM     25  OAA B65 d          19.035  50.871  36.446  0.00  0.00    -0.639 OA
ENDBRANCH  20  22
BRANCH  20  26
ATOM     26  SAY B65 d          18.025  53.018  38.584  0.00  0.00     0.119 S 
ATOM     27  OAF B65 d          17.965  54.006  39.618  0.00  0.00    -0.594 OA
ATOM     28  OAE B65 d          18.281  51.677  39.200  0.00  0.00    -0.594 OA
ATOM     29  OAD B65 d          16.723  52.963  37.834  0.00  0.00    -0.594 OA
ENDBRANCH  20  26
ENDBRANCH  17  20
ENDBRANCH  14  17
ENDBRANCH  11  14
ENDBRANCH   6  11
BRANCH   1  30
ATOM     30  OAS B65 d          14.966  56.435  39.919  0.00  0.00    -0.311 OA
BRANCH  30  31
ATOM     31  CAU B65 d          14.303  55.401  40.512  0.00  0.00     0.076 A 
ATOM     32  CAL B65 d          13.250  55.654  41.375  0.00  0.00    -0.050 A 
ATOM     33  CAH B65 d          12.466  54.591  41.832  0.00  0.00    -0.080 A 
ATOM     34  H1  B65 d          13.036  56.668  41.693  0.00  0.00     0.087 H 
ATOM     35  CAG B65 d          12.742  53.290  41.426  0.00  0.00    -0.083 A 
ATOM     36  H2  B65 d          11.639  54.782  42.506  0.00  0.00     0.083 H 
ATOM     37  CAI B65 d          13.801  53.042  40.565  0.00  0.00    -0.080 A 
ATOM     38  H3  B65 d          12.130  52.470  41.782  0.00  0.00     0.083 H 
ATOM     39  CAM B65 d          14.586  54.100  40.110  0.00  0.00    -0.050 A 
ATOM     40  H4  B65 d          14.017  52.029  40.247  0.00  0.00     0.083 H 
ATOM     41  H5  B65 d          15.419  53.909  39.442  0.00  0.00     0.087 H 
ENDBRANCH  30  31
ENDBRANCH   1  30
TORSDOF 8
ENDMDL
MODEL 5
REMARK VINA RESULT:      -8.4      1.047      2.356
REMARK  8 active torsions:
REMARK  status: ('A' for Active; 'I' for Inactive)
REMARK    1  A    between atoms: CAU_6  and  OAS_7 
REMARK    2  A    between atoms: OAS_7  and  CAV_8 
REMARK    3  A    between atoms: CAT_13  and  CAQ_14 
REMARK    4  A    between atoms: CAQ_14  and  CAP_15 
REMARK    5  A    between atoms: CAP_15  and  CAR_16 
REMARK    6  A    between atoms: CAR_16  and  CAW_17 
REMARK    7  A    between atoms: CAW_17  and  PAX_18 
REMARK    8  A    between atoms: CAW_17  and  SAY_22 
ROOT
ATOM      1  CAV B65 d          15.225  52.344  39.511  0.00  0.00     0.076 A 
ATOM      2  CAO B65 d          15.778  52.264  38.235  0.00  0.00    -0.044 A 
ATOM      3  CAN B65 d          15.801  51.632  40.556  0.00  0.00    -0.050 A 
ATOM      4  CAJ B65 d          16.919  50.842  40.316  0.00  0.00    -0.080 A 
ATOM      5  CAK B65 d          17.463  50.756  39.036  0.00  0.00    -0.077 A 
ATOM      6  CAT B65 d          16.887  51.471  37.991  0.00  0.00    -0.056 A 
ATOM      7  H6  B65 d          15.336  52.829  37.423  0.00  0.00     0.088 H 
ATOM      8  H7  B65 d          15.382  51.693  41.554  0.00  0.00     0.087 H 
ATOM      9  H8  B65 d          17.371  50.288  41.130  0.00  0.00     0.083 H 
ATOM     10  H9  B65 d          18.332  50.134  38.856  0.00  0.00     0.084 H 
ENDROOT
BRANCH   6  11
ATOM     11  CAQ B65 d          17.424  51.359  36.560  0.00  0.00    -0.041 C 
ATOM     12  H10 B65 d          16.983  52.162  35.950  0.00  0.00     0.040 H 
ATOM     13  H11 B65 d          17.134  50.383  36.146  0.00  0.00     0.040 H 
BRANCH  11  14
ATOM     14  CAP B65 d          18.949  51.484  36.515  0.00  0.00    -0.059 C 
ATOM     15  H12 B65 d          19.349  50.821  35.733  0.00  0.00     0.033 H 
ATOM     16  H13 B65 d          19.369  51.194  37.491  0.00  0.00     0.033 H 
BRANCH  14  17
ATOM     17  CAR B65 d          19.331  52.930  36.204  0.00  0.00    -0.034 C 
ATOM     18  H14 B65 d          18.968  53.181  35.196  0.00  0.00     0.036 H 
ATOM     19  H15 B65 d          20.427  53.018  36.231  0.00  0.00     0.036 H 
BRANCH  17  20
ATOM     20  CAW B65 d          18.735  53.927  37.201  0.00  0.00     0.169 C 
ATOM     21  H16 B65 d          17.809  53.501  37.615  0.00  0.00     0.090 H 
BRANCH  20  22
ATOM     22  PAX B65 d          18.331  55.522  36.381  0.00  0.00     0.281 P 
ATOM     23  OAB B65 d          17.490  55.173  35.054  0.00  0.00    -0.639 OA
ATOM     24  OAC B65 d          17.328  56.291  37.382  0.00  0.00    -0.639 OA
ATOM     25  OAA B65 d          19.540  56.324  36.078  0.00  0.00    -0.639 OA
ENDBRANCH  20  22
BRANCH  20  26
ATOM     26  SAY B65 d          19.922  54.202  38.565  0.00  0.00     0.119 S 
ATOM     27  OAF B65 d          20.205  55.601  38.674  0.00  0.00    -0.594 OA
ATOM     28  OAE B65 d          21.196  53.465  38.284  0.00  0.00    -0.594 OA
ATOM     29  OAD B65 d          19.339  53.683  39.850  0.00  0.00    -0.594 OA
ENDBRANCH  20  26
ENDBRANCH  17  20
ENDBRANCH  14  17
ENDBRANCH  11  14
ENDBRANCH   6  11
BRANCH   1  30
ATOM     30  OAS B65 d          14.060  53.030  39.644  0.00  0.00    -0.311 OA
BRANCH  30  31
ATOM     31  CAU B65 d          14.078  54.091  40.501  0.00  0.00     0.076 A 
ATOM     32  CAL B65 d          14.974  55.128  40.305  0.00  0.00    -0.050 A 
ATOM     33  CAH B65 d          14.862  56.288  41.076  0.00  0.00    -0.080 A 
ATOM     34  H1  B65 d          15.757  55.041  39.559  0.00  0.00     0.087 H 
ATOM     35  CAG B65 d          13.860  56.400  42.033  0.00  0.00    -0.083 A 
ATOM     36  H2  B65 d          15.559  57.104  40.926  0.00  0.00     0.083 H 
ATOM     37  CAI B65 d          12.968  55.356  42.229  0.00  0.00    -0.080 A 
ATOM     38  H3  B65 d          13.777  57.303  42.628  0.00  0.00     0.083 H 
ATOM     39  CAM B65 d          13.079  54.197  41.463  0.00  0.00    -0.050 A 
ATOM     40  H4  B65 d          12.186  55.442  42.975  0.00  0.00     0.083 H 
ATOM     41  H5  B65 d          12.387  53.377  41.617  0.00  0.00     0.087 H 
ENDBRANCH  30  31
ENDBRANCH   1  30
TORSDOF 8
ENDMDL
MODEL 6
REMARK VINA RESULT:      -8.2      1.773      4.458
REMARK  8 active torsions:
REMARK  status: ('A' for Active; 'I' for Inactive)
REMARK    1  A    between atoms: CAU_6  and  OAS_7 
REMARK    2  A    between atoms: OAS_7  and  CAV_8 
REMARK    3  A    between atoms: CAT_13  and  CAQ_14 
REMARK    4  A    between atoms: CAQ_14  and  CAP_15 
REMARK    5  A    between atoms: CAP_15  and  CAR_16 
REMARK    6  A    between atoms: CAR_16  and  CAW_17 
REMARK    7  A    between atoms: CAW_17  and  PAX_18 
REMARK    8  A    between atoms: CAW_17  and  SAY_22 
ROOT
ATOM      1  CAV B65 d          14.989  54.052  39.891  0.00  0.00     0.076 A 
ATOM      2  CAO B65 d          15.688  54.376  38.730  0.00  0.00    -0.044 A 
ATOM      3  CAN B65 d          14.316  55.047  40.589  0.00  0.00    -0.050 A 
ATOM      4  CAJ B65 d          14.353  56.356  40.126  0.00  0.00    -0.080 A 
ATOM      5  CAK B65 d          15.063  56.679  38.971  0.00  0.00    -0.077 A 
ATOM      6  CAT B65 d          15.734  55.682  38.272  0.00  0.00    -0.056 A 
ATOM      7  H6  B65 d          16.203  53.597  38.180  0.00  0.00     0.088 H 
ATOM      8  H7  B65 d          13.763  54.803  41.489  0.00  0.00     0.087 H 
ATOM      9  H8  B65 d          13.827  57.134  40.668  0.00  0.00     0.083 H 
ATOM     10  H9  B65 d          15.091  57.704  38.619  0.00  0.00     0.084 H 
ENDROOT
BRANCH   6  11
ATOM     11  CAQ B65 d          16.570  56.007  37.028  0.00  0.00    -0.041 C 
ATOM     12  H10 B65 d          17.523  56.453  37.346  0.00  0.00     0.040 H 
ATOM     13  H11 B65 d          16.018  56.727  36.407  0.00  0.00     0.040 H 
BRANCH  11  14
ATOM     14  CAP B65 d          16.860  54.754  36.198  0.00  0.00    -0.059 C 
ATOM     15  H12 B65 d          16.521  54.913  35.163  0.00  0.00     0.033 H 
ATOM     16  H13 B65 d          16.326  53.895  36.631  0.00  0.00     0.033 H 
BRANCH  14  17
ATOM     17  CAR B65 d          18.363  54.477  36.206  0.00  0.00    -0.034 C 
ATOM     18  H14 B65 d          18.894  55.420  36.405  0.00  0.00     0.036 H 
ATOM     19  H15 B65 d          18.655  54.094  35.218  0.00  0.00     0.036 H 
BRANCH  17  20
ATOM     20  CAW B65 d          18.770  53.452  37.269  0.00  0.00     0.169 C 
ATOM     21  H16 B65 d          17.862  53.079  37.764  0.00  0.00     0.090 H 
BRANCH  20  22
ATOM     22  PAX B65 d          19.859  54.213  38.539  0.00  0.00     0.281 P 
ATOM     23  OAB B65 d          19.819  55.805  38.305  0.00  0.00    -0.639 OA
ATOM     24  OAC B65 d          19.148  53.929  39.957  0.00  0.00    -0.639 OA
ATOM     25  OAA B65 d          21.241  53.680  38.491  0.00  0.00    -0.639 OA
ENDBRANCH  20  22
BRANCH  20  26
ATOM     26  SAY B65 d          19.624  52.051  36.462  0.00  0.00     0.119 S 
ATOM     27  OAF B65 d          20.750  52.541  35.727  0.00  0.00    -0.594 OA
ATOM     28  OAE B65 d          18.686  51.359  35.521  0.00  0.00    -0.594 OA
ATOM     29  OAD B65 d          20.069  51.067  37.508  0.00  0.00    -0.594 OA
ENDBRANCH  20  26
ENDBRANCH  17  20
ENDBRANCH  14  17
ENDBRANCH  11  14
ENDBRANCH   6  11
BRANCH   1  30
ATOM     30  OAS B65 d          15.104  52.779  40.353  0.00  0.00    -0.311 OA
BRANCH  30  31
ATOM     31  CAU B65 d          15.719  51.888  39.523  0.00  0.00     0.076 A 
ATOM     32  CAL B65 d          16.723  51.066  40.008  0.00  0.00    -0.050 A 
ATOM     33  CAH B65 d          17.218  50.038  39.202  0.00  0.00    -0.080 A 
ATOM     34  H1  B65 d          17.121  51.219  41.005  0.00  0.00     0.087 H 
ATOM     35  CAG B65 d          16.709  49.843  37.923  0.00  0.00    -0.083 A 
ATOM     36  H2  B65 d          18.002  49.390  39.576  0.00  0.00     0.083 H 
ATOM     37  CAI B65 d          15.708  50.672  37.440  0.00  0.00    -0.080 A 
ATOM     38  H3  B65 d          17.096  49.042  37.302  0.00  0.00     0.083 H 
ATOM     39  CAM B65 d          15.214  51.700  38.242  0.00  0.00    -0.050 A 
ATOM     40  H4  B65 d          15.310  50.520  36.443  0.00  0.00     0.083 H 
ATOM     41  H5  B65 d          14.435  52.354  37.865  0.00  0.00     0.087 H 
ENDBRANCH  30  31
ENDBRANCH   1  30
TORSDOF 8
ENDMDL
MODEL 7
REMARK VINA RESULT:      -8.2      2.680      4.326
REMARK  8 active torsions:
REMARK  status: ('A' for Active; 'I' for Inactive)
REMARK    1  A    between atoms: CAU_6  and  OAS_7 
REMARK    2  A    between atoms: OAS_7  and  CAV_8 
REMARK    3  A    between atoms: CAT_13  and  CAQ_14 
REMARK    4  A    between atoms: CAQ_14  and  CAP_15 
REMARK    5  A    between atoms: CAP_15  and  CAR_16 
REMARK    6  A    between atoms: CAR_16  and  CAW_17 
REMARK    7  A    between atoms: CAW_17  and  PAX_18 
REMARK    8  A    between atoms: CAW_17  and  SAY_22 
ROOT
ATOM      1  CAV B65 d          15.077  56.232  38.961  0.00  0.00     0.076 A 
ATOM      2  CAO B65 d          16.124  55.919  38.097  0.00  0.00    -0.044 A 
ATOM      3  CAN B65 d          13.845  56.609  38.440  0.00  0.00    -0.050 A 
ATOM      4  CAJ B65 d          13.673  56.677  37.063  0.00  0.00    -0.080 A 
ATOM      5  CAK B65 d          14.726  56.373  36.202  0.00  0.00    -0.077 A 
ATOM      6  CAT B65 d          15.957  55.993  36.724  0.00  0.00    -0.056 A 
ATOM      7  H6  B65 d          17.081  55.612  38.504  0.00  0.00     0.088 H 
ATOM      8  H7  B65 d          13.023  56.849  39.104  0.00  0.00     0.087 H 
ATOM      9  H8  B65 d          12.713  56.969  36.655  0.00  0.00     0.083 H 
ATOM     10  H9  B65 d          14.585  56.433  35.129  0.00  0.00     0.084 H 
ENDROOT
BRANCH   6  11
ATOM     11  CAQ B65 d          17.154  55.704  35.811  0.00  0.00    -0.041 C 
ATOM     12  H10 B65 d          18.082  55.888  36.371  0.00  0.00     0.040 H 
ATOM     13  H11 B65 d          17.110  56.377  34.943  0.00  0.00     0.040 H 
BRANCH  11  14
ATOM     14  CAP B65 d          17.152  54.256  35.316  0.00  0.00    -0.059 C 
ATOM     15  H12 B65 d          18.128  54.020  34.867  0.00  0.00     0.033 H 
ATOM     16  H13 B65 d          16.361  54.126  34.562  0.00  0.00     0.033 H 
BRANCH  14  17
ATOM     17  CAR B65 d          16.893  53.317  36.495  0.00  0.00    -0.034 C 
ATOM     18  H14 B65 d          15.837  53.007  36.472  0.00  0.00     0.036 H 
ATOM     19  H15 B65 d          17.094  53.861  37.429  0.00  0.00     0.036 H 
BRANCH  17  20
ATOM     20  CAW B65 d          17.773  52.065  36.458  0.00  0.00     0.169 C 
ATOM     21  H16 B65 d          18.051  51.860  35.414  0.00  0.00     0.090 H 
BRANCH  20  22
ATOM     22  PAX B65 d          16.875  50.605  37.122  0.00  0.00     0.281 P 
ATOM     23  OAB B65 d          15.333  51.034  37.291  0.00  0.00    -0.639 OA
ATOM     24  OAC B65 d          16.927  49.489  35.961  0.00  0.00    -0.639 OA
ATOM     25  OAA B65 d          17.456  50.115  38.394  0.00  0.00    -0.639 OA
ENDBRANCH  20  22
BRANCH  20  26
ATOM     26  SAY B65 d          19.293  52.365  37.429  0.00  0.00     0.119 S 
ATOM     27  OAF B65 d          20.090  53.354  36.769  0.00  0.00    -0.594 OA
ATOM     28  OAE B65 d          20.081  51.096  37.543  0.00  0.00    -0.594 OA
ATOM     29  OAD B65 d          18.922  52.827  38.811  0.00  0.00    -0.594 OA
ENDBRANCH  20  26
ENDBRANCH  17  20
ENDBRANCH  14  17
ENDBRANCH  11  14
ENDBRANCH   6  11
BRANCH   1  30
ATOM     30  OAS B65 d          15.355  56.270  40.290  0.00  0.00    -0.311 OA
BRANCH  30  31
ATOM     31  CAU B65 d          14.384  55.799  41.124  0.00  0.00     0.076 A 
ATOM     32  CAL B65 d          13.877  56.608  42.127  0.00  0.00    -0.050 A 
ATOM     33  CAH B65 d          12.763  56.182  42.855  0.00  0.00    -0.080 A 
ATOM     34  H1  B65 d          14.340  57.564  42.345  0.00  0.00     0.087 H 
ATOM     35  CAG B65 d          12.169  54.956  42.578  0.00  0.00    -0.083 A 
ATOM     36  H2  B65 d          12.359  56.812  43.640  0.00  0.00     0.083 H 
ATOM     37  CAI B65 d          12.684  54.148  41.575  0.00  0.00    -0.080 A 
ATOM     38  H3  B65 d          11.304  54.632  43.145  0.00  0.00     0.083 H 
ATOM     39  CAM B65 d          13.797  54.568  40.849  0.00  0.00    -0.050 A 
ATOM     40  H4  B65 d          12.222  53.192  41.358  0.00  0.00     0.083 H 
ATOM     41  H5  B65 d          14.206  53.936  40.069  0.00  0.00     0.087 H 
ENDBRANCH  30  31
ENDBRANCH   1  30
TORSDOF 8
ENDMDL
MODEL 8
REMARK VINA RESULT:      -7.4      1.463      3.089
REMARK  8 active torsions:
REMARK  status: ('A' for Active; 'I' for Inactive)
REMARK    1  A    between atoms: CAU_6  and  OAS_7 
REMARK    2  A    between atoms: OAS_7  and  CAV_8 
REMARK    3  A    between atoms: CAT_13  and  CAQ_14 
REMARK    4  A    between atoms: CAQ_14  and  CAP_15 
REMARK    5  A    between atoms: CAP_15  and  CAR_16 
REMARK    6  A    between atoms: CAR_16  and  CAW_17 
REMARK    7  A    between atoms: CAW_17  and  PAX_18 
REMARK    8  A    between atoms: CAW_17  and  SAY_22 
ROOT
ATOM      1  CAV B65 d          16.343  50.913  38.811  0.00  0.00     0.076 A 
ATOM      2  CAO B65 d          17.659  51.033  38.370  0.00  0.00    -0.044 A 
ATOM      3  CAN B65 d          15.370  50.429  37.945  0.00  0.00    -0.050 A 
ATOM      4  CAJ B65 d          15.718  50.078  36.647  0.00  0.00    -0.080 A 
ATOM      5  CAK B65 d          17.032  50.210  36.206  0.00  0.00    -0.077 A 
ATOM      6  CAT B65 d          18.007  50.691  37.074  0.00  0.00    -0.056 A 
ATOM      7  H6  B65 d          18.420  51.398  39.050  0.00  0.00     0.088 H 
ATOM      8  H7  B65 d          14.344  50.325  38.282  0.00  0.00     0.087 H 
ATOM      9  H8  B65 d          14.960  49.698  35.971  0.00  0.00     0.083 H 
ATOM     10  H9  B65 d          17.295  49.938  35.190  0.00  0.00     0.084 H 
ENDROOT
BRANCH   6  11
ATOM     11  CAQ B65 d          19.452  50.901  36.609  0.00  0.00    -0.041 C 
ATOM     12  H10 B65 d          19.878  49.930  36.318  0.00  0.00     0.040 H 
ATOM     13  H11 B65 d          20.036  51.322  37.441  0.00  0.00     0.040 H 
BRANCH  11  14
ATOM     14  CAP B65 d          19.531  51.856  35.416  0.00  0.00    -0.059 C 
ATOM     15  H12 B65 d          18.531  51.969  34.970  0.00  0.00     0.033 H 
ATOM     16  H13 B65 d          20.223  51.448  34.664  0.00  0.00     0.033 H 
BRANCH  14  17
ATOM     17  CAR B65 d          20.036  53.219  35.888  0.00  0.00    -0.034 C 
ATOM     18  H14 B65 d          20.108  53.889  35.019  0.00  0.00     0.036 H 
ATOM     19  H15 B65 d          21.032  53.089  36.335  0.00  0.00     0.036 H 
BRANCH  17  20
ATOM     20  CAW B65 d          19.113  53.863  36.927  0.00  0.00     0.169 C 
ATOM     21  H16 B65 d          18.284  53.172  37.140  0.00  0.00     0.090 H 
BRANCH  20  22
ATOM     22  PAX B65 d          18.413  55.444  36.302  0.00  0.00     0.281 P 
ATOM     23  OAB B65 d          17.439  55.078  35.074  0.00  0.00    -0.639 OA
ATOM     24  OAC B65 d          17.481  56.013  37.487  0.00  0.00    -0.639 OA
ATOM     25  OAA B65 d          19.465  56.410  35.906  0.00  0.00    -0.639 OA
ENDBRANCH  20  22
BRANCH  20  26
ATOM     26  SAY B65 d          20.051  54.156  38.470  0.00  0.00     0.119 S 
ATOM     27  OAF B65 d          20.352  55.550  38.586  0.00  0.00    -0.594 OA
ATOM     28  OAE B65 d          21.331  53.378  38.440  0.00  0.00    -0.594 OA
ATOM     29  OAD B65 d          19.236  53.695  39.647  0.00  0.00    -0.594 OA
ENDBRANCH  20  26
ENDBRANCH  17  20
ENDBRANCH  14  17
ENDBRANCH  11  14
ENDBRANCH   6  11
BRANCH   1  30
ATOM     30  OAS B65 d          16.053  51.395  40.047  0.00  0.00    -0.311 OA
BRANCH  30  31
ATOM     31  CAU B65 d          15.342  52.558  40.090  0.00  0.00     0.076 A 
ATOM     32  CAL B65 d          14.101  52.592  40.705  0.00  0.00    -0.050 A 
ATOM     33  CAH B65 d          13.466  53.821  40.903  0.00  0.00    -0.080 A 
ATOM     34  H1  B65 d          13.627  51.673  41.031  0.00  0.00     0.087 H 
ATOM     35  CAG B65 d          14.072  55.000  40.484  0.00  0.00    -0.083 A 
ATOM     36  H2  B65 d          12.496  53.854  41.386  0.00  0.00     0.083 H 
ATOM     37  CAI B65 d          15.312  54.960  39.865  0.00  0.00    -0.080 A 
ATOM     38  H3  B65 d          13.575  55.950  40.642  0.00  0.00     0.083 H 
ATOM     39  CAM B65 d          15.947  53.735  39.664  0.00  0.00    -0.050 A 
ATOM     40  H4  B65 d          15.786  55.879  39.538  0.00  0.00     0.083 H 
ATOM     41  H5  B65 d          16.914  53.700  39.174  0.00  0.00     0.087 H 
ENDBRANCH  30  31
ENDBRANCH   1  30
TORSDOF 8
ENDMDL
MODEL 9
REMARK VINA RESULT:      -7.0      3.036      6.236
REMARK  8 active torsions:
REMARK  status: ('A' for Active; 'I' for Inactive)
REMARK    1  A    between atoms: CAU_6  and  OAS_7 
REMARK    2  A    between atoms: OAS_7  and  CAV_8 
REMARK    3  A    between atoms: CAT_13  and  CAQ_14 
REMARK    4  A    between atoms: CAQ_14  and  CAP_15 
REMARK    5  A    between atoms: CAP_15  and  CAR_16 
REMARK    6  A    between atoms: CAR_16  and  CAW_17 
REMARK    7  A    between atoms: CAW_17  and  PAX_18 
REMARK    8  A    between atoms: CAW_17  and  SAY_22 
ROOT
ATOM      1  CAV B65 d          16.998  56.199  37.026  0.00  0.00     0.076 A 
ATOM      2  CAO B65 d          16.424  55.625  38.159  0.00  0.00    -0.044 A 
ATOM      3  CAN B65 d          16.182  56.679  36.010  0.00  0.00    -0.050 A 
ATOM      4  CAJ B65 d          14.802  56.576  36.129  0.00  0.00    -0.080 A 
ATOM      5  CAK B65 d          14.231  55.991  37.258  0.00  0.00    -0.077 A 
ATOM      6  CAT B65 d          15.048  55.513  38.276  0.00  0.00    -0.056 A 
ATOM      7  H6  B65 d          17.061  55.262  38.957  0.00  0.00     0.088 H 
ATOM      8  H7  B65 d          16.620  57.134  35.128  0.00  0.00     0.087 H 
ATOM      9  H8  B65 d          14.164  56.952  35.338  0.00  0.00     0.083 H 
ATOM     10  H9  B65 d          13.154  55.910  37.341  0.00  0.00     0.084 H 
ENDROOT
BRANCH   6  11
ATOM     11  CAQ B65 d          14.460  54.815  39.507  0.00  0.00    -0.041 C 
ATOM     12  H10 B65 d          13.433  54.494  39.278  0.00  0.00     0.040 H 
ATOM     13  H11 B65 d          14.442  55.527  40.345  0.00  0.00     0.040 H 
BRANCH  11  14
ATOM     14  CAP B65 d          15.284  53.591  39.914  0.00  0.00    -0.059 C 
ATOM     15  H12 B65 d          15.016  53.291  40.937  0.00  0.00     0.033 H 
ATOM     16  H13 B65 d          16.355  53.841  39.874  0.00  0.00     0.033 H 
BRANCH  14  17
ATOM     17  CAR B65 d          14.992  52.441  38.951  0.00  0.00    -0.034 C 
ATOM     18  H14 B65 d          14.357  52.817  38.135  0.00  0.00     0.036 H 
ATOM     19  H15 B65 d          14.457  51.652  39.498  0.00  0.00     0.036 H 
BRANCH  17  20
ATOM     20  CAW B65 d          16.264  51.841  38.344  0.00  0.00     0.169 C 
ATOM     21  H16 B65 d          16.776  52.617  37.758  0.00  0.00     0.090 H 
BRANCH  20  22
ATOM     22  PAX B65 d          15.866  50.433  37.231  0.00  0.00     0.281 P 
ATOM     23  OAB B65 d          14.369  50.667  36.687  0.00  0.00    -0.639 OA
ATOM     24  OAC B65 d          16.853  50.578  35.966  0.00  0.00    -0.639 OA
ATOM     25  OAA B65 d          16.012  49.121  37.905  0.00  0.00    -0.639 OA
ENDBRANCH  20  22
BRANCH  20  26
ATOM     26  SAY B65 d          17.373  51.287  39.690  0.00  0.00     0.119 S 
ATOM     27  OAF B65 d          16.595  50.675  40.724  0.00  0.00    -0.594 OA
ATOM     28  OAE B65 d          18.106  52.463  40.258  0.00  0.00    -0.594 OA
ATOM     29  OAD B65 d          18.377  50.312  39.142  0.00  0.00    -0.594 OA
ENDBRANCH  20  26
ENDBRANCH  17  20
ENDBRANCH  14  17
ENDBRANCH  11  14
ENDBRANCH   6  11
BRANCH   1  30
ATOM     30  OAS B65 d          18.352  56.149  36.921  0.00  0.00    -0.311 OA
BRANCH  30  31
ATOM     31  CAU B65 d          18.932  54.935  37.150  0.00  0.00     0.076 A 
ATOM     32  CAL B65 d          18.706  53.882  36.280  0.00  0.00    -0.050 A 
ATOM     33  CAH B65 d          19.444  52.704  36.422  0.00  0.00    -0.080 A 
ATOM     34  H1  B65 d          17.963  53.970  35.495  0.00  0.00     0.087 H 
ATOM     35  CAG B65 d          20.396  52.589  37.429  0.00  0.00    -0.083 A 
ATOM     36  H2  B65 d          19.274  51.876  35.743  0.00  0.00     0.083 H 
ATOM     37  CAI B65 d          20.615  53.646  38.300  0.00  0.00    -0.080 A 
ATOM     38  H3  B65 d          20.967  51.673  37.533  0.00  0.00     0.083 H 
ATOM     39  CAM B65 d          19.877  54.821  38.163  0.00  0.00    -0.050 A 
ATOM     40  H4  B65 d          21.357  53.558  39.085  0.00  0.00     0.083 H 
ATOM     41  H5  B65 d          20.042  55.646  38.846  0.00  0.00     0.087 H 
ENDBRANCH  30  31
ENDBRANCH   1  30
TORSDOF 8
ENDMDL
MODEL 10
REMARK VINA RESULT:      -6.9      2.887      5.973
REMARK  8 active torsions:
REMARK  status: ('A' for Active; 'I' for Inactive)
REMARK    1  A    between atoms: CAU_6  and  OAS_7 
REMARK    2  A    between atoms: OAS_7  and  CAV_8 
REMARK    3  A    between atoms: CAT_13  and  CAQ_14 
REMARK    4  A    between atoms: CAQ_14  and  CAP_15 
REMARK    5  A    between atoms: CAP_15  and  CAR_16 
REMARK    6  A    between atoms: CAR_16  and  CAW_17 
REMARK    7  A    between atoms: CAW_17  and  PAX_18 
REMARK    8  A    between atoms: CAW_17  and  SAY_22 
ROOT
ATOM      1  CAV B65 d          16.898  56.473  36.688  0.00  0.00     0.076 A 
ATOM      2  CAO B65 d          16.469  56.241  37.993  0.00  0.00    -0.044 A 
ATOM      3  CAN B65 d          15.962  56.679  35.683  0.00  0.00    -0.050 A 
ATOM      4  CAJ B65 d          14.607  56.644  35.988  0.00  0.00    -0.080 A 
ATOM      5  CAK B65 d          14.181  56.400  37.292  0.00  0.00    -0.077 A 
ATOM      6  CAT B65 d          15.119  56.196  38.298  0.00  0.00    -0.056 A 
ATOM      7  H6  B65 d          17.201  56.092  38.779  0.00  0.00     0.088 H 
ATOM      8  H7  B65 d          16.286  56.868  34.666  0.00  0.00     0.087 H 
ATOM      9  H8  B65 d          13.875  56.806  35.205  0.00  0.00     0.083 H 
ATOM     10  H9  B65 d          13.122  56.369  37.521  0.00  0.00     0.084 H 
ENDROOT
BRANCH   6  11
ATOM     11  CAQ B65 d          14.689  55.872  39.733  0.00  0.00    -0.041 C 
ATOM     12  H10 B65 d          13.715  56.343  39.929  0.00  0.00     0.040 H 
ATOM     13  H11 B65 d          15.438  56.276  40.429  0.00  0.00     0.040 H 
BRANCH  11  14
ATOM     14  CAP B65 d          14.564  54.363  39.960  0.00  0.00    -0.059 C 
ATOM     15  H12 B65 d          13.694  53.980  39.407  0.00  0.00     0.033 H 
ATOM     16  H13 B65 d          14.434  54.163  41.034  0.00  0.00     0.033 H 
BRANCH  14  17
ATOM     17  CAR B65 d          15.831  53.669  39.461  0.00  0.00    -0.034 C 
ATOM     18  H14 B65 d          16.613  53.769  40.229  0.00  0.00     0.036 H 
ATOM     19  H15 B65 d          16.162  54.162  38.535  0.00  0.00     0.036 H 
BRANCH  17  20
ATOM     20  CAW B65 d          15.615  52.180  39.173  0.00  0.00     0.169 C 
ATOM     21  H16 B65 d          14.605  51.900  39.504  0.00  0.00     0.090 H 
BRANCH  20  22
ATOM     22  PAX B65 d          16.837  51.147  40.078  0.00  0.00     0.281 P 
ATOM     23  OAB B65 d          16.138  50.679  41.450  0.00  0.00    -0.639 OA
ATOM     24  OAC B65 d          17.044  49.823  39.182  0.00  0.00    -0.639 OA
ATOM     25  OAA B65 d          18.112  51.862  40.321  0.00  0.00    -0.639 OA
ENDBRANCH  20  22
BRANCH  20  26
ATOM     26  SAY B65 d          15.752  51.887  37.372  0.00  0.00     0.119 S 
ATOM     27  OAF B65 d          17.108  51.565  37.045  0.00  0.00    -0.594 OA
ATOM     28  OAE B65 d          15.347  53.121  36.626  0.00  0.00    -0.594 OA
ATOM     29  OAD B65 d          14.836  50.763  36.977  0.00  0.00    -0.594 OA
ENDBRANCH  20  26
ENDBRANCH  17  20
ENDBRANCH  14  17
ENDBRANCH  11  14
ENDBRANCH   6  11
BRANCH   1  30
ATOM     30  OAS B65 d          18.230  56.366  36.441  0.00  0.00    -0.311 OA
BRANCH  30  31
ATOM     31  CAU B65 d          18.828  55.208  36.846  0.00  0.00     0.076 A 
ATOM     32  CAL B65 d          18.953  54.146  35.967  0.00  0.00    -0.050 A 
ATOM     33  CAH B65 d          19.724  53.039  36.333  0.00  0.00    -0.080 A 
ATOM     34  H1  B65 d          18.457  54.172  35.004  0.00  0.00     0.087 H 
ATOM     35  CAG B65 d          20.359  53.004  37.569  0.00  0.00    -0.083 A 
ATOM     36  H2  B65 d          19.828  52.205  35.648  0.00  0.00     0.083 H 
ATOM     37  CAI B65 d          20.227  54.068  38.448  0.00  0.00    -0.080 A 
ATOM     38  H3  B65 d          20.957  52.143  37.846  0.00  0.00     0.083 H 
ATOM     39  CAM B65 d          19.456  55.173  38.087  0.00  0.00    -0.050 A 
ATOM     40  H4  B65 d          20.721  54.042  39.412  0.00  0.00     0.083 H 
ATOM     41  H5  B65 d          19.345  56.004  38.774  0.00  0.00     0.087 H 
ENDBRANCH  30  31
ENDBRANCH   1  30
TORSDOF 8
ENDMDL
