MODEL 1
REMARK VINA RESULT:      -9.2      0.000      0.000
REMARK  7 active torsions:
REMARK  status: ('A' for Active; 'I' for Inactive)
REMARK    1  A    between atoms: C1_1  and  C6_6 
REMARK    2  A    between atoms: C7_7  and  C2_2 
REMARK    3  A    between atoms: N4_4  and  C33_33 
REMARK       I    between atoms: C6_6  and  N11_11 
REMARK       I    between atoms: N8_8  and  C7_7 
REMARK    4  A    between atoms: C19_19  and  N8_8 
REMARK    5  A    between atoms: N11_11  and  C12_12 
REMARK    6  A    between atoms: N25_25  and  C21_21 
REMARK    7  A    between atoms: C33_33  and  C34_34 
ROOT
ATOM      1  C1  XBV d           8.335  67.730   4.093  0.00  0.00     0.060 C 
ATOM      2  C2  XBV d           7.462  67.244   2.926  0.00  0.00     0.060 C 
ATOM      3  C3  XBV d           6.392  68.345   2.759  0.00  0.00     0.096 C 
ATOM      4  N4  XBV d           7.151  69.574   3.151  0.00  0.00    -0.064 N 
ATOM      5  C5  XBV d           8.007  69.221   4.311  0.00  0.00     0.096 C 
ATOM      6  H1  XBV d           8.040  67.179   4.999  0.00  0.00     0.058 H 
ATOM      7  H2  XBV d           8.059  67.142   2.007  0.00  0.00     0.058 H 
ATOM      8  H3  XBV d           5.534  68.174   3.426  0.00  0.00     0.077 H 
ATOM      9  H4  XBV d           6.041  68.406   1.718  0.00  0.00     0.077 H 
ATOM     10  H5  XBV d           7.731  69.870   2.381  0.00  0.00     0.280 HD
ATOM     11  H6  XBV d           8.926  69.827   4.317  0.00  0.00     0.077 H 
ATOM     12  H7  XBV d           7.464  69.369   5.256  0.00  0.00     0.077 H 
ENDROOT
BRANCH   2  13
ATOM     13  C7  XBV d           6.831  65.911   3.268  0.00  0.00     0.229 C 
ATOM     14  N8  XBV d           7.576  64.875   2.990  0.00  0.00    -0.324 N 
ATOM     15  H8  XBV d           8.491  65.056   2.628  0.00  0.00     0.169 HD
ATOM     16  O9  XBV d           5.743  65.811   3.815  0.00  0.00    -0.273 OA
BRANCH  14  17
ATOM     17  C19 XBV d           7.204  63.523   3.155  0.00  0.00     0.073 A 
ATOM     18  C20 XBV d           6.665  62.994   4.333  0.00  0.00    -0.052 A 
ATOM     19  C23 XBV d           6.388  61.624   4.378  0.00  0.00    -0.054 A 
ATOM     20  H13 XBV d           6.466  63.629   5.188  0.00  0.00     0.087 H 
ATOM     21  C21 XBV d           6.703  60.830   3.271  0.00  0.00     0.045 A 
ATOM     22  H15 XBV d           5.935  61.184   5.258  0.00  0.00     0.087 H 
ATOM     23  C22 XBV d           7.251  61.366   2.096  0.00  0.00    -0.017 A 
ATOM     24  C24 XBV d           7.456  62.752   2.055  0.00  0.00     0.145 A 
ATOM     25  H14 XBV d           7.506  60.735   1.254  0.00  0.00     0.091 H 
ATOM     26  F32 XBV d           8.002  63.291   0.955  0.00  0.00    -0.204 F 
BRANCH  21  27
ATOM     27  N25 XBV d           6.452  59.425   3.253  0.00  0.00    -0.290 N 
ATOM     28  C26 XBV d           7.392  58.541   3.805  0.00  0.00    -0.011 A 
ATOM     29  C29 XBV d           7.185  57.195   3.771  0.00  0.00    -0.067 A 
ATOM     30  H16 XBV d           8.296  58.936   4.267  0.00  0.00     0.112 H 
ATOM     31  C27 XBV d           6.020  56.670   3.200  0.00  0.00    -0.076 A 
ATOM     32  H19 XBV d           7.932  56.522   4.191  0.00  0.00     0.085 H 
ATOM     33  C28 XBV d           5.081  57.519   2.655  0.00  0.00    -0.017 A 
ATOM     34  H17 XBV d           5.856  55.594   3.187  0.00  0.00     0.083 H 
ATOM     35  C30 XBV d           5.272  58.947   2.668  0.00  0.00     0.252 A 
ATOM     36  H18 XBV d           4.180  57.104   2.206  0.00  0.00     0.092 H 
ATOM     37  O31 XBV d           4.457  59.732   2.167  0.00  0.00    -0.268 OA
ENDBRANCH  21  27
ENDBRANCH  14  17
ENDBRANCH   2  13
BRANCH   1  38
ATOM     38  C6  XBV d           9.802  67.459   3.869  0.00  0.00     0.230 C 
ATOM     39  O10 XBV d          10.555  68.295   3.395  0.00  0.00    -0.273 OA
ATOM     40  N11 XBV d          10.253  66.271   4.333  0.00  0.00    -0.311 N 
ATOM     41  H9  XBV d           9.610  65.753   4.897  0.00  0.00     0.170 HD
BRANCH  40  42
ATOM     42  C12 XBV d          11.495  65.673   4.132  0.00  0.00     0.129 A 
ATOM     43  N13 XBV d          12.405  65.701   5.119  0.00  0.00    -0.242 NA
ATOM     44  C16 XBV d          13.686  65.284   4.929  0.00  0.00     0.025 A 
ATOM     45  C14 XBV d          14.104  64.848   3.656  0.00  0.00     0.051 A 
ATOM     46  H11 XBV d          14.384  65.286   5.758  0.00  0.00     0.117 H 
ATOM     47  C15 XBV d          13.171  64.832   2.602  0.00  0.00    -0.057 A 
ATOM     48 CL1  XBV d          15.754  64.406   3.343  0.00  0.00    -0.083 Cl
ATOM     49  C17 XBV d          11.864  65.267   2.841  0.00  0.00    -0.037 A 
ATOM     50  H10 XBV d          13.462  64.487   1.616  0.00  0.00     0.086 H 
ATOM     51  H12 XBV d          11.141  65.290   2.035  0.00  0.00     0.089 H 
ENDBRANCH  40  42
ENDBRANCH   1  38
BRANCH   4  52
ATOM     52  C33 XBV d           6.235  70.670   3.506  0.00  0.00     0.137 C 
ATOM     53  H20 XBV d           6.038  70.636   4.588  0.00  0.00     0.084 H 
ATOM     54  H21 XBV d           5.291  70.538   2.957  0.00  0.00     0.084 H 
BRANCH  52  55
ATOM     55  C34 XBV d           6.829  72.034   3.152  0.00  0.00     0.231 C 
ATOM     56  F35 XBV d           7.562  72.590   4.204  0.00  0.00    -0.213 F 
ATOM     57  F36 XBV d           7.746  71.822   2.143  0.00  0.00    -0.213 F 
ATOM     58  H22 XBV d           6.031  72.722   2.834  0.00  0.00     0.147 H 
ENDBRANCH  52  55
ENDBRANCH   4  52
TORSDOF 7
ENDMDL
MODEL 2
REMARK VINA RESULT:      -7.6      3.598      5.823
REMARK  7 active torsions:
REMARK  status: ('A' for Active; 'I' for Inactive)
REMARK    1  A    between atoms: C1_1  and  C6_6 
REMARK    2  A    between atoms: C7_7  and  C2_2 
REMARK    3  A    between atoms: N4_4  and  C33_33 
REMARK       I    between atoms: C6_6  and  N11_11 
REMARK       I    between atoms: N8_8  and  C7_7 
REMARK    4  A    between atoms: C19_19  and  N8_8 
REMARK    5  A    between atoms: N11_11  and  C12_12 
REMARK    6  A    between atoms: N25_25  and  C21_21 
REMARK    7  A    between atoms: C33_33  and  C34_34 
ROOT
ATOM      1  C1  XBV d           9.351  66.721   2.185  0.00  0.00     0.060 C 
ATOM      2  C2  XBV d           9.033  65.892   3.439  0.00  0.00     0.060 C 
ATOM      3  C3  XBV d          10.412  65.439   3.964  0.00  0.00     0.096 C 
ATOM      4  N4  XBV d          11.283  66.593   3.578  0.00  0.00    -0.064 N 
ATOM      5  C5  XBV d          10.859  67.044   2.230  0.00  0.00     0.096 C 
ATOM      6  H1  XBV d           9.162  66.096   1.300  0.00  0.00     0.058 H 
ATOM      7  H2  XBV d           8.515  66.506   4.192  0.00  0.00     0.058 H 
ATOM      8  H3  XBV d          10.740  64.509   3.476  0.00  0.00     0.077 H 
ATOM      9  H4  XBV d          10.398  65.294   5.055  0.00  0.00     0.077 H 
ATOM     10  H5  XBV d          11.158  67.343   4.240  0.00  0.00     0.280 HD
ATOM     11  H6  XBV d          11.031  68.124   2.107  0.00  0.00     0.077 H 
ATOM     12  H7  XBV d          11.401  66.495   1.446  0.00  0.00     0.077 H 
ENDROOT
BRANCH   2  13
ATOM     13  C7  XBV d           8.166  64.706   3.072  0.00  0.00     0.229 C 
ATOM     14  N8  XBV d           8.626  63.556   3.484  0.00  0.00    -0.324 N 
ATOM     15  H8  XBV d           9.464  63.569   4.030  0.00  0.00     0.169 HD
ATOM     16  O9  XBV d           7.096  64.818   2.494  0.00  0.00    -0.273 OA
BRANCH  14  17
ATOM     17  C19 XBV d           8.045  62.295   3.226  0.00  0.00     0.073 A 
ATOM     18  C20 XBV d           8.188  61.593   2.024  0.00  0.00    -0.052 A 
ATOM     19  C23 XBV d           7.517  60.375   1.884  0.00  0.00    -0.054 A 
ATOM     20  H13 XBV d           8.805  61.983   1.223  0.00  0.00     0.087 H 
ATOM     21  C21 XBV d           6.692  59.929   2.921  0.00  0.00     0.045 A 
ATOM     22  H15 XBV d           7.633  59.785   0.983  0.00  0.00     0.087 H 
ATOM     23  C22 XBV d           6.547  60.642   4.121  0.00  0.00    -0.017 A 
ATOM     24  C24 XBV d           7.284  61.825   4.261  0.00  0.00     0.145 A 
ATOM     25  H14 XBV d           5.891  60.291   4.909  0.00  0.00     0.091 H 
ATOM     26  F32 XBV d           7.147  62.542   5.386  0.00  0.00    -0.204 F 
BRANCH  21  27
ATOM     27  N25 XBV d           5.973  58.698   2.840  0.00  0.00    -0.290 N 
ATOM     28  C26 XBV d           4.713  58.666   2.225  0.00  0.00    -0.011 A 
ATOM     29  C29 XBV d           3.998  57.508   2.164  0.00  0.00    -0.067 A 
ATOM     30  H16 XBV d           4.302  59.577   1.790  0.00  0.00     0.112 H 
ATOM     31  C27 XBV d           4.518  56.323   2.699  0.00  0.00    -0.076 A 
ATOM     32  H19 XBV d           3.014  57.504   1.697  0.00  0.00     0.085 H 
ATOM     33  C28 XBV d           5.756  56.331   3.304  0.00  0.00    -0.017 A 
ATOM     34  H17 XBV d           3.946  55.399   2.636  0.00  0.00     0.083 H 
ATOM     35  C30 XBV d           6.535  57.540   3.391  0.00  0.00     0.252 A 
ATOM     36  H18 XBV d           6.152  55.407   3.724  0.00  0.00     0.092 H 
ATOM     37  O31 XBV d           7.639  57.580   3.949  0.00  0.00    -0.268 OA
ENDBRANCH  21  27
ENDBRANCH  14  17
ENDBRANCH   2  13
BRANCH   1  38
ATOM     38  C6  XBV d           8.473  67.941   2.061  0.00  0.00     0.230 C 
ATOM     39  O10 XBV d           8.534  68.694   1.101  0.00  0.00    -0.273 OA
ATOM     40  N11 XBV d           7.534  68.084   3.024  0.00  0.00    -0.311 N 
ATOM     41  H9  XBV d           7.422  67.304   3.640  0.00  0.00     0.170 HD
BRANCH  40  42
ATOM     42  C12 XBV d           6.701  69.173   3.272  0.00  0.00     0.129 A 
ATOM     43  N13 XBV d           7.246  70.383   3.478  0.00  0.00    -0.242 NA
ATOM     44  C16 XBV d           6.504  71.446   3.886  0.00  0.00     0.025 A 
ATOM     45  C14 XBV d           5.129  71.287   4.150  0.00  0.00     0.051 A 
ATOM     46  H11 XBV d           6.970  72.417   4.009  0.00  0.00     0.117 H 
ATOM     47  C15 XBV d           4.542  70.021   3.961  0.00  0.00    -0.057 A 
ATOM     48 CL1  XBV d           4.165  72.590   4.773  0.00  0.00    -0.083 Cl
ATOM     49  C17 XBV d           5.341  68.956   3.538  0.00  0.00    -0.037 A 
ATOM     50  H10 XBV d           3.483  69.874   4.141  0.00  0.00     0.086 H 
ATOM     51  H12 XBV d           4.913  67.968   3.416  0.00  0.00     0.089 H 
ENDBRANCH  40  42
ENDBRANCH   1  38
BRANCH   4  52
ATOM     52  C33 XBV d          12.702  66.203   3.564  0.00  0.00     0.137 C 
ATOM     53  H20 XBV d          13.323  67.111   3.578  0.00  0.00     0.084 H 
ATOM     54  H21 XBV d          12.907  65.633   2.646  0.00  0.00     0.084 H 
BRANCH  52  55
ATOM     55  C34 XBV d          13.058  65.340   4.776  0.00  0.00     0.231 C 
ATOM     56  F35 XBV d          14.096  64.442   4.509  0.00  0.00    -0.213 F 
ATOM     57  F36 XBV d          13.552  66.190   5.742  0.00  0.00    -0.213 F 
ATOM     58  H22 XBV d          12.167  64.800   5.130  0.00  0.00     0.147 H 
ENDBRANCH  52  55
ENDBRANCH   4  52
TORSDOF 7
ENDMDL
MODEL 3
REMARK VINA RESULT:      -6.2      3.701      9.045
REMARK  7 active torsions:
REMARK  status: ('A' for Active; 'I' for Inactive)
REMARK    1  A    between atoms: C1_1  and  C6_6 
REMARK    2  A    between atoms: C7_7  and  C2_2 
REMARK    3  A    between atoms: N4_4  and  C33_33 
REMARK       I    between atoms: C6_6  and  N11_11 
REMARK       I    between atoms: N8_8  and  C7_7 
REMARK    4  A    between atoms: C19_19  and  N8_8 
REMARK    5  A    between atoms: N11_11  and  C12_12 
REMARK    6  A    between atoms: N25_25  and  C21_21 
REMARK    7  A    between atoms: C33_33  and  C34_34 
ROOT
ATOM      1  C1  XBV d          11.109  64.354   2.882  0.00  0.00     0.060 C 
ATOM      2  C2  XBV d          11.404  65.613   2.053  0.00  0.00     0.060 C 
ATOM      3  C3  XBV d          12.921  65.843   2.225  0.00  0.00     0.096 C 
ATOM      4  N4  XBV d          13.433  64.443   2.351  0.00  0.00    -0.064 N 
ATOM      5  C5  XBV d          12.466  63.685   3.184  0.00  0.00     0.096 C 
ATOM      6  H1  XBV d          10.662  64.665   3.838  0.00  0.00     0.058 H 
ATOM      7  H2  XBV d          11.155  65.450   0.993  0.00  0.00     0.058 H 
ATOM      8  H3  XBV d          13.136  66.431   3.130  0.00  0.00     0.077 H 
ATOM      9  H4  XBV d          13.351  66.350   1.348  0.00  0.00     0.077 H 
ATOM     10  H5  XBV d          13.491  64.023   1.436  0.00  0.00     0.280 HD
ATOM     11  H6  XBV d          12.451  62.623   2.896  0.00  0.00     0.077 H 
ATOM     12  H7  XBV d          12.717  63.773   4.251  0.00  0.00     0.077 H 
ENDROOT
BRANCH   2  13
ATOM     13  C7  XBV d          10.606  66.784   2.584  0.00  0.00     0.229 C 
ATOM     14  N8  XBV d           9.489  67.009   1.947  0.00  0.00    -0.324 N 
ATOM     15  H8  XBV d           9.248  66.373   1.213  0.00  0.00     0.169 HD
ATOM     16  O9  XBV d          10.943  67.429   3.565  0.00  0.00    -0.273 OA
BRANCH  14  17
ATOM     17  C19 XBV d           8.592  68.069   2.201  0.00  0.00     0.073 A 
ATOM     18  C20 XBV d           8.941  69.423   2.151  0.00  0.00    -0.052 A 
ATOM     19  C23 XBV d           7.965  70.371   2.475  0.00  0.00    -0.054 A 
ATOM     20  H13 XBV d           9.941  69.730   1.869  0.00  0.00     0.087 H 
ATOM     21  C21 XBV d           6.700  69.934   2.881  0.00  0.00     0.045 A 
ATOM     22  H15 XBV d           8.186  71.430   2.412  0.00  0.00     0.087 H 
ATOM     23  C22 XBV d           6.360  68.574   2.935  0.00  0.00    -0.017 A 
ATOM     24  C24 XBV d           7.336  67.649   2.541  0.00  0.00     0.145 A 
ATOM     25  H14 XBV d           5.381  68.251   3.268  0.00  0.00     0.091 H 
ATOM     26  F32 XBV d           7.049  66.341   2.606  0.00  0.00    -0.204 F 
BRANCH  21  27
ATOM     27  N25 XBV d           5.661  70.848   3.231  0.00  0.00    -0.290 N 
ATOM     28  C26 XBV d           5.202  70.909   4.556  0.00  0.00    -0.011 A 
ATOM     29  C29 XBV d           4.191  71.753   4.904  0.00  0.00    -0.067 A 
ATOM     30  H16 XBV d           5.661  70.276   5.314  0.00  0.00     0.112 H 
ATOM     31  C27 XBV d           3.603  72.589   3.947  0.00  0.00    -0.076 A 
ATOM     32  H19 XBV d           3.837  71.776   5.933  0.00  0.00     0.085 H 
ATOM     33  C28 XBV d           4.039  72.549   2.641  0.00  0.00    -0.017 A 
ATOM     34  H17 XBV d           2.803  73.269   4.235  0.00  0.00     0.083 H 
ATOM     35  C30 XBV d           5.102  71.663   2.238  0.00  0.00     0.252 A 
ATOM     36  H18 XBV d           3.574  73.197   1.900  0.00  0.00     0.092 H 
ATOM     37  O31 XBV d           5.499  71.590   1.068  0.00  0.00    -0.268 OA
ENDBRANCH  21  27
ENDBRANCH  14  17
ENDBRANCH   2  13
BRANCH   1  38
ATOM     38  C6  XBV d          10.119  63.438   2.208  0.00  0.00     0.230 C 
ATOM     39  O10 XBV d          10.172  63.183   1.015  0.00  0.00    -0.273 OA
ATOM     40  N11 XBV d           9.238  62.824   3.031  0.00  0.00    -0.311 N 
ATOM     41  H9  XBV d           9.415  62.927   4.010  0.00  0.00     0.170 HD
BRANCH  40  42
ATOM     42  C12 XBV d           8.118  62.066   2.698  0.00  0.00     0.129 A 
ATOM     43  N13 XBV d           7.021  62.686   2.230  0.00  0.00    -0.242 NA
ATOM     44  C16 XBV d           5.847  62.027   2.044  0.00  0.00     0.025 A 
ATOM     45  C14 XBV d           5.740  60.664   2.387  0.00  0.00     0.051 A 
ATOM     46  H11 XBV d           4.992  62.550   1.630  0.00  0.00     0.117 H 
ATOM     47  C15 XBV d           6.872  60.001   2.900  0.00  0.00    -0.057 A 
ATOM     48 CL1  XBV d           4.233  59.811   2.265  0.00  0.00    -0.083 Cl
ATOM     49  C17 XBV d           8.060  60.716   3.073  0.00  0.00    -0.037 A 
ATOM     50  H10 XBV d           6.822  58.949   3.157  0.00  0.00     0.086 H 
ATOM     51  H12 XBV d           8.932  60.229   3.494  0.00  0.00     0.089 H 
ENDBRANCH  40  42
ENDBRANCH   1  38
BRANCH   4  52
ATOM     52  C33 XBV d          14.768  64.421   2.970  0.00  0.00     0.137 C 
ATOM     53  H20 XBV d          15.315  65.328   2.672  0.00  0.00     0.084 H 
ATOM     54  H21 XBV d          15.311  63.533   2.618  0.00  0.00     0.084 H 
BRANCH  52  55
ATOM     55  C34 XBV d          14.677  64.376   4.496  0.00  0.00     0.231 C 
ATOM     56  F35 XBV d          15.349  63.278   5.042  0.00  0.00    -0.213 F 
ATOM     57  F36 XBV d          15.348  65.484   4.971  0.00  0.00    -0.213 F 
ATOM     58  H22 XBV d          13.623  64.377   4.812  0.00  0.00     0.147 H 
ENDBRANCH  52  55
ENDBRANCH   4  52
TORSDOF 7
ENDMDL
