MODEL 1
REMARK VINA RESULT:      -5.2      0.000      0.000
REMARK  5 active torsions:
REMARK  status: ('A' for Active; 'I' for Inactive)
REMARK    1  A    between atoms: C4_2  and  C2_3 
REMARK       I    between atoms: C4_2  and  N_7 
REMARK    2  A    between atoms: C2_3  and  C1_4 
REMARK    3  A    between atoms: C2_3  and  C3_6 
REMARK    4  A    between atoms: C1_4  and  S_5 
REMARK    5  A    between atoms: C8_8  and  C9_9 
ROOT
ATOM      1  O1  X8Z d          29.726   3.520 -42.766  0.00  0.00    -0.273 OA
ATOM      2  C4  X8Z d          29.073   4.299 -43.530  0.00  0.00     0.225 C 
ATOM      3  N   X8Z d          29.735   5.246 -44.229  0.00  0.00    -0.337 N 
ATOM      4  C8  X8Z d          31.230   5.431 -44.119  0.00  0.00     0.098 C 
ATOM      5  C5  X8Z d          29.168   6.269 -45.184  0.00  0.00    -0.001 C 
ATOM      6  C6  X8Z d          30.311   7.105 -45.631  0.00  0.00    -0.048 C 
ATOM      7  C7  X8Z d          31.584   6.490 -45.127  0.00  0.00    -0.035 C 
ATOM      8  H8  X8Z d          31.747   4.490 -44.360  0.00  0.00     0.089 H 
ATOM      9  H9  X8Z d          28.419   6.891 -44.673  0.00  0.00     0.064 H 
ATOM     10  H10 X8Z d          28.704   5.769 -46.046  0.00  0.00     0.064 H 
ATOM     11  H11 X8Z d          30.206   8.122 -45.226  0.00  0.00     0.035 H 
ATOM     12  H12 X8Z d          30.331   7.147 -46.730  0.00  0.00     0.035 H 
ATOM     13  H13 X8Z d          32.136   6.037 -45.964  0.00  0.00     0.036 H 
ATOM     14  H14 X8Z d          32.207   7.261 -44.651  0.00  0.00     0.036 H 
ENDROOT
BRANCH   2  15
ATOM     15  C2  X8Z d          27.552   4.141 -43.618  0.00  0.00     0.028 C 
ATOM     16  H1  X8Z d          27.236   4.109 -44.672  0.00  0.00     0.055 H 
BRANCH  15  17
ATOM     17  C1  X8Z d          27.165   2.820 -42.943  0.00  0.00    -0.015 C 
ATOM     18  H2  X8Z d          26.213   2.972 -42.412  0.00  0.00     0.049 H 
ATOM     19  H3  X8Z d          27.952   2.561 -42.220  0.00  0.00     0.049 H 
BRANCH  17  20
ATOM     20  S   X8Z d          26.963   1.438 -44.068  0.00  0.00    -0.181 SA
ATOM     21  H4  X8Z d          26.710   0.614 -43.545  0.00  0.00     0.101 HD
ENDBRANCH  17  20
ENDBRANCH  15  17
BRANCH  15  22
ATOM     22  C3  X8Z d          26.924   5.370 -42.942  0.00  0.00    -0.064 C 
ATOM     23  H5  X8Z d          27.240   6.281 -43.472  0.00  0.00     0.028 H 
ATOM     24  H6  X8Z d          27.255   5.422 -41.895  0.00  0.00     0.028 H 
ATOM     25  H7  X8Z d          25.828   5.288 -42.976  0.00  0.00     0.028 H 
ENDBRANCH  15  22
ENDBRANCH   2  15
BRANCH   4  26
ATOM     26  C9  X8Z d          31.625   5.877 -42.692  0.00  0.00     0.196 C 
ATOM     27  O3  X8Z d          31.135   6.852 -42.159  0.00  0.00    -0.646 OA
ATOM     28  O2  X8Z d          32.506   5.159 -42.089  0.00  0.00    -0.646 OA
ENDBRANCH   4  26
TORSDOF 5
ENDMDL
