MODEL 1
REMARK VINA RESULT:      -5.1      0.000      0.000
REMARK  5 active torsions:
REMARK  status: ('A' for Active; 'I' for Inactive)
REMARK    1  A    between atoms: C4_2  and  C2_3 
REMARK       I    between atoms: C4_2  and  N_7 
REMARK    2  A    between atoms: C2_3  and  C1_4 
REMARK    3  A    between atoms: C2_3  and  C3_6 
REMARK    4  A    between atoms: C1_4  and  S_5 
REMARK    5  A    between atoms: C8_8  and  C9_9 
ROOT
ATOM      1  O1  X8Z d          29.937   3.537 -43.394  0.00  0.00    -0.273 OA
ATOM      2  C4  X8Z d          28.913   4.257 -43.616  0.00  0.00     0.225 C 
ATOM      3  N   X8Z d          29.071   5.467 -44.197  0.00  0.00    -0.337 N 
ATOM      4  C8  X8Z d          30.429   6.008 -44.575  0.00  0.00     0.098 C 
ATOM      5  C5  X8Z d          28.007   6.479 -44.548  0.00  0.00    -0.001 C 
ATOM      6  C6  X8Z d          28.717   7.657 -45.108  0.00  0.00    -0.048 C 
ATOM      7  C7  X8Z d          30.166   7.305 -45.289  0.00  0.00    -0.035 C 
ATOM      8  H8  X8Z d          30.944   5.304 -45.244  0.00  0.00     0.089 H 
ATOM      9  H9  X8Z d          27.444   6.767 -43.649  0.00  0.00     0.064 H 
ATOM     10  H10 X8Z d          27.316   6.062 -45.296  0.00  0.00     0.064 H 
ATOM     11  H11 X8Z d          28.627   8.507 -44.415  0.00  0.00     0.035 H 
ATOM     12  H12 X8Z d          28.278   7.926 -46.080  0.00  0.00     0.035 H 
ATOM     13  H13 X8Z d          30.390   7.192 -46.360  0.00  0.00     0.036 H 
ATOM     14  H14 X8Z d          30.797   8.099 -44.863  0.00  0.00     0.036 H 
ENDROOT
BRANCH   2  15
ATOM     15  C2  X8Z d          27.536   3.730 -43.202  0.00  0.00     0.028 C 
ATOM     16  H1  X8Z d          26.789   3.980 -43.970  0.00  0.00     0.055 H 
BRANCH  15  17
ATOM     17  C1  X8Z d          27.623   2.205 -43.071  0.00  0.00    -0.015 C 
ATOM     18  H2  X8Z d          27.275   1.926 -42.065  0.00  0.00     0.049 H 
ATOM     19  H3  X8Z d          28.676   1.911 -43.190  0.00  0.00     0.049 H 
BRANCH  17  20
ATOM     20  S   X8Z d          26.649   1.297 -44.272  0.00  0.00    -0.181 SA
ATOM     21  H4  X8Z d          27.219   1.089 -45.078  0.00  0.00     0.101 HD
ENDBRANCH  17  20
ENDBRANCH  15  17
BRANCH  15  22
ATOM     22  C3  X8Z d          27.155   4.427 -41.885  0.00  0.00    -0.064 C 
ATOM     23  H5  X8Z d          27.758   4.012 -41.064  0.00  0.00     0.028 H 
ATOM     24  H6  X8Z d          26.088   4.260 -41.677  0.00  0.00     0.028 H 
ATOM     25  H7  X8Z d          27.348   5.506 -41.972  0.00  0.00     0.028 H 
ENDBRANCH  15  22
ENDBRANCH   2  15
BRANCH   4  26
ATOM     26  C9  X8Z d          31.297   6.241 -43.317  0.00  0.00     0.196 C 
ATOM     27  O3  X8Z d          30.899   6.881 -42.364  0.00  0.00    -0.646 OA
ATOM     28  O2  X8Z d          32.473   5.718 -43.325  0.00  0.00    -0.646 OA
ENDBRANCH   4  26
TORSDOF 5
ENDMDL
MODEL 2
REMARK VINA RESULT:      -4.1      2.749      3.146
REMARK  5 active torsions:
REMARK  status: ('A' for Active; 'I' for Inactive)
REMARK    1  A    between atoms: C4_2  and  C2_3 
REMARK       I    between atoms: C4_2  and  N_7 
REMARK    2  A    between atoms: C2_3  and  C1_4 
REMARK    3  A    between atoms: C2_3  and  C3_6 
REMARK    4  A    between atoms: C1_4  and  S_5 
REMARK    5  A    between atoms: C8_8  and  C9_9 
ROOT
ATOM      1  O1  X8Z d          29.024   4.768 -42.551  0.00  0.00    -0.273 OA
ATOM      2  C4  X8Z d          28.595   5.903 -42.931  0.00  0.00     0.225 C 
ATOM      3  N   X8Z d          29.139   6.482 -44.025  0.00  0.00    -0.337 N 
ATOM      4  C8  X8Z d          30.260   5.837 -44.804  0.00  0.00     0.098 C 
ATOM      5  C5  X8Z d          28.789   7.812 -44.648  0.00  0.00    -0.001 C 
ATOM      6  C6  X8Z d          29.722   7.999 -45.788  0.00  0.00    -0.048 C 
ATOM      7  C7  X8Z d          30.494   6.728 -45.992  0.00  0.00    -0.035 C 
ATOM      8  H8  X8Z d          29.962   4.832 -45.136  0.00  0.00     0.089 H 
ATOM      9  H9  X8Z d          28.918   8.621 -43.914  0.00  0.00     0.064 H 
ATOM     10  H10 X8Z d          27.749   7.803 -45.006  0.00  0.00     0.064 H 
ATOM     11  H11 X8Z d          30.417   8.822 -45.566  0.00  0.00     0.035 H 
ATOM     12  H12 X8Z d          29.151   8.236 -46.698  0.00  0.00     0.035 H 
ATOM     13  H13 X8Z d          30.148   6.225 -46.908  0.00  0.00     0.036 H 
ATOM     14  H14 X8Z d          31.567   6.954 -46.081  0.00  0.00     0.036 H 
ENDROOT
BRANCH   2  15
ATOM     15  C2  X8Z d          27.483   6.580 -42.125  0.00  0.00     0.028 C 
ATOM     16  H1  X8Z d          27.277   6.004 -41.210  0.00  0.00     0.055 H 
BRANCH  15  17
ATOM     17  C1  X8Z d          27.960   7.983 -41.732  0.00  0.00    -0.015 C 
ATOM     18  H2  X8Z d          27.292   8.365 -40.945  0.00  0.00     0.049 H 
ATOM     19  H3  X8Z d          27.890   8.630 -42.619  0.00  0.00     0.049 H 
BRANCH  17  20
ATOM     20  S   X8Z d          29.643   8.054 -41.118  0.00  0.00    -0.181 SA
ATOM     21  H4  X8Z d          30.282   7.831 -41.865  0.00  0.00     0.101 HD
ENDBRANCH  17  20
ENDBRANCH  15  17
BRANCH  15  22
ATOM     22  C3  X8Z d          26.223   6.596 -43.004  0.00  0.00    -0.064 C 
ATOM     23  H5  X8Z d          26.325   7.374 -43.776  0.00  0.00     0.028 H 
ATOM     24  H6  X8Z d          25.343   6.811 -42.380  0.00  0.00     0.028 H 
ATOM     25  H7  X8Z d          26.099   5.615 -43.486  0.00  0.00     0.028 H 
ENDBRANCH  15  22
ENDBRANCH   2  15
BRANCH   4  26
ATOM     26  C9  X8Z d          31.538   5.727 -43.940  0.00  0.00     0.196 C 
ATOM     27  O3  X8Z d          32.047   4.658 -43.669  0.00  0.00    -0.646 OA
ATOM     28  O2  X8Z d          32.043   6.833 -43.519  0.00  0.00    -0.646 OA
ENDBRANCH   4  26
TORSDOF 5
ENDMDL
MODEL 3
REMARK VINA RESULT:      -4.0      2.586      2.960
REMARK  5 active torsions:
REMARK  status: ('A' for Active; 'I' for Inactive)
REMARK    1  A    between atoms: C4_2  and  C2_3 
REMARK       I    between atoms: C4_2  and  N_7 
REMARK    2  A    between atoms: C2_3  and  C1_4 
REMARK    3  A    between atoms: C2_3  and  C3_6 
REMARK    4  A    between atoms: C1_4  and  S_5 
REMARK    5  A    between atoms: C8_8  and  C9_9 
ROOT
ATOM      1  O1  X8Z d          28.956   4.388 -42.509  0.00  0.00    -0.273 OA
ATOM      2  C4  X8Z d          29.006   5.649 -42.358  0.00  0.00     0.225 C 
ATOM      3  N   X8Z d          29.953   6.355 -43.015  0.00  0.00    -0.337 N 
ATOM      4  C8  X8Z d          30.975   5.694 -43.909  0.00  0.00     0.098 C 
ATOM      5  C5  X8Z d          30.196   7.845 -42.984  0.00  0.00    -0.001 C 
ATOM      6  C6  X8Z d          31.391   8.093 -43.830  0.00  0.00    -0.048 C 
ATOM      7  C7  X8Z d          31.757   6.817 -44.533  0.00  0.00    -0.035 C 
ATOM      8  H8  X8Z d          30.471   5.104 -44.689  0.00  0.00     0.089 H 
ATOM      9  H9  X8Z d          30.385   8.177 -41.953  0.00  0.00     0.064 H 
ATOM     10  H10 X8Z d          29.326   8.381 -43.389  0.00  0.00     0.064 H 
ATOM     11  H11 X8Z d          32.230   8.421 -43.199  0.00  0.00     0.035 H 
ATOM     12  H12 X8Z d          31.163   8.872 -44.573  0.00  0.00     0.035 H 
ATOM     13  H13 X8Z d          31.508   6.896 -45.601  0.00  0.00     0.036 H 
ATOM     14  H14 X8Z d          32.835   6.627 -44.420  0.00  0.00     0.036 H 
ENDROOT
BRANCH   2  15
ATOM     15  C2  X8Z d          27.997   6.322 -41.424  0.00  0.00     0.028 C 
ATOM     16  H1  X8Z d          28.479   6.581 -40.470  0.00  0.00     0.055 H 
BRANCH  15  17
ATOM     17  C1  X8Z d          27.502   7.608 -42.096  0.00  0.00    -0.015 C 
ATOM     18  H2  X8Z d          28.380   8.199 -42.396  0.00  0.00     0.049 H 
ATOM     19  H3  X8Z d          26.912   8.174 -41.361  0.00  0.00     0.049 H 
BRANCH  17  20
ATOM     20  S   X8Z d          26.482   7.346 -43.549  0.00  0.00    -0.181 SA
ATOM     21  H4  X8Z d          26.564   6.386 -43.847  0.00  0.00     0.101 HD
ENDBRANCH  17  20
ENDBRANCH  15  17
BRANCH  15  22
ATOM     22  C3  X8Z d          26.871   5.309 -41.160  0.00  0.00    -0.064 C 
ATOM     23  H5  X8Z d          26.603   5.330 -40.093  0.00  0.00     0.028 H 
ATOM     24  H6  X8Z d          27.214   4.300 -41.431  0.00  0.00     0.028 H 
ATOM     25  H7  X8Z d          25.991   5.572 -41.764  0.00  0.00     0.028 H 
ENDBRANCH  15  22
ENDBRANCH   2  15
BRANCH   4  26
ATOM     26  C9  X8Z d          31.903   4.767 -43.092  0.00  0.00     0.196 C 
ATOM     27  O3  X8Z d          32.375   5.101 -42.023  0.00  0.00    -0.646 OA
ATOM     28  O2  X8Z d          32.155   3.612 -43.600  0.00  0.00    -0.646 OA
ENDBRANCH   4  26
TORSDOF 5
ENDMDL
MODEL 4
REMARK VINA RESULT:      -3.8      3.049      4.921
REMARK  5 active torsions:
REMARK  status: ('A' for Active; 'I' for Inactive)
REMARK    1  A    between atoms: C4_2  and  C2_3 
REMARK       I    between atoms: C4_2  and  N_7 
REMARK    2  A    between atoms: C2_3  and  C1_4 
REMARK    3  A    between atoms: C2_3  and  C3_6 
REMARK    4  A    between atoms: C1_4  and  S_5 
REMARK    5  A    between atoms: C8_8  and  C9_9 
ROOT
ATOM      1  O1  X8Z d          28.145   7.412 -45.041  0.00  0.00    -0.273 OA
ATOM      2  C4  X8Z d          29.210   6.804 -44.705  0.00  0.00     0.225 C 
ATOM      3  N   X8Z d          29.121   5.592 -44.114  0.00  0.00    -0.337 N 
ATOM      4  C8  X8Z d          27.793   4.938 -43.816  0.00  0.00     0.098 C 
ATOM      5  C5  X8Z d          30.243   4.702 -43.636  0.00  0.00    -0.001 C 
ATOM      6  C6  X8Z d          29.601   3.518 -43.011  0.00  0.00    -0.048 C 
ATOM      7  C7  X8Z d          28.124   3.574 -43.276  0.00  0.00    -0.035 C 
ATOM      8  H8  X8Z d          27.200   4.847 -44.737  0.00  0.00     0.089 H 
ATOM      9  H9  X8Z d          30.862   5.233 -42.899  0.00  0.00     0.064 H 
ATOM     10  H10 X8Z d          30.869   4.390 -44.485  0.00  0.00     0.064 H 
ATOM     11  H11 X8Z d          29.783   3.528 -41.926  0.00  0.00     0.035 H 
ATOM     12  H12 X8Z d          30.020   2.598 -43.445  0.00  0.00     0.035 H 
ATOM     13  H13 X8Z d          27.849   2.805 -44.013  0.00  0.00     0.036 H 
ATOM     14  H14 X8Z d          27.572   3.400 -42.340  0.00  0.00     0.036 H 
ENDROOT
BRANCH   2  15
ATOM     15  C2  X8Z d          30.559   7.479 -44.971  0.00  0.00     0.028 C 
ATOM     16  H1  X8Z d          30.403   8.481 -45.396  0.00  0.00     0.055 H 
BRANCH  15  17
ATOM     17  C1  X8Z d          31.301   7.615 -43.636  0.00  0.00    -0.015 C 
ATOM     18  H2  X8Z d          32.086   8.376 -43.755  0.00  0.00     0.049 H 
ATOM     19  H3  X8Z d          31.762   6.645 -43.399  0.00  0.00     0.049 H 
BRANCH  17  20
ATOM     20  S   X8Z d          30.265   8.093 -42.252  0.00  0.00    -0.181 SA
ATOM     21  H4  X8Z d          29.454   8.586 -42.595  0.00  0.00     0.101 HD
ENDBRANCH  17  20
ENDBRANCH  15  17
BRANCH  15  22
ATOM     22  C3  X8Z d          31.312   6.611 -45.992  0.00  0.00    -0.064 C 
ATOM     23  H5  X8Z d          31.041   6.926 -47.011  0.00  0.00     0.028 H 
ATOM     24  H6  X8Z d          31.038   5.555 -45.850  0.00  0.00     0.028 H 
ATOM     25  H7  X8Z d          32.396   6.730 -45.848  0.00  0.00     0.028 H 
ENDBRANCH  15  22
ENDBRANCH   2  15
BRANCH   4  26
ATOM     26  C9  X8Z d          26.996   5.760 -42.777  0.00  0.00     0.196 C 
ATOM     27  O3  X8Z d          27.419   5.977 -41.660  0.00  0.00    -0.646 OA
ATOM     28  O2  X8Z d          25.852   6.211 -43.156  0.00  0.00    -0.646 OA
ENDBRANCH   4  26
TORSDOF 5
ENDMDL
MODEL 5
REMARK VINA RESULT:      -3.6      3.051      4.908
REMARK  5 active torsions:
REMARK  status: ('A' for Active; 'I' for Inactive)
REMARK    1  A    between atoms: C4_2  and  C2_3 
REMARK       I    between atoms: C4_2  and  N_7 
REMARK    2  A    between atoms: C2_3  and  C1_4 
REMARK    3  A    between atoms: C2_3  and  C3_6 
REMARK    4  A    between atoms: C1_4  and  S_5 
REMARK    5  A    between atoms: C8_8  and  C9_9 
ROOT
ATOM      1  O1  X8Z d          28.423   7.550 -43.600  0.00  0.00    -0.273 OA
ATOM      2  C4  X8Z d          29.299   6.700 -43.244  0.00  0.00     0.225 C 
ATOM      3  N   X8Z d          29.001   5.383 -43.298  0.00  0.00    -0.337 N 
ATOM      4  C8  X8Z d          27.650   4.881 -43.746  0.00  0.00     0.098 C 
ATOM      5  C5  X8Z d          29.879   4.212 -42.926  0.00  0.00    -0.001 C 
ATOM      6  C6  X8Z d          29.051   2.993 -43.112  0.00  0.00    -0.048 C 
ATOM      7  C7  X8Z d          27.762   3.382 -43.776  0.00  0.00    -0.035 C 
ATOM      8  H8  X8Z d          27.417   5.264 -44.751  0.00  0.00     0.089 H 
ATOM      9  H9  X8Z d          30.202   4.297 -41.879  0.00  0.00     0.064 H 
ATOM     10  H10 X8Z d          30.762   4.175 -43.581  0.00  0.00     0.064 H 
ATOM     11  H11 X8Z d          28.840   2.536 -42.134  0.00  0.00     0.035 H 
ATOM     12  H12 X8Z d          29.591   2.273 -43.745  0.00  0.00     0.035 H 
ATOM     13  H13 X8Z d          27.759   3.029 -44.818  0.00  0.00     0.036 H 
ATOM     14  H14 X8Z d          26.915   2.935 -43.235  0.00  0.00     0.036 H 
ENDROOT
BRANCH   2  15
ATOM     15  C2  X8Z d          30.659   7.204 -42.753  0.00  0.00     0.028 C 
ATOM     16  H1  X8Z d          31.292   6.354 -42.456  0.00  0.00     0.055 H 
BRANCH  15  17
ATOM     17  C1  X8Z d          31.340   7.952 -43.905  0.00  0.00    -0.015 C 
ATOM     18  H2  X8Z d          32.364   8.204 -43.593  0.00  0.00     0.049 H 
ATOM     19  H3  X8Z d          30.776   8.877 -44.094  0.00  0.00     0.049 H 
BRANCH  17  20
ATOM     20  S   X8Z d          31.434   7.031 -45.441  0.00  0.00    -0.181 SA
ATOM     21  H4  X8Z d          31.591   7.669 -46.205  0.00  0.00     0.101 HD
ENDBRANCH  17  20
ENDBRANCH  15  17
BRANCH  15  22
ATOM     22  C3  X8Z d          30.403   8.093 -41.525  0.00  0.00    -0.064 C 
ATOM     23  H5  X8Z d          29.846   8.990 -41.833  0.00  0.00     0.028 H 
ATOM     24  H6  X8Z d          31.364   8.392 -41.082  0.00  0.00     0.028 H 
ATOM     25  H7  X8Z d          29.816   7.533 -40.783  0.00  0.00     0.028 H 
ENDBRANCH  15  22
ENDBRANCH   2  15
BRANCH   4  26
ATOM     26  C9  X8Z d          26.543   5.329 -42.764  0.00  0.00     0.196 C 
ATOM     27  O3  X8Z d          25.720   6.174 -43.056  0.00  0.00    -0.646 OA
ATOM     28  O2  X8Z d          26.532   4.758 -41.611  0.00  0.00    -0.646 OA
ENDBRANCH   4  26
TORSDOF 5
ENDMDL
MODEL 6
REMARK VINA RESULT:      -3.4      1.733      2.040
REMARK  5 active torsions:
REMARK  status: ('A' for Active; 'I' for Inactive)
REMARK    1  A    between atoms: C4_2  and  C2_3 
REMARK       I    between atoms: C4_2  and  N_7 
REMARK    2  A    between atoms: C2_3  and  C1_4 
REMARK    3  A    between atoms: C2_3  and  C3_6 
REMARK    4  A    between atoms: C1_4  and  S_5 
REMARK    5  A    between atoms: C8_8  and  C9_9 
ROOT
ATOM      1  O1  X8Z d          29.380   4.688 -44.448  0.00  0.00    -0.273 OA
ATOM      2  C4  X8Z d          28.542   5.015 -43.551  0.00  0.00     0.225 C 
ATOM      3  N   X8Z d          28.786   6.101 -42.784  0.00  0.00    -0.337 N 
ATOM      4  C8  X8Z d          30.037   6.932 -42.940  0.00  0.00     0.098 C 
ATOM      5  C5  X8Z d          27.937   6.666 -41.670  0.00  0.00    -0.001 C 
ATOM      6  C6  X8Z d          28.687   7.822 -41.118  0.00  0.00    -0.048 C 
ATOM      7  C7  X8Z d          29.873   8.093 -41.998  0.00  0.00    -0.035 C 
ATOM      8  H8  X8Z d          30.126   7.292 -43.975  0.00  0.00     0.089 H 
ATOM      9  H9  X8Z d          27.780   5.907 -40.890  0.00  0.00     0.064 H 
ATOM     10  H10 X8Z d          26.965   6.996 -42.062  0.00  0.00     0.064 H 
ATOM     11  H11 X8Z d          29.029   7.589 -40.099  0.00  0.00     0.035 H 
ATOM     12  H12 X8Z d          28.035   8.708 -41.093  0.00  0.00     0.035 H 
ATOM     13  H13 X8Z d          29.706   9.017 -42.573  0.00  0.00     0.036 H 
ATOM     14  H14 X8Z d          30.777   8.203 -41.382  0.00  0.00     0.036 H 
ENDROOT
BRANCH   2  15
ATOM     15  C2  X8Z d          27.289   4.155 -43.363  0.00  0.00     0.028 C 
ATOM     16  H1  X8Z d          26.396   4.714 -43.681  0.00  0.00     0.055 H 
BRANCH  15  17
ATOM     17  C1  X8Z d          27.429   2.903 -44.236  0.00  0.00    -0.015 C 
ATOM     18  H2  X8Z d          28.434   2.906 -44.683  0.00  0.00     0.049 H 
ATOM     19  H3  X8Z d          26.673   2.954 -45.033  0.00  0.00     0.049 H 
BRANCH  17  20
ATOM     20  S   X8Z d          27.212   1.353 -43.359  0.00  0.00    -0.181 SA
ATOM     21  H4  X8Z d          28.050   1.143 -42.838  0.00  0.00     0.101 HD
ENDBRANCH  17  20
ENDBRANCH  15  17
BRANCH  15  22
ATOM     22  C3  X8Z d          27.173   3.834 -41.864  0.00  0.00    -0.064 C 
ATOM     23  H5  X8Z d          27.717   4.595 -41.284  0.00  0.00     0.028 H 
ATOM     24  H6  X8Z d          27.607   2.843 -41.666  0.00  0.00     0.028 H 
ATOM     25  H7  X8Z d          26.114   3.836 -41.569  0.00  0.00     0.028 H 
ENDBRANCH  15  22
ENDBRANCH   2  15
BRANCH   4  26
ATOM     26  C9  X8Z d          31.293   6.107 -42.579  0.00  0.00     0.196 C 
ATOM     27  O3  X8Z d          32.209   5.944 -43.361  0.00  0.00    -0.646 OA
ATOM     28  O2  X8Z d          31.327   5.596 -41.398  0.00  0.00    -0.646 OA
ENDBRANCH   4  26
TORSDOF 5
ENDMDL
MODEL 7
REMARK VINA RESULT:      -2.9      2.289      2.841
REMARK  5 active torsions:
REMARK  status: ('A' for Active; 'I' for Inactive)
REMARK    1  A    between atoms: C4_2  and  C2_3 
REMARK       I    between atoms: C4_2  and  N_7 
REMARK    2  A    between atoms: C2_3  and  C1_4 
REMARK    3  A    between atoms: C2_3  and  C3_6 
REMARK    4  A    between atoms: C1_4  and  S_5 
REMARK    5  A    between atoms: C8_8  and  C9_9 
ROOT
ATOM      1  O1  X8Z d          27.938   6.249 -41.286  0.00  0.00    -0.273 OA
ATOM      2  C4  X8Z d          28.242   5.421 -42.201  0.00  0.00     0.225 C 
ATOM      3  N   X8Z d          29.545   5.156 -42.445  0.00  0.00    -0.337 N 
ATOM      4  C8  X8Z d          30.660   5.827 -41.680  0.00  0.00     0.098 C 
ATOM      5  C5  X8Z d          30.130   4.218 -43.474  0.00  0.00    -0.001 C 
ATOM      6  C6  X8Z d          31.605   4.343 -43.365  0.00  0.00    -0.048 C 
ATOM      7  C7  X8Z d          31.930   5.182 -42.163  0.00  0.00    -0.035 C 
ATOM      8  H8  X8Z d          30.535   5.658 -40.601  0.00  0.00     0.089 H 
ATOM      9  H9  X8Z d          29.797   4.505 -44.482  0.00  0.00     0.064 H 
ATOM     10  H10 X8Z d          29.820   3.183 -43.266  0.00  0.00     0.064 H 
ATOM     11  H11 X8Z d          32.003   4.825 -44.270  0.00  0.00     0.035 H 
ATOM     12  H12 X8Z d          32.053   3.345 -43.252  0.00  0.00     0.035 H 
ATOM     13  H13 X8Z d          32.350   4.546 -41.369  0.00  0.00     0.036 H 
ATOM     14  H14 X8Z d          32.661   5.957 -42.437  0.00  0.00     0.036 H 
ENDROOT
BRANCH   2  15
ATOM     15  C2  X8Z d          27.117   4.764 -43.006  0.00  0.00     0.028 C 
ATOM     16  H1  X8Z d          27.439   4.606 -44.046  0.00  0.00     0.055 H 
BRANCH  15  17
ATOM     17  C1  X8Z d          26.803   3.404 -42.371  0.00  0.00    -0.015 C 
ATOM     18  H2  X8Z d          25.729   3.376 -42.133  0.00  0.00     0.049 H 
ATOM     19  H3  X8Z d          27.387   3.315 -41.443  0.00  0.00     0.049 H 
BRANCH  17  20
ATOM     20  S   X8Z d          27.182   1.991 -43.408  0.00  0.00    -0.181 SA
ATOM     21  H4  X8Z d          27.544   2.312 -44.293  0.00  0.00     0.101 HD
ENDBRANCH  17  20
ENDBRANCH  15  17
BRANCH  15  22
ATOM     22  C3  X8Z d          25.920   5.728 -42.990  0.00  0.00    -0.064 C 
ATOM     23  H5  X8Z d          26.151   6.610 -43.606  0.00  0.00     0.028 H 
ATOM     24  H6  X8Z d          25.717   6.044 -41.957  0.00  0.00     0.028 H 
ATOM     25  H7  X8Z d          25.034   5.219 -43.398  0.00  0.00     0.028 H 
ENDBRANCH  15  22
ENDBRANCH   2  15
BRANCH   4  26
ATOM     26  C9  X8Z d          30.679   7.348 -41.957  0.00  0.00     0.196 C 
ATOM     27  O3  X8Z d          31.272   7.827 -42.903  0.00  0.00    -0.646 OA
ATOM     28  O2  X8Z d          30.028   8.091 -41.132  0.00  0.00    -0.646 OA
ENDBRANCH   4  26
TORSDOF 5
ENDMDL
MODEL 8
REMARK VINA RESULT:      -2.8      2.411      3.252
REMARK  5 active torsions:
REMARK  status: ('A' for Active; 'I' for Inactive)
REMARK    1  A    between atoms: C4_2  and  C2_3 
REMARK       I    between atoms: C4_2  and  N_7 
REMARK    2  A    between atoms: C2_3  and  C1_4 
REMARK    3  A    between atoms: C2_3  and  C3_6 
REMARK    4  A    between atoms: C1_4  and  S_5 
REMARK    5  A    between atoms: C8_8  and  C9_9 
ROOT
ATOM      1  O1  X8Z d          27.672   7.344 -42.665  0.00  0.00    -0.273 OA
ATOM      2  C4  X8Z d          28.715   6.663 -42.414  0.00  0.00     0.225 C 
ATOM      3  N   X8Z d          29.824   6.853 -43.163  0.00  0.00    -0.337 N 
ATOM      4  C8  X8Z d          29.862   7.834 -44.310  0.00  0.00     0.098 C 
ATOM      5  C5  X8Z d          31.161   6.161 -43.044  0.00  0.00    -0.001 C 
ATOM      6  C6  X8Z d          32.007   6.692 -44.142  0.00  0.00    -0.048 C 
ATOM      7  C7  X8Z d          31.284   7.831 -44.800  0.00  0.00    -0.035 C 
ATOM      8  H8  X8Z d          29.583   8.838 -43.959  0.00  0.00     0.089 H 
ATOM      9  H9  X8Z d          31.036   5.073 -43.151  0.00  0.00     0.064 H 
ATOM     10  H10 X8Z d          31.619   6.384 -42.070  0.00  0.00     0.064 H 
ATOM     11  H11 X8Z d          32.196   5.898 -44.881  0.00  0.00     0.035 H 
ATOM     12  H12 X8Z d          32.964   7.048 -43.733  0.00  0.00     0.035 H 
ATOM     13  H13 X8Z d          31.770   8.782 -44.536  0.00  0.00     0.036 H 
ATOM     14  H14 X8Z d          31.300   7.701 -45.892  0.00  0.00     0.036 H 
ENDROOT
BRANCH   2  15
ATOM     15  C2  X8Z d          28.672   5.640 -41.275  0.00  0.00     0.028 C 
ATOM     16  H1  X8Z d          28.452   6.144 -40.323  0.00  0.00     0.055 H 
BRANCH  15  17
ATOM     17  C1  X8Z d          27.555   4.633 -41.575  0.00  0.00    -0.015 C 
ATOM     18  H2  X8Z d          26.602   5.181 -41.616  0.00  0.00     0.049 H 
ATOM     19  H3  X8Z d          27.523   3.902 -40.755  0.00  0.00     0.049 H 
BRANCH  17  20
ATOM     20  S   X8Z d          27.752   3.737 -43.116  0.00  0.00    -0.181 SA
ATOM     21  H4  X8Z d          28.548   3.122 -43.047  0.00  0.00     0.101 HD
ENDBRANCH  17  20
ENDBRANCH  15  17
BRANCH  15  22
ATOM     22  C3  X8Z d          30.062   4.989 -41.191  0.00  0.00    -0.064 C 
ATOM     23  H5  X8Z d          30.120   4.154 -41.905  0.00  0.00     0.028 H 
ATOM     24  H6  X8Z d          30.229   4.611 -40.171  0.00  0.00     0.028 H 
ATOM     25  H7  X8Z d          30.832   5.735 -41.435  0.00  0.00     0.028 H 
ENDBRANCH  15  22
ENDBRANCH   2  15
BRANCH   4  26
ATOM     26  C9  X8Z d          28.893   7.402 -45.435  0.00  0.00     0.196 C 
ATOM     27  O3  X8Z d          27.957   8.093 -45.785  0.00  0.00    -0.646 OA
ATOM     28  O2  X8Z d          29.128   6.267 -45.992  0.00  0.00    -0.646 OA
ENDBRANCH   4  26
TORSDOF 5
ENDMDL
