MODEL 1
REMARK VINA RESULT:      -5.9      0.000      0.000
REMARK  8 active torsions:
REMARK  status: ('A' for Active; 'I' for Inactive)
REMARK    1  A    between atoms: C2_2  and  C6_6 
REMARK    2  A    between atoms: C3_3  and  O20_16 
REMARK    3  A    between atoms: C5_5  and  C9_9 
REMARK    4  A    between atoms: C11_11  and  N29_21 
REMARK    5  A    between atoms: O20_16  and  C21_17 
REMARK    6  A    between atoms: C21_17  and  C22_18 
REMARK    7  A    between atoms: N29_21  and  C30_22 
REMARK    8  A    between atoms: C30_22  and  C31_23 
ROOT
ATOM      1  C9  MOL d          47.089  10.588   0.818  0.00  0.00    -0.015 A 
ATOM      2  C10 MOL d          48.380   9.959   0.777  0.00  0.00    -0.046 A 
ATOM      3  C11 MOL d          48.560   8.729   0.079  0.00  0.00     0.029 A 
ATOM      4  C12 MOL d          47.439   8.110  -0.592  0.00  0.00    -0.058 A 
ATOM      5  C13 MOL d          46.146   8.731  -0.560  0.00  0.00    -0.080 A 
ATOM      6  C14 MOL d          45.983   9.966   0.149  0.00  0.00    -0.072 A 
ATOM      7  H1  MOL d          49.222  10.422   1.279  0.00  0.00     0.088 H 
ATOM      8  H2  MOL d          47.575   7.174  -1.122  0.00  0.00     0.086 H 
ATOM      9  H3  MOL d          45.303   8.273  -1.064  0.00  0.00     0.083 H 
ATOM     10  H4  MOL d          45.008  10.438   0.179  0.00  0.00     0.084 H 
ENDROOT
BRANCH   1  11
ATOM     11  C5  MOL d          46.874  11.877   1.550  0.00  0.00     0.036 A 
ATOM     12  S1  MOL d          47.622  12.173   3.031  0.00  0.00    -0.078 SA
ATOM     13  C2  MOL d          46.963  13.733   3.255  0.00  0.00     0.117 A 
ATOM     14  C3  MOL d          46.132  14.059   2.151  0.00  0.00     0.112 A 
ATOM     15  C4  MOL d          46.088  13.004   1.199  0.00  0.00     0.064 A 
ATOM     16 BR19 MOL d          45.060  13.138  -0.387  0.00  0.00    -0.047 Br
BRANCH  13  17
ATOM     17  C6  MOL d          47.278  14.487   4.408  0.00  0.00     0.219 C 
ATOM     18  O7  MOL d          48.077  15.421   4.355  0.00  0.00    -0.643 OA
ATOM     19  O8  MOL d          46.720  14.173   5.464  0.00  0.00    -0.643 OA
ENDBRANCH  13  17
BRANCH  14  20
ATOM     20  O20 MOL d          45.403  15.282   1.948  0.00  0.00    -0.338 OA
BRANCH  20  21
ATOM     21  C21 MOL d          44.537  15.659   3.025  0.00  0.00     0.106 C 
ATOM     22  H5  MOL d          44.435  14.816   3.725  0.00  0.00     0.091 H 
ATOM     23  H6  MOL d          43.549  15.923   2.623  0.00  0.00     0.091 H 
BRANCH  21  24
ATOM     24  C22 MOL d          45.123  16.862   3.762  0.00  0.00     0.198 C 
ATOM     25  O25 MOL d          46.067  17.488   3.247  0.00  0.00    -0.646 OA
ATOM     26  O26 MOL d          44.636  17.175   4.852  0.00  0.00    -0.646 OA
ENDBRANCH  21  24
ENDBRANCH  20  21
ENDBRANCH  14  20
ENDBRANCH   1  11
BRANCH   3  27
ATOM     27  N29 MOL d          49.831   8.182   0.087  0.00  0.00    -0.386 N 
ATOM     28  H7  MOL d          50.606   8.782  -0.229  0.00  0.00     0.160 HD
BRANCH  27  29
ATOM     29  C30 MOL d          50.164   6.812   0.511  0.00  0.00     0.016 C 
ATOM     30  H8  MOL d          51.196   6.591   0.202  0.00  0.00     0.071 H 
ATOM     31  H9  MOL d          49.474   6.114   0.013  0.00  0.00     0.071 H 
BRANCH  29  32
ATOM     32  C31 MOL d          50.056   6.606   2.008  0.00  0.00    -0.041 A 
ATOM     33  C34 MOL d          48.760   6.428   2.609  0.00  0.00    -0.075 A 
ATOM     34  C35 MOL d          48.650   6.228   4.022  0.00  0.00    -0.082 A 
ATOM     35  H10 MOL d          47.868   6.445   1.993  0.00  0.00     0.084 H 
ATOM     36  C36 MOL d          49.846   6.210   4.816  0.00  0.00    -0.083 A 
ATOM     37  H11 MOL d          47.679   6.093   4.486  0.00  0.00     0.083 H 
ATOM     38  C37 MOL d          51.146   6.388   4.221  0.00  0.00    -0.082 A 
ATOM     39  H12 MOL d          49.769   6.059   5.887  0.00  0.00     0.083 H 
ATOM     40  C38 MOL d          51.251   6.587   2.803  0.00  0.00    -0.075 A 
ATOM     41  H13 MOL d          52.037   6.372   4.838  0.00  0.00     0.083 H 
ATOM     42  H14 MOL d          52.221   6.722   2.338  0.00  0.00     0.084 H 
ENDBRANCH  29  32
ENDBRANCH  27  29
ENDBRANCH   3  27
TORSDOF 8
ENDMDL
MODEL 2
REMARK VINA RESULT:      -5.3      1.986      3.064
REMARK  8 active torsions:
REMARK  status: ('A' for Active; 'I' for Inactive)
REMARK    1  A    between atoms: C2_2  and  C6_6 
REMARK    2  A    between atoms: C3_3  and  O20_16 
REMARK    3  A    between atoms: C5_5  and  C9_9 
REMARK    4  A    between atoms: C11_11  and  N29_21 
REMARK    5  A    between atoms: O20_16  and  C21_17 
REMARK    6  A    between atoms: C21_17  and  C22_18 
REMARK    7  A    between atoms: N29_21  and  C30_22 
REMARK    8  A    between atoms: C30_22  and  C31_23 
ROOT
ATOM      1  C9  MOL d          47.393  11.745   0.333  0.00  0.00    -0.015 A 
ATOM      2  C10 MOL d          47.037  10.394   0.663  0.00  0.00    -0.046 A 
ATOM      3  C11 MOL d          47.873   9.310   0.263  0.00  0.00     0.029 A 
ATOM      4  C12 MOL d          49.087   9.572  -0.476  0.00  0.00    -0.058 A 
ATOM      5  C13 MOL d          49.454  10.919  -0.808  0.00  0.00    -0.080 A 
ATOM      6  C14 MOL d          48.600  11.995  -0.401  0.00  0.00    -0.072 A 
ATOM      7  H1  MOL d          46.127  10.196   1.218  0.00  0.00     0.088 H 
ATOM      8  H2  MOL d          49.723   8.748  -0.781  0.00  0.00     0.086 H 
ATOM      9  H3  MOL d          50.365  11.120  -1.359  0.00  0.00     0.083 H 
ATOM     10  H4  MOL d          48.872  13.014  -0.651  0.00  0.00     0.084 H 
ENDROOT
BRANCH   1  11
ATOM     11  C5  MOL d          46.527  12.900   0.736  0.00  0.00     0.036 A 
ATOM     12  S1  MOL d          45.576  13.711  -0.393  0.00  0.00    -0.078 SA
ATOM     13  C2  MOL d          44.905  14.830   0.709  0.00  0.00     0.117 A 
ATOM     14  C3  MOL d          45.420  14.581   2.009  0.00  0.00     0.112 A 
ATOM     15  C4  MOL d          46.336  13.494   2.010  0.00  0.00     0.064 A 
ATOM     16 BR19 MOL d          47.196  12.919   3.598  0.00  0.00    -0.047 Br
BRANCH  13  17
ATOM     17  C6  MOL d          43.982  15.806   0.270  0.00  0.00     0.219 C 
ATOM     18  O7  MOL d          43.649  16.737   1.000  0.00  0.00    -0.643 OA
ATOM     19  O8  MOL d          43.529  15.688  -0.873  0.00  0.00    -0.643 OA
ENDBRANCH  13  17
BRANCH  14  20
ATOM     20  O20 MOL d          45.100  15.292   3.217  0.00  0.00    -0.338 OA
BRANCH  20  21
ATOM     21  C21 MOL d          46.225  15.667   4.019  0.00  0.00     0.106 C 
ATOM     22  H5  MOL d          46.959  14.848   4.024  0.00  0.00     0.091 H 
ATOM     23  H6  MOL d          45.890  15.866   5.047  0.00  0.00     0.091 H 
BRANCH  21  24
ATOM     24  C22 MOL d          46.873  16.926   3.444  0.00  0.00     0.198 C 
ATOM     25  O25 MOL d          46.344  17.490   2.470  0.00  0.00    -0.646 OA
ATOM     26  O26 MOL d          47.907  17.345   3.972  0.00  0.00    -0.646 OA
ENDBRANCH  21  24
ENDBRANCH  20  21
ENDBRANCH  14  20
ENDBRANCH   1  11
BRANCH   3  27
ATOM     27  N29 MOL d          47.461   8.036   0.613  0.00  0.00    -0.386 N 
ATOM     28  H7  MOL d          46.450   7.884   0.740  0.00  0.00     0.160 HD
BRANCH  27  29
ATOM     29  C30 MOL d          48.351   6.882   0.819  0.00  0.00     0.016 C 
ATOM     30  H8  MOL d          49.098   6.868   0.011  0.00  0.00     0.071 H 
ATOM     31  H9  MOL d          47.747   5.963   0.776  0.00  0.00     0.071 H 
BRANCH  29  32
ATOM     32  C31 MOL d          49.079   6.917   2.146  0.00  0.00    -0.041 A 
ATOM     33  C34 MOL d          50.507   6.731   2.179  0.00  0.00    -0.075 A 
ATOM     34  C35 MOL d          51.203   6.768   3.429  0.00  0.00    -0.082 A 
ATOM     35  H10 MOL d          51.054   6.564   1.258  0.00  0.00     0.084 H 
ATOM     36  C36 MOL d          50.455   6.991   4.634  0.00  0.00    -0.083 A 
ATOM     37  H11 MOL d          52.277   6.629   3.466  0.00  0.00     0.083 H 
ATOM     38  C37 MOL d          49.026   7.177   4.609  0.00  0.00    -0.082 A 
ATOM     39  H12 MOL d          50.976   7.019   5.585  0.00  0.00     0.083 H 
ATOM     40  C38 MOL d          48.333   7.140   3.352  0.00  0.00    -0.075 A 
ATOM     41  H13 MOL d          48.480   7.342   5.530  0.00  0.00     0.083 H 
ATOM     42  H14 MOL d          47.259   7.279   3.314  0.00  0.00     0.084 H 
ENDBRANCH  29  32
ENDBRANCH  27  29
ENDBRANCH   3  27
TORSDOF 8
ENDMDL
MODEL 3
REMARK VINA RESULT:      -3.6      2.102      3.696
REMARK  8 active torsions:
REMARK  status: ('A' for Active; 'I' for Inactive)
REMARK    1  A    between atoms: C2_2  and  C6_6 
REMARK    2  A    between atoms: C3_3  and  O20_16 
REMARK    3  A    between atoms: C5_5  and  C9_9 
REMARK    4  A    between atoms: C11_11  and  N29_21 
REMARK    5  A    between atoms: O20_16  and  C21_17 
REMARK    6  A    between atoms: C21_17  and  C22_18 
REMARK    7  A    between atoms: N29_21  and  C30_22 
REMARK    8  A    between atoms: C30_22  and  C31_23 
ROOT
ATOM      1  C9  MOL d          47.539  10.183   2.491  0.00  0.00    -0.015 A 
ATOM      2  C10 MOL d          47.741   9.393   1.308  0.00  0.00    -0.046 A 
ATOM      3  C11 MOL d          48.372   8.117   1.393  0.00  0.00     0.029 A 
ATOM      4  C12 MOL d          48.811   7.614   2.675  0.00  0.00    -0.058 A 
ATOM      5  C13 MOL d          48.611   8.394   3.863  0.00  0.00    -0.080 A 
ATOM      6  C14 MOL d          47.978   9.675   3.758  0.00  0.00    -0.072 A 
ATOM      7  H1  MOL d          47.412   9.769   0.346  0.00  0.00     0.088 H 
ATOM      8  H2  MOL d          49.291   6.645   2.740  0.00  0.00     0.086 H 
ATOM      9  H3  MOL d          48.936   8.019   4.827  0.00  0.00     0.083 H 
ATOM     10  H4  MOL d          47.828  10.269   4.652  0.00  0.00     0.084 H 
ENDROOT
BRANCH   1  11
ATOM     11  C5  MOL d          46.885  11.529   2.426  0.00  0.00     0.036 A 
ATOM     12  S1  MOL d          47.391  12.793   3.419  0.00  0.00    -0.078 SA
ATOM     13  C2  MOL d          46.272  13.941   2.832  0.00  0.00     0.117 A 
ATOM     14  C3  MOL d          45.468  13.346   1.824  0.00  0.00     0.112 A 
ATOM     15  C4  MOL d          45.821  11.986   1.607  0.00  0.00     0.064 A 
ATOM     16 BR19 MOL d          44.925  10.919   0.323  0.00  0.00    -0.047 Br
BRANCH  13  17
ATOM     17  C6  MOL d          46.253  15.255   3.350  0.00  0.00     0.219 C 
ATOM     18  O7  MOL d          47.226  15.997   3.233  0.00  0.00    -0.643 OA
ATOM     19  O8  MOL d          45.222  15.628   3.920  0.00  0.00    -0.643 OA
ENDBRANCH  13  17
BRANCH  14  20
ATOM     20  O20 MOL d          44.417  13.977   1.072  0.00  0.00    -0.338 OA
BRANCH  20  21
ATOM     21  C21 MOL d          44.857  14.836   0.014  0.00  0.00     0.106 C 
ATOM     22  H5  MOL d          44.451  14.475  -0.943  0.00  0.00     0.091 H 
ATOM     23  H6  MOL d          45.956  14.829  -0.028  0.00  0.00     0.091 H 
BRANCH  21  24
ATOM     24  C22 MOL d          44.368  16.261   0.268  0.00  0.00     0.198 C 
ATOM     25  O25 MOL d          43.794  16.523   1.341  0.00  0.00    -0.646 OA
ATOM     26  O26 MOL d          44.560  17.111  -0.606  0.00  0.00    -0.646 OA
ENDBRANCH  21  24
ENDBRANCH  20  21
ENDBRANCH  14  20
ENDBRANCH   1  11
BRANCH   3  27
ATOM     27  N29 MOL d          48.535   7.417   0.210  0.00  0.00    -0.386 N 
ATOM     28  H7  MOL d          47.968   6.567   0.082  0.00  0.00     0.160 HD
BRANCH  27  29
ATOM     29  C30 MOL d          49.453   7.790  -0.879  0.00  0.00     0.016 C 
ATOM     30  H8  MOL d          48.952   7.600  -1.839  0.00  0.00     0.071 H 
ATOM     31  H9  MOL d          50.355   7.165  -0.805  0.00  0.00     0.071 H 
BRANCH  29  32
ATOM     32  C31 MOL d          49.873   9.245  -0.835  0.00  0.00    -0.041 A 
ATOM     33  C34 MOL d          48.868  10.276  -0.883  0.00  0.00    -0.075 A 
ATOM     34  C35 MOL d          49.257  11.653  -0.838  0.00  0.00    -0.082 A 
ATOM     35  H10 MOL d          47.820  10.010  -0.954  0.00  0.00     0.084 H 
ATOM     36  C36 MOL d          50.651  11.979  -0.744  0.00  0.00    -0.083 A 
ATOM     37  H11 MOL d          48.509  12.437  -0.874  0.00  0.00     0.083 H 
ATOM     38  C37 MOL d          51.661  10.952  -0.695  0.00  0.00    -0.082 A 
ATOM     39  H12 MOL d          50.952  13.020  -0.709  0.00  0.00     0.083 H 
ATOM     40  C38 MOL d          51.267   9.572  -0.741  0.00  0.00    -0.075 A 
ATOM     41  H13 MOL d          52.710  11.219  -0.626  0.00  0.00     0.083 H 
ATOM     42  H14 MOL d          52.013   8.787  -0.705  0.00  0.00     0.084 H 
ENDBRANCH  29  32
ENDBRANCH  27  29
ENDBRANCH   3  27
TORSDOF 8
ENDMDL
MODEL 4
REMARK VINA RESULT:      -3.5      4.458      8.060
REMARK  8 active torsions:
REMARK  status: ('A' for Active; 'I' for Inactive)
REMARK    1  A    between atoms: C2_2  and  C6_6 
REMARK    2  A    between atoms: C3_3  and  O20_16 
REMARK    3  A    between atoms: C5_5  and  C9_9 
REMARK    4  A    between atoms: C11_11  and  N29_21 
REMARK    5  A    between atoms: O20_16  and  C21_17 
REMARK    6  A    between atoms: C21_17  and  C22_18 
REMARK    7  A    between atoms: N29_21  and  C30_22 
REMARK    8  A    between atoms: C30_22  and  C31_23 
ROOT
ATOM      1  C9  MOL d          46.235  11.835   0.053  0.00  0.00    -0.015 A 
ATOM      2  C10 MOL d          46.273  13.153   0.622  0.00  0.00    -0.046 A 
ATOM      3  C11 MOL d          45.176  14.046   0.444  0.00  0.00     0.029 A 
ATOM      4  C12 MOL d          44.018  13.624  -0.312  0.00  0.00    -0.058 A 
ATOM      5  C13 MOL d          43.969  12.309  -0.883  0.00  0.00    -0.080 A 
ATOM      6  C14 MOL d          45.082  11.425  -0.696  0.00  0.00    -0.072 A 
ATOM      7  H1  MOL d          47.140  13.471   1.190  0.00  0.00     0.088 H 
ATOM      8  H2  MOL d          43.184  14.303  -0.449  0.00  0.00     0.086 H 
ATOM      9  H3  MOL d          43.102  11.987  -1.448  0.00  0.00     0.083 H 
ATOM     10  H4  MOL d          45.051  10.432  -1.127  0.00  0.00     0.084 H 
ENDROOT
BRANCH   1  11
ATOM     11  C5  MOL d          47.378  10.881   0.221  0.00  0.00     0.036 A 
ATOM     12  S1  MOL d          48.951  11.325  -0.192  0.00  0.00    -0.078 SA
ATOM     13  C2  MOL d          49.675   9.840   0.240  0.00  0.00     0.117 A 
ATOM     14  C3  MOL d          48.680   8.953   0.730  0.00  0.00     0.112 A 
ATOM     15  C4  MOL d          47.390   9.550   0.710  0.00  0.00     0.064 A 
ATOM     16 BR19 MOL d          45.851   8.615   1.301  0.00  0.00    -0.047 Br
BRANCH  13  17
ATOM     17  C6  MOL d          51.067   9.649   0.091  0.00  0.00     0.219 C 
ATOM     18  O7  MOL d          51.658   8.774   0.721  0.00  0.00    -0.643 OA
ATOM     19  O8  MOL d          51.662  10.391  -0.698  0.00  0.00    -0.643 OA
ENDBRANCH  13  17
BRANCH  14  20
ATOM     20  O20 MOL d          48.877   7.611   1.207  0.00  0.00    -0.338 OA
BRANCH  20  21
ATOM     21  C21 MOL d          48.310   7.333   2.493  0.00  0.00     0.106 C 
ATOM     22  H5  MOL d          47.857   6.330   2.484  0.00  0.00     0.091 H 
ATOM     23  H6  MOL d          47.539   8.082   2.722  0.00  0.00     0.091 H 
BRANCH  21  24
ATOM     24  C22 MOL d          49.402   7.386   3.560  0.00  0.00     0.198 C 
ATOM     25  O25 MOL d          50.374   8.146   3.397  0.00  0.00    -0.646 OA
ATOM     26  O26 MOL d          49.281   6.669   4.558  0.00  0.00    -0.646 OA
ENDBRANCH  21  24
ENDBRANCH  20  21
ENDBRANCH  14  20
ENDBRANCH   1  11
BRANCH   3  27
ATOM     27  N29 MOL d          45.287  15.300   1.018  0.00  0.00    -0.386 N 
ATOM     28  H7  MOL d          45.842  16.005   0.512  0.00  0.00     0.160 HD
BRANCH  27  29
ATOM     29  C30 MOL d          44.675  15.708   2.294  0.00  0.00     0.016 C 
ATOM     30  H8  MOL d          44.042  14.885   2.657  0.00  0.00     0.071 H 
ATOM     31  H9  MOL d          44.054  16.598   2.116  0.00  0.00     0.071 H 
BRANCH  29  32
ATOM     32  C31 MOL d          45.693  16.039   3.366  0.00  0.00    -0.041 A 
ATOM     33  C34 MOL d          47.017  15.476   3.288  0.00  0.00    -0.075 A 
ATOM     34  C35 MOL d          47.985  15.788   4.294  0.00  0.00    -0.082 A 
ATOM     35  H10 MOL d          47.278  14.817   2.468  0.00  0.00     0.084 H 
ATOM     36  C36 MOL d          47.613  16.664   5.369  0.00  0.00    -0.083 A 
ATOM     37  H11 MOL d          48.984  15.370   4.245  0.00  0.00     0.083 H 
ATOM     38  C37 MOL d          46.291  17.230   5.453  0.00  0.00    -0.082 A 
ATOM     39  H12 MOL d          48.343  16.904   6.134  0.00  0.00     0.083 H 
ATOM     40  C38 MOL d          45.322  16.915   4.441  0.00  0.00    -0.075 A 
ATOM     41  H13 MOL d          46.029  17.889   6.274  0.00  0.00     0.083 H 
ATOM     42  H14 MOL d          44.323  17.332   4.488  0.00  0.00     0.084 H 
ENDBRANCH  29  32
ENDBRANCH  27  29
ENDBRANCH   3  27
TORSDOF 8
ENDMDL
MODEL 5
REMARK VINA RESULT:      -3.0      2.031      3.800
REMARK  8 active torsions:
REMARK  status: ('A' for Active; 'I' for Inactive)
REMARK    1  A    between atoms: C2_2  and  C6_6 
REMARK    2  A    between atoms: C3_3  and  O20_16 
REMARK    3  A    between atoms: C5_5  and  C9_9 
REMARK    4  A    between atoms: C11_11  and  N29_21 
REMARK    5  A    between atoms: O20_16  and  C21_17 
REMARK    6  A    between atoms: C21_17  and  C22_18 
REMARK    7  A    between atoms: N29_21  and  C30_22 
REMARK    8  A    between atoms: C30_22  and  C31_23 
ROOT
ATOM      1  C9  MOL d          47.691   9.679   2.438  0.00  0.00    -0.015 A 
ATOM      2  C10 MOL d          48.051   8.979   1.237  0.00  0.00    -0.046 A 
ATOM      3  C11 MOL d          48.655   7.690   1.307  0.00  0.00     0.029 A 
ATOM      4  C12 MOL d          48.907   7.081   2.594  0.00  0.00    -0.058 A 
ATOM      5  C13 MOL d          48.549   7.770   3.800  0.00  0.00    -0.080 A 
ATOM      6  C14 MOL d          47.945   9.066   3.711  0.00  0.00    -0.072 A 
ATOM      7  H1  MOL d          47.862   9.434   0.271  0.00  0.00     0.088 H 
ATOM      8  H2  MOL d          49.367   6.101   2.648  0.00  0.00     0.086 H 
ATOM      9  H3  MOL d          48.732   7.316   4.767  0.00  0.00     0.083 H 
ATOM     10  H4  MOL d          47.675   9.592   4.619  0.00  0.00     0.084 H 
ENDROOT
BRANCH   1  11
ATOM     11  C5  MOL d          47.061  11.037   2.390  0.00  0.00     0.036 A 
ATOM     12  S1  MOL d          47.623  12.294   3.362  0.00  0.00    -0.078 SA
ATOM     13  C2  MOL d          46.508  13.462   2.807  0.00  0.00     0.117 A 
ATOM     14  C3  MOL d          45.661  12.880   1.827  0.00  0.00     0.112 A 
ATOM     15  C4  MOL d          45.980  11.513   1.604  0.00  0.00     0.064 A 
ATOM     16 BR19 MOL d          45.024  10.459   0.353  0.00  0.00    -0.047 Br
BRANCH  13  17
ATOM     17  C6  MOL d          46.531  14.778   3.321  0.00  0.00     0.219 C 
ATOM     18  O7  MOL d          47.439  15.555   3.033  0.00  0.00    -0.643 OA
ATOM     19  O8  MOL d          45.605  15.115   4.066  0.00  0.00    -0.643 OA
ENDBRANCH  13  17
BRANCH  14  20
ATOM     20  O20 MOL d          44.599  13.528   1.107  0.00  0.00    -0.338 OA
BRANCH  20  21
ATOM     21  C21 MOL d          45.023  14.395   0.048  0.00  0.00     0.106 C 
ATOM     22  H5  MOL d          44.702  13.977  -0.918  0.00  0.00     0.091 H 
ATOM     23  H6  MOL d          46.119  14.482   0.064  0.00  0.00     0.091 H 
BRANCH  21  24
ATOM     24  C22 MOL d          44.401  15.779   0.233  0.00  0.00     0.198 C 
ATOM     25  O25 MOL d          44.493  16.613  -0.685  0.00  0.00    -0.646 OA
ATOM     26  O26 MOL d          43.824  16.023   1.297  0.00  0.00    -0.646 OA
ENDBRANCH  21  24
ENDBRANCH  20  21
ENDBRANCH  14  20
ENDBRANCH   1  11
BRANCH   3  27
ATOM     27  N29 MOL d          48.978   7.080   0.107  0.00  0.00    -0.386 N 
ATOM     28  H7  MOL d          48.512   6.188  -0.111  0.00  0.00     0.160 HD
BRANCH  27  29
ATOM     29  C30 MOL d          49.932   7.606  -0.883  0.00  0.00     0.016 C 
ATOM     30  H8  MOL d          49.608   7.286  -1.885  0.00  0.00     0.071 H 
ATOM     31  H9  MOL d          50.926   7.186  -0.668  0.00  0.00     0.071 H 
BRANCH  29  32
ATOM     32  C31 MOL d          50.036   9.117  -0.871  0.00  0.00    -0.041 A 
ATOM     33  C34 MOL d          51.335   9.739  -0.851  0.00  0.00    -0.075 A 
ATOM     34  C35 MOL d          51.442  11.166  -0.844  0.00  0.00    -0.082 A 
ATOM     35  H10 MOL d          52.230   9.128  -0.842  0.00  0.00     0.084 H 
ATOM     36  C36 MOL d          50.241  11.953  -0.856  0.00  0.00    -0.083 A 
ATOM     37  H11 MOL d          52.414  11.646  -0.829  0.00  0.00     0.083 H 
ATOM     38  C37 MOL d          48.939  11.337  -0.876  0.00  0.00    -0.082 A 
ATOM     39  H12 MOL d          50.315  13.035  -0.851  0.00  0.00     0.083 H 
ATOM     40  C38 MOL d          48.837   9.904  -0.883  0.00  0.00    -0.075 A 
ATOM     41  H13 MOL d          48.044  11.949  -0.883  0.00  0.00     0.083 H 
ATOM     42  H14 MOL d          47.865   9.424  -0.899  0.00  0.00     0.084 H 
ENDBRANCH  29  32
ENDBRANCH  27  29
ENDBRANCH   3  27
TORSDOF 8
ENDMDL
