MODEL 1
REMARK VINA RESULT:      -6.4      0.000      0.000
REMARK  7 active torsions:
REMARK  status: ('A' for Active; 'I' for Inactive)
REMARK    1  A    between atoms: C1_1  and  O1_8 
REMARK    2  A    between atoms: C2_2  and  O2_9 
REMARK    3  A    between atoms: C3_3  and  O3_10 
REMARK    4  A    between atoms: C4_4  and  O4_11 
REMARK    5  A    between atoms: C5_5  and  C6_6 
REMARK    6  A    between atoms: C6_6  and  O6_13 
REMARK    7  A    between atoms: O1_8  and  C7_7 
ROOT
ATOM      1  C1  MMA d          -4.351 -17.715  -5.912  0.00  0.00     0.158 C 
ATOM      2  C2  MMA d          -3.590 -17.024  -4.767  0.00  0.00     0.110 C 
ATOM      3  C3  MMA d          -4.541 -16.583  -3.653  0.00  0.00     0.092 C 
ATOM      4  C4  MMA d          -5.699 -15.767  -4.227  0.00  0.00     0.090 C 
ATOM      5  C5  MMA d          -6.408 -16.661  -5.237  0.00  0.00     0.089 C 
ATOM      6  O5  MMA d          -5.488 -16.943  -6.311  0.00  0.00    -0.349 OA
ATOM      7  H1  MMA d          -3.680 -17.857  -6.772  0.00  0.00     0.133 H 
ATOM      8  H2  MMA d          -2.854 -17.728  -4.353  0.00  0.00     0.094 H 
ATOM      9  H3  MMA d          -4.929 -17.468  -3.126  0.00  0.00     0.091 H 
ATOM     10  H4  MMA d          -5.303 -14.883  -4.748  0.00  0.00     0.091 H 
ATOM     11  H5  MMA d          -6.683 -17.603  -4.739  0.00  0.00     0.090 H 
ENDROOT
BRANCH   1  12
ATOM     12  O1  MMA d          -4.808 -18.980  -5.426  0.00  0.00    -0.363 OA
BRANCH  12  13
ATOM     13  C7  MMA d          -3.713 -19.887  -5.185  0.00  0.00     0.007 C 
ATOM     14  H8  MMA d          -2.768 -19.325  -5.172  0.00  0.00     0.066 H 
ATOM     15  H9  MMA d          -3.679 -20.641  -5.986  0.00  0.00     0.066 H 
ATOM     16  H10 MMA d          -3.856 -20.387  -4.215  0.00  0.00     0.066 H 
ENDBRANCH  12  13
ENDBRANCH   1  12
BRANCH   2  17
ATOM     17  O2  MMA d          -2.907 -15.857  -5.279  0.00  0.00    -0.388 OA
ATOM     18  H11 MMA d          -2.843 -15.918  -6.225  0.00  0.00     0.210 HD
ENDBRANCH   2  17
BRANCH   3  19
ATOM     19  O3  MMA d          -3.834 -15.725  -2.735  0.00  0.00    -0.390 OA
ATOM     20  H12 MMA d          -3.715 -16.178  -1.908  0.00  0.00     0.210 HD
ENDBRANCH   3  19
BRANCH   5  21
ATOM     21  C6  MMA d          -7.680 -16.030  -5.808  0.00  0.00     0.043 C 
ATOM     22  H6  MMA d          -7.976 -15.160  -5.202  0.00  0.00     0.078 H 
ATOM     23  H7  MMA d          -8.498 -16.765  -5.816  0.00  0.00     0.078 H 
BRANCH  21  24
ATOM     24  O6  MMA d          -7.371 -15.614  -7.159  0.00  0.00    -0.398 OA
ATOM     25  H14 MMA d          -6.439 -15.439  -7.230  0.00  0.00     0.209 HD
ENDBRANCH  21  24
ENDBRANCH   5  21
BRANCH   4  26
ATOM     26  O4  MMA d          -6.568 -15.312  -3.162  0.00  0.00    -0.390 OA
ATOM     27  H13 MMA d          -7.118 -14.608  -3.482  0.00  0.00     0.210 HD
ENDBRANCH   4  26
TORSDOF 7
ENDMDL
MODEL 2
REMARK VINA RESULT:      -5.5      1.965      3.886
REMARK  7 active torsions:
REMARK  status: ('A' for Active; 'I' for Inactive)
REMARK    1  A    between atoms: C1_1  and  O1_8 
REMARK    2  A    between atoms: C2_2  and  O2_9 
REMARK    3  A    between atoms: C3_3  and  O3_10 
REMARK    4  A    between atoms: C4_4  and  O4_11 
REMARK    5  A    between atoms: C5_5  and  C6_6 
REMARK    6  A    between atoms: C6_6  and  O6_13 
REMARK    7  A    between atoms: O1_8  and  C7_7 
ROOT
ATOM      1  C1  MMA d          -6.858 -17.986  -3.582  0.00  0.00     0.158 C 
ATOM      2  C2  MMA d          -6.940 -16.494  -3.944  0.00  0.00     0.110 C 
ATOM      3  C3  MMA d          -5.791 -16.080  -4.866  0.00  0.00     0.092 C 
ATOM      4  C4  MMA d          -4.448 -16.516  -4.280  0.00  0.00     0.090 C 
ATOM      5  C5  MMA d          -4.512 -18.031  -4.119  0.00  0.00     0.089 C 
ATOM      6  O5  MMA d          -5.538 -18.338  -3.155  0.00  0.00    -0.349 OA
ATOM      7  H1  MMA d          -7.579 -18.216  -2.783  0.00  0.00     0.133 H 
ATOM      8  H2  MMA d          -7.896 -16.303  -4.453  0.00  0.00     0.094 H 
ATOM      9  H3  MMA d          -5.933 -16.532  -5.859  0.00  0.00     0.091 H 
ATOM     10  H4  MMA d          -4.313 -16.058  -3.289  0.00  0.00     0.091 H 
ATOM     11  H5  MMA d          -4.781 -18.475  -5.089  0.00  0.00     0.090 H 
ENDROOT
BRANCH   1  12
ATOM     12  O1  MMA d          -7.169 -18.735  -4.760  0.00  0.00    -0.363 OA
BRANCH  12  13
ATOM     13  C7  MMA d          -7.982 -19.889  -4.460  0.00  0.00     0.007 C 
ATOM     14  H8  MMA d          -9.028 -19.577  -4.332  0.00  0.00     0.066 H 
ATOM     15  H9  MMA d          -7.623 -20.358  -3.532  0.00  0.00     0.066 H 
ATOM     16  H10 MMA d          -7.913 -20.611  -5.288  0.00  0.00     0.066 H 
ENDBRANCH  12  13
ENDBRANCH   1  12
BRANCH   2  17
ATOM     17  O2  MMA d          -6.871 -15.701  -2.736  0.00  0.00    -0.388 OA
ATOM     18  H11 MMA d          -7.436 -14.942  -2.824  0.00  0.00     0.210 HD
ENDBRANCH   2  17
BRANCH   3  19
ATOM     19  O3  MMA d          -5.759 -14.643  -4.971  0.00  0.00    -0.390 OA
ATOM     20  H12 MMA d          -5.055 -14.384  -5.554  0.00  0.00     0.210 HD
ENDBRANCH   3  19
BRANCH   5  21
ATOM     21  C6  MMA d          -3.183 -18.641  -3.663  0.00  0.00     0.043 C 
ATOM     22  H6  MMA d          -2.652 -19.076  -4.523  0.00  0.00     0.078 H 
ATOM     23  H7  MMA d          -3.364 -19.422  -2.911  0.00  0.00     0.078 H 
BRANCH  21  24
ATOM     24  O6  MMA d          -2.405 -17.565  -3.088  0.00  0.00    -0.398 OA
ATOM     25  H14 MMA d          -1.490 -17.820  -3.055  0.00  0.00     0.209 HD
ENDBRANCH  21  24
ENDBRANCH   5  21
BRANCH   4  26
ATOM     26  O4  MMA d          -3.364 -16.079  -5.133  0.00  0.00    -0.390 OA
ATOM     27  H13 MMA d          -3.365 -15.131  -5.184  0.00  0.00     0.210 HD
ENDBRANCH   4  26
TORSDOF 7
ENDMDL
MODEL 3
REMARK VINA RESULT:      -5.3      1.743      3.549
REMARK  7 active torsions:
REMARK  status: ('A' for Active; 'I' for Inactive)
REMARK    1  A    between atoms: C1_1  and  O1_8 
REMARK    2  A    between atoms: C2_2  and  O2_9 
REMARK    3  A    between atoms: C3_3  and  O3_10 
REMARK    4  A    between atoms: C4_4  and  O4_11 
REMARK    5  A    between atoms: C5_5  and  C6_6 
REMARK    6  A    between atoms: C6_6  and  O6_13 
REMARK    7  A    between atoms: O1_8  and  C7_7 
ROOT
ATOM      1  C1  MMA d          -6.438 -18.868  -5.277  0.00  0.00     0.158 C 
ATOM      2  C2  MMA d          -7.649 -17.919  -5.289  0.00  0.00     0.110 C 
ATOM      3  C3  MMA d          -7.223 -16.476  -5.562  0.00  0.00     0.092 C 
ATOM      4  C4  MMA d          -6.102 -16.057  -4.612  0.00  0.00     0.090 C 
ATOM      5  C5  MMA d          -4.948 -17.028  -4.841  0.00  0.00     0.089 C 
ATOM      6  O5  MMA d          -5.387 -18.346  -4.457  0.00  0.00    -0.349 OA
ATOM      7  H1  MMA d          -6.743 -19.856  -4.902  0.00  0.00     0.133 H 
ATOM      8  H2  MMA d          -8.347 -18.243  -6.075  0.00  0.00     0.094 H 
ATOM      9  H3  MMA d          -6.888 -16.380  -6.606  0.00  0.00     0.091 H 
ATOM     10  H4  MMA d          -6.447 -16.152  -3.572  0.00  0.00     0.091 H 
ATOM     11  H5  MMA d          -4.698 -17.026  -5.912  0.00  0.00     0.090 H 
ENDROOT
BRANCH   1  12
ATOM     12  O1  MMA d          -5.958 -18.974  -6.619  0.00  0.00    -0.363 OA
BRANCH  12  13
ATOM     13  C7  MMA d          -5.101 -20.121  -6.791  0.00  0.00     0.007 C 
ATOM     14  H8  MMA d          -4.337 -19.899  -7.549  0.00  0.00     0.066 H 
ATOM     15  H9  MMA d          -5.703 -20.982  -7.118  0.00  0.00     0.066 H 
ATOM     16  H10 MMA d          -4.610 -20.359  -5.835  0.00  0.00     0.066 H 
ENDBRANCH  12  13
ENDBRANCH   1  12
BRANCH   2  17
ATOM     17  O2  MMA d          -8.313 -17.970  -4.005  0.00  0.00    -0.388 OA
ATOM     18  H11 MMA d          -8.496 -18.874  -3.779  0.00  0.00     0.210 HD
ENDBRANCH   2  17
BRANCH   3  19
ATOM     19  O3  MMA d          -8.338 -15.596  -5.314  0.00  0.00    -0.390 OA
ATOM     20  H12 MMA d          -8.030 -14.697  -5.278  0.00  0.00     0.210 HD
ENDBRANCH   3  19
BRANCH   5  21
ATOM     21  C6  MMA d          -3.689 -16.659  -4.052  0.00  0.00     0.043 C 
ATOM     22  H6  MMA d          -2.972 -16.138  -4.705  0.00  0.00     0.078 H 
ATOM     23  H7  MMA d          -3.220 -17.564  -3.641  0.00  0.00     0.078 H 
BRANCH  21  24
ATOM     24  O6  MMA d          -4.111 -15.785  -2.978  0.00  0.00    -0.398 OA
ATOM     25  H14 MMA d          -4.415 -16.309  -2.246  0.00  0.00     0.209 HD
ENDBRANCH  21  24
ENDBRANCH   5  21
BRANCH   4  26
ATOM     26  O4  MMA d          -5.737 -14.676  -4.844  0.00  0.00    -0.390 OA
ATOM     27  H13 MMA d          -4.791 -14.592  -4.828  0.00  0.00     0.210 HD
ENDBRANCH   4  26
TORSDOF 7
ENDMDL
MODEL 4
REMARK VINA RESULT:      -5.2      1.617      1.970
REMARK  7 active torsions:
REMARK  status: ('A' for Active; 'I' for Inactive)
REMARK    1  A    between atoms: C1_1  and  O1_8 
REMARK    2  A    between atoms: C2_2  and  O2_9 
REMARK    3  A    between atoms: C3_3  and  O3_10 
REMARK    4  A    between atoms: C4_4  and  O4_11 
REMARK    5  A    between atoms: C5_5  and  C6_6 
REMARK    6  A    between atoms: C6_6  and  O6_13 
REMARK    7  A    between atoms: O1_8  and  C7_7 
ROOT
ATOM      1  C1  MMA d          -5.201 -18.982  -4.675  0.00  0.00     0.158 C 
ATOM      2  C2  MMA d          -4.192 -17.879  -5.040  0.00  0.00     0.110 C 
ATOM      3  C3  MMA d          -4.326 -16.671  -4.111  0.00  0.00     0.092 C 
ATOM      4  C4  MMA d          -5.780 -16.203  -4.045  0.00  0.00     0.090 C 
ATOM      5  C5  MMA d          -6.599 -17.384  -3.539  0.00  0.00     0.089 C 
ATOM      6  O5  MMA d          -6.517 -18.440  -4.517  0.00  0.00    -0.349 OA
ATOM      7  H1  MMA d          -5.211 -19.753  -5.460  0.00  0.00     0.133 H 
ATOM      8  H2  MMA d          -3.174 -18.287  -4.955  0.00  0.00     0.094 H 
ATOM      9  H3  MMA d          -3.971 -16.938  -3.104  0.00  0.00     0.091 H 
ATOM     10  H4  MMA d          -6.125 -15.935  -5.055  0.00  0.00     0.091 H 
ATOM     11  H5  MMA d          -6.163 -17.733  -2.592  0.00  0.00     0.090 H 
ENDROOT
BRANCH   1  12
ATOM     12  O1  MMA d          -4.790 -19.549  -3.428  0.00  0.00    -0.363 OA
BRANCH  12  13
ATOM     13  C7  MMA d          -3.462 -20.105  -3.507  0.00  0.00     0.007 C 
ATOM     14  H8  MMA d          -3.149 -20.450  -2.511  0.00  0.00     0.066 H 
ATOM     15  H9  MMA d          -2.762 -19.333  -3.863  0.00  0.00     0.066 H 
ATOM     16  H10 MMA d          -3.460 -20.953  -4.207  0.00  0.00     0.066 H 
ENDBRANCH  12  13
ENDBRANCH   1  12
BRANCH   2  17
ATOM     17  O2  MMA d          -4.426 -17.444  -6.399  0.00  0.00    -0.388 OA
ATOM     18  H11 MMA d          -4.047 -16.582  -6.524  0.00  0.00     0.210 HD
ENDBRANCH   2  17
BRANCH   3  19
ATOM     19  O3  MMA d          -3.552 -15.576  -4.639  0.00  0.00    -0.390 OA
ATOM     20  H12 MMA d          -2.627 -15.777  -4.561  0.00  0.00     0.210 HD
ENDBRANCH   3  19
BRANCH   5  21
ATOM     21  C6  MMA d          -8.069 -17.032  -3.291  0.00  0.00     0.043 C 
ATOM     22  H6  MMA d          -8.206 -16.691  -2.254  0.00  0.00     0.078 H 
ATOM     23  H7  MMA d          -8.705 -17.910  -3.476  0.00  0.00     0.078 H 
BRANCH  21  24
ATOM     24  O6  MMA d          -8.405 -15.969  -4.214  0.00  0.00    -0.398 OA
ATOM     25  H14 MMA d          -9.124 -16.249  -4.769  0.00  0.00     0.209 HD
ENDBRANCH  21  24
ENDBRANCH   5  21
BRANCH   4  26
ATOM     26  O4  MMA d          -5.891 -15.031  -3.202  0.00  0.00    -0.390 OA
ATOM     27  H13 MMA d          -5.153 -15.002  -2.605  0.00  0.00     0.210 HD
ENDBRANCH   4  26
TORSDOF 7
ENDMDL
MODEL 5
REMARK VINA RESULT:      -4.8      1.813      3.986
REMARK  7 active torsions:
REMARK  status: ('A' for Active; 'I' for Inactive)
REMARK    1  A    between atoms: C1_1  and  O1_8 
REMARK    2  A    between atoms: C2_2  and  O2_9 
REMARK    3  A    between atoms: C3_3  and  O3_10 
REMARK    4  A    between atoms: C4_4  and  O4_11 
REMARK    5  A    between atoms: C5_5  and  C6_6 
REMARK    6  A    between atoms: C6_6  and  O6_13 
REMARK    7  A    between atoms: O1_8  and  C7_7 
ROOT
ATOM      1  C1  MMA d          -7.116 -17.048  -4.104  0.00  0.00     0.158 C 
ATOM      2  C2  MMA d          -6.128 -15.898  -4.364  0.00  0.00     0.110 C 
ATOM      3  C3  MMA d          -4.842 -16.406  -5.018  0.00  0.00     0.092 C 
ATOM      4  C4  MMA d          -4.259 -17.573  -4.221  0.00  0.00     0.090 C 
ATOM      5  C5  MMA d          -5.329 -18.658  -4.187  0.00  0.00     0.089 C 
ATOM      6  O5  MMA d          -6.464 -18.148  -3.461  0.00  0.00    -0.349 OA
ATOM      7  H1  MMA d          -7.946 -16.691  -3.475  0.00  0.00     0.133 H 
ATOM      8  H2  MMA d          -6.604 -15.164  -5.030  0.00  0.00     0.094 H 
ATOM      9  H3  MMA d          -5.052 -16.722  -6.050  0.00  0.00     0.091 H 
ATOM     10  H4  MMA d          -4.049 -17.246  -3.192  0.00  0.00     0.091 H 
ATOM     11  H5  MMA d          -5.631 -18.884  -5.220  0.00  0.00     0.090 H 
ENDROOT
BRANCH   1  12
ATOM     12  O1  MMA d          -7.609 -17.490  -5.371  0.00  0.00    -0.363 OA
BRANCH  12  13
ATOM     13  C7  MMA d          -8.347 -16.451  -6.048  0.00  0.00     0.007 C 
ATOM     14  H8  MMA d          -7.739 -15.536  -6.088  0.00  0.00     0.066 H 
ATOM     15  H9  MMA d          -9.280 -16.248  -5.501  0.00  0.00     0.066 H 
ATOM     16  H10 MMA d          -8.585 -16.778  -7.072  0.00  0.00     0.066 H 
ENDBRANCH  12  13
ENDBRANCH   1  12
BRANCH   2  17
ATOM     17  O2  MMA d          -5.789 -15.262  -3.110  0.00  0.00    -0.388 OA
ATOM     18  H11 MMA d          -4.864 -15.387  -2.933  0.00  0.00     0.210 HD
ENDBRANCH   2  17
BRANCH   3  19
ATOM     19  O3  MMA d          -3.856 -15.353  -5.008  0.00  0.00    -0.390 OA
ATOM     20  H12 MMA d          -4.073 -14.724  -4.330  0.00  0.00     0.210 HD
ENDBRANCH   3  19
BRANCH   5  21
ATOM     21  C6  MMA d          -4.845 -19.956  -3.533  0.00  0.00     0.043 C 
ATOM     22  H6  MMA d          -4.570 -20.689  -4.306  0.00  0.00     0.078 H 
ATOM     23  H7  MMA d          -5.636 -20.375  -2.894  0.00  0.00     0.078 H 
BRANCH  21  24
ATOM     24  O6  MMA d          -3.688 -19.614  -2.735  0.00  0.00    -0.398 OA
ATOM     25  H14 MMA d          -3.852 -18.800  -2.272  0.00  0.00     0.209 HD
ENDBRANCH  21  24
ENDBRANCH   5  21
BRANCH   4  26
ATOM     26  O4  MMA d          -3.017 -18.016  -4.818  0.00  0.00    -0.390 OA
ATOM     27  H13 MMA d          -2.338 -18.039  -4.154  0.00  0.00     0.210 HD
ENDBRANCH   4  26
TORSDOF 7
ENDMDL
MODEL 6
REMARK VINA RESULT:      -4.4      1.826      2.216
REMARK  7 active torsions:
REMARK  status: ('A' for Active; 'I' for Inactive)
REMARK    1  A    between atoms: C1_1  and  O1_8 
REMARK    2  A    between atoms: C2_2  and  O2_9 
REMARK    3  A    between atoms: C3_3  and  O3_10 
REMARK    4  A    between atoms: C4_4  and  O4_11 
REMARK    5  A    between atoms: C5_5  and  C6_6 
REMARK    6  A    between atoms: C6_6  and  O6_13 
REMARK    7  A    between atoms: O1_8  and  C7_7 
ROOT
ATOM      1  C1  MMA d          -4.830 -17.129  -5.544  0.00  0.00     0.158 C 
ATOM      2  C2  MMA d          -5.198 -16.037  -4.525  0.00  0.00     0.110 C 
ATOM      3  C3  MMA d          -6.214 -16.549  -3.502  0.00  0.00     0.092 C 
ATOM      4  C4  MMA d          -7.412 -17.185  -4.208  0.00  0.00     0.090 C 
ATOM      5  C5  MMA d          -6.864 -18.323  -5.061  0.00  0.00     0.089 C 
ATOM      6  O5  MMA d          -6.005 -17.755  -6.070  0.00  0.00    -0.349 OA
ATOM      7  H1  MMA d          -4.246 -16.689  -6.366  0.00  0.00     0.133 H 
ATOM      8  H2  MMA d          -4.286 -15.721  -3.997  0.00  0.00     0.094 H 
ATOM      9  H3  MMA d          -5.734 -17.284  -2.839  0.00  0.00     0.091 H 
ATOM     10  H4  MMA d          -7.888 -16.443  -4.865  0.00  0.00     0.091 H 
ATOM     11  H5  MMA d          -6.274 -18.991  -4.417  0.00  0.00     0.090 H 
ENDROOT
BRANCH   1  12
ATOM     12  O1  MMA d          -4.056 -18.117  -4.859  0.00  0.00    -0.363 OA
BRANCH  12  13
ATOM     13  C7  MMA d          -3.407 -19.019  -5.779  0.00  0.00     0.007 C 
ATOM     14  H8  MMA d          -4.080 -19.859  -6.004  0.00  0.00     0.066 H 
ATOM     15  H9  MMA d          -2.482 -19.403  -5.325  0.00  0.00     0.066 H 
ATOM     16  H10 MMA d          -3.166 -18.483  -6.709  0.00  0.00     0.066 H 
ENDBRANCH  12  13
ENDBRANCH   1  12
BRANCH   2  17
ATOM     17  O2  MMA d          -5.771 -14.905  -5.218  0.00  0.00    -0.388 OA
ATOM     18  H11 MMA d          -6.086 -14.272  -4.583  0.00  0.00     0.210 HD
ENDBRANCH   2  17
BRANCH   3  19
ATOM     19  O3  MMA d          -6.718 -15.437  -2.735  0.00  0.00    -0.390 OA
ATOM     20  H12 MMA d          -7.308 -14.922  -3.274  0.00  0.00     0.210 HD
ENDBRANCH   3  19
BRANCH   5  21
ATOM     21  C6  MMA d          -7.963 -19.150  -5.734  0.00  0.00     0.043 C 
ATOM     22  H6  MMA d          -8.802 -19.301  -5.038  0.00  0.00     0.078 H 
ATOM     23  H7  MMA d          -7.565 -20.127  -6.045  0.00  0.00     0.078 H 
BRANCH  21  24
ATOM     24  O6  MMA d          -8.402 -18.400  -6.890  0.00  0.00    -0.398 OA
ATOM     25  H14 MMA d          -8.319 -18.940  -7.668  0.00  0.00     0.209 HD
ENDBRANCH  21  24
ENDBRANCH   5  21
BRANCH   4  26
ATOM     26  O4  MMA d          -8.391 -17.623  -3.236  0.00  0.00    -0.390 OA
ATOM     27  H13 MMA d          -7.969 -17.737  -2.392  0.00  0.00     0.210 HD
ENDBRANCH   4  26
TORSDOF 7
ENDMDL
MODEL 7
REMARK VINA RESULT:      -4.3      1.704      4.442
REMARK  7 active torsions:
REMARK  status: ('A' for Active; 'I' for Inactive)
REMARK    1  A    between atoms: C1_1  and  O1_8 
REMARK    2  A    between atoms: C2_2  and  O2_9 
REMARK    3  A    between atoms: C3_3  and  O3_10 
REMARK    4  A    between atoms: C4_4  and  O4_11 
REMARK    5  A    between atoms: C5_5  and  C6_6 
REMARK    6  A    between atoms: C6_6  and  O6_13 
REMARK    7  A    between atoms: O1_8  and  C7_7 
ROOT
ATOM      1  C1  MMA d          -6.051 -16.422  -4.070  0.00  0.00     0.158 C 
ATOM      2  C2  MMA d          -6.680 -17.004  -5.348  0.00  0.00     0.110 C 
ATOM      3  C3  MMA d          -6.310 -18.477  -5.531  0.00  0.00     0.092 C 
ATOM      4  C4  MMA d          -4.797 -18.667  -5.428  0.00  0.00     0.090 C 
ATOM      5  C5  MMA d          -4.384 -18.159  -4.051  0.00  0.00     0.089 C 
ATOM      6  O5  MMA d          -4.658 -16.746  -3.993  0.00  0.00    -0.349 OA
ATOM      7  H1  MMA d          -6.178 -15.329  -4.056  0.00  0.00     0.133 H 
ATOM      8  H2  MMA d          -7.774 -16.914  -5.278  0.00  0.00     0.094 H 
ATOM      9  H3  MMA d          -6.819 -19.083  -4.767  0.00  0.00     0.091 H 
ATOM     10  H4  MMA d          -4.297 -18.060  -6.197  0.00  0.00     0.091 H 
ATOM     11  H5  MMA d          -4.987 -18.678  -3.292  0.00  0.00     0.090 H 
ENDROOT
BRANCH   1  12
ATOM     12  O1  MMA d          -6.718 -17.013  -2.952  0.00  0.00    -0.363 OA
BRANCH  12  13
ATOM     13  C7  MMA d          -8.152 -16.919  -3.076  0.00  0.00     0.007 C 
ATOM     14  H8  MMA d          -8.526 -16.131  -2.407  0.00  0.00     0.066 H 
ATOM     15  H9  MMA d          -8.608 -17.881  -2.799  0.00  0.00     0.066 H 
ATOM     16  H10 MMA d          -8.415 -16.674  -4.115  0.00  0.00     0.066 H 
ENDBRANCH  12  13
ENDBRANCH   1  12
BRANCH   2  17
ATOM     17  O2  MMA d          -6.208 -16.263  -6.497  0.00  0.00    -0.388 OA
ATOM     18  H11 MMA d          -5.594 -16.797  -6.987  0.00  0.00     0.210 HD
ENDBRANCH   2  17
BRANCH   3  19
ATOM     19  O3  MMA d          -6.701 -18.905  -6.851  0.00  0.00    -0.390 OA
ATOM     20  H12 MMA d          -5.949 -18.866  -7.432  0.00  0.00     0.210 HD
ENDBRANCH   3  19
BRANCH   5  21
ATOM     21  C6  MMA d          -2.905 -18.406  -3.741  0.00  0.00     0.043 C 
ATOM     22  H6  MMA d          -2.351 -18.605  -4.670  0.00  0.00     0.078 H 
ATOM     23  H7  MMA d          -2.799 -19.263  -3.060  0.00  0.00     0.078 H 
BRANCH  21  24
ATOM     24  O6  MMA d          -2.405 -17.203  -3.110  0.00  0.00    -0.398 OA
ATOM     25  H14 MMA d          -2.272 -17.365  -2.183  0.00  0.00     0.209 HD
ENDBRANCH  21  24
ENDBRANCH   5  21
BRANCH   4  26
ATOM     26  O4  MMA d          -4.451 -20.055  -5.650  0.00  0.00    -0.390 OA
ATOM     27  H13 MMA d          -5.222 -20.531  -5.935  0.00  0.00     0.210 HD
ENDBRANCH   4  26
TORSDOF 7
ENDMDL
MODEL 8
REMARK VINA RESULT:      -3.8      2.327      3.866
REMARK  7 active torsions:
REMARK  status: ('A' for Active; 'I' for Inactive)
REMARK    1  A    between atoms: C1_1  and  O1_8 
REMARK    2  A    between atoms: C2_2  and  O2_9 
REMARK    3  A    between atoms: C3_3  and  O3_10 
REMARK    4  A    between atoms: C4_4  and  O4_11 
REMARK    5  A    between atoms: C5_5  and  C6_6 
REMARK    6  A    between atoms: C6_6  and  O6_13 
REMARK    7  A    between atoms: O1_8  and  C7_7 
ROOT
ATOM      1  C1  MMA d          -5.866 -19.653  -3.611  0.00  0.00     0.158 C 
ATOM      2  C2  MMA d          -6.776 -20.037  -4.791  0.00  0.00     0.110 C 
ATOM      3  C3  MMA d          -6.733 -18.979  -5.895  0.00  0.00     0.092 C 
ATOM      4  C4  MMA d          -6.999 -17.589  -5.317  0.00  0.00     0.090 C 
ATOM      5  C5  MMA d          -5.923 -17.337  -4.267  0.00  0.00     0.089 C 
ATOM      6  O5  MMA d          -6.095 -18.299  -3.207  0.00  0.00    -0.349 OA
ATOM      7  H1  MMA d          -6.052 -20.329  -2.763  0.00  0.00     0.133 H 
ATOM      8  H2  MMA d          -6.437 -21.000  -5.203  0.00  0.00     0.094 H 
ATOM      9  H3  MMA d          -5.750 -18.999  -6.389  0.00  0.00     0.091 H 
ATOM     10  H4  MMA d          -7.985 -17.576  -4.828  0.00  0.00     0.091 H 
ATOM     11  H5  MMA d          -4.938 -17.484  -4.733  0.00  0.00     0.090 H 
ENDROOT
BRANCH   1  12
ATOM     12  O1  MMA d          -4.512 -19.773  -4.053  0.00  0.00    -0.363 OA
BRANCH  12  13
ATOM     13  C7  MMA d          -3.623 -20.107  -2.967  0.00  0.00     0.007 C 
ATOM     14  H8  MMA d          -3.810 -19.431  -2.120  0.00  0.00     0.066 H 
ATOM     15  H9  MMA d          -2.580 -19.999  -3.299  0.00  0.00     0.066 H 
ATOM     16  H10 MMA d          -3.803 -21.146  -2.653  0.00  0.00     0.066 H 
ENDBRANCH  12  13
ENDBRANCH   1  12
BRANCH   2  17
ATOM     17  O2  MMA d          -8.139 -20.164  -4.326  0.00  0.00    -0.388 OA
ATOM     18  H11 MMA d          -8.323 -19.478  -3.695  0.00  0.00     0.210 HD
ENDBRANCH   2  17
BRANCH   3  19
ATOM     19  O3  MMA d          -7.779 -19.246  -6.851  0.00  0.00    -0.390 OA
ATOM     20  H12 MMA d          -7.889 -20.186  -6.944  0.00  0.00     0.210 HD
ENDBRANCH   3  19
BRANCH   5  21
ATOM     21  C6  MMA d          -5.973 -15.922  -3.685  0.00  0.00     0.043 C 
ATOM     22  H6  MMA d          -5.298 -15.844  -2.819  0.00  0.00     0.078 H 
ATOM     23  H7  MMA d          -6.999 -15.677  -3.373  0.00  0.00     0.078 H 
BRANCH  21  24
ATOM     24  O6  MMA d          -5.543 -15.023  -4.735  0.00  0.00    -0.398 OA
ATOM     25  H14 MMA d          -4.655 -14.736  -4.559  0.00  0.00     0.209 HD
ENDBRANCH  21  24
ENDBRANCH   5  21
BRANCH   4  26
ATOM     26  O4  MMA d          -7.005 -16.600  -6.374  0.00  0.00    -0.390 OA
ATOM     27  H13 MMA d          -7.026 -17.039  -7.216  0.00  0.00     0.210 HD
ENDBRANCH   4  26
TORSDOF 7
ENDMDL
MODEL 9
REMARK VINA RESULT:      -3.5      1.604      4.168
REMARK  7 active torsions:
REMARK  status: ('A' for Active; 'I' for Inactive)
REMARK    1  A    between atoms: C1_1  and  O1_8 
REMARK    2  A    between atoms: C2_2  and  O2_9 
REMARK    3  A    between atoms: C3_3  and  O3_10 
REMARK    4  A    between atoms: C4_4  and  O4_11 
REMARK    5  A    between atoms: C5_5  and  C6_6 
REMARK    6  A    between atoms: C6_6  and  O6_13 
REMARK    7  A    between atoms: O1_8  and  C7_7 
ROOT
ATOM      1  C1  MMA d          -5.327 -15.998  -5.202  0.00  0.00     0.158 C 
ATOM      2  C2  MMA d          -6.799 -16.262  -5.563  0.00  0.00     0.110 C 
ATOM      3  C3  MMA d          -7.103 -17.761  -5.599  0.00  0.00     0.092 C 
ATOM      4  C4  MMA d          -6.094 -18.493  -6.483  0.00  0.00     0.090 C 
ATOM      5  C5  MMA d          -4.715 -18.222  -5.891  0.00  0.00     0.089 C 
ATOM      6  O5  MMA d          -4.452 -16.809  -5.993  0.00  0.00    -0.349 OA
ATOM      7  H1  MMA d          -5.090 -14.935  -5.360  0.00  0.00     0.133 H 
ATOM      8  H2  MMA d          -7.441 -15.783  -4.810  0.00  0.00     0.094 H 
ATOM      9  H3  MMA d          -7.075 -18.169  -4.578  0.00  0.00     0.091 H 
ATOM     10  H4  MMA d          -6.131 -18.082  -7.502  0.00  0.00     0.091 H 
ATOM     11  H5  MMA d          -4.727 -18.513  -4.830  0.00  0.00     0.090 H 
ENDROOT
BRANCH   1  12
ATOM     12  O1  MMA d          -5.150 -16.347  -3.826  0.00  0.00    -0.363 OA
BRANCH  12  13
ATOM     13  C7  MMA d          -3.755 -16.479  -3.485  0.00  0.00     0.007 C 
ATOM     14  H8  MMA d          -3.154 -16.521  -4.405  0.00  0.00     0.066 H 
ATOM     15  H9  MMA d          -3.605 -17.404  -2.908  0.00  0.00     0.066 H 
ATOM     16  H10 MMA d          -3.441 -15.614  -2.881  0.00  0.00     0.066 H 
ENDBRANCH  12  13
ENDBRANCH   1  12
BRANCH   2  17
ATOM     17  O2  MMA d          -7.082 -15.702  -6.866  0.00  0.00    -0.388 OA
ATOM     18  H11 MMA d          -7.844 -16.133  -7.236  0.00  0.00     0.210 HD
ENDBRANCH   2  17
BRANCH   3  19
ATOM     19  O3  MMA d          -8.405 -17.968  -6.184  0.00  0.00    -0.390 OA
ATOM     20  H12 MMA d          -8.481 -18.869  -6.475  0.00  0.00     0.210 HD
ENDBRANCH   3  19
BRANCH   5  21
ATOM     21  C6  MMA d          -3.599 -19.001  -6.591  0.00  0.00     0.043 C 
ATOM     22  H6  MMA d          -3.287 -18.477  -7.507  0.00  0.00     0.078 H 
ATOM     23  H7  MMA d          -3.947 -20.012  -6.849  0.00  0.00     0.078 H 
BRANCH  21  24
ATOM     24  O6  MMA d          -2.494 -19.077  -5.659  0.00  0.00    -0.398 OA
ATOM     25  H14 MMA d          -1.760 -18.579  -5.999  0.00  0.00     0.209 HD
ENDBRANCH  21  24
ENDBRANCH   5  21
BRANCH   4  26
ATOM     26  O4  MMA d          -6.417 -19.903  -6.551  0.00  0.00    -0.390 OA
ATOM     27  H13 MMA d          -6.934 -20.144  -5.791  0.00  0.00     0.210 HD
ENDBRANCH   4  26
TORSDOF 7
ENDMDL
