REMARK  10 active torsions:
REMARK  status: ('A' for Active; 'I' for Inactive)
REMARK    1  A    between atoms: C1_1  and  C2_2 
REMARK    2  A    between atoms: C4_4  and  O4_15 
REMARK    3  A    between atoms: C5_5  and  N5_12 
REMARK    4  A    between atoms: C6_6  and  C7_7 
REMARK    5  A    between atoms: C7_7  and  O7_17 
REMARK    6  A    between atoms: C7_7  and  C8_8 
REMARK    7  A    between atoms: C8_8  and  O8_18 
REMARK    8  A    between atoms: C8_8  and  C9_9 
REMARK    9  A    between atoms: C9_9  and  O9_19 
REMARK       I    between atoms: N5_12  and  C10_10 
REMARK   10  A    between atoms: C10_10  and  C11_11 
ROOT
ATOM      1  C2  DAN d          24.214  18.827  63.999  0.00  0.00     0.144 C 
ATOM      2  C3  DAN d          23.603  17.661  63.622  0.00  0.00    -0.035 C 
ATOM      3  C4  DAN d          24.254  16.626  62.651  0.00  0.00     0.076 C 
ATOM      4  C5  DAN d          25.779  16.763  62.641  0.00  0.00     0.068 C 
ATOM      5  C6  DAN d          26.159  18.285  62.525  0.00  0.00     0.094 C 
ATOM      6  O6  DAN d          25.533  19.052  63.617  0.00  0.00    -0.335 OA
ATOM      7  H1  DAN d          22.613  17.445  64.020  0.00  0.00     0.085 H 
ATOM      8  H2  DAN d          23.874  16.811  61.636  0.00  0.00     0.092 H 
ATOM      9  H3  DAN d          26.194  16.353  63.574  0.00  0.00     0.081 H 
ATOM     10  H4  DAN d          25.808  18.666  61.555  0.00  0.00     0.091 H 
ENDROOT
BRANCH   5  11
ATOM     11  C7  DAN d          27.708  18.504  62.643  0.00  0.00     0.089 C 
ATOM     12  H5  DAN d          28.197  17.920  61.849  0.00  0.00     0.091 H 
BRANCH  11  13
ATOM     13  O7  DAN d          28.237  18.102  63.905  0.00  0.00    -0.390 OA
ATOM     14  H14 DAN d          27.822  18.605  64.596  0.00  0.00     0.210 HD
ENDBRANCH  11  13
BRANCH  11  15
ATOM     15  C8  DAN d          28.051  19.944  62.481  0.00  0.00     0.083 C 
ATOM     16  H6  DAN d          27.428  20.540  63.164  0.00  0.00     0.090 H 
BRANCH  15  17
ATOM     17  O8  DAN d          27.774  20.310  61.171  0.00  0.00    -0.391 OA
ATOM     18  H15 DAN d          28.295  19.781  60.579  0.00  0.00     0.210 HD
ENDBRANCH  15  17
BRANCH  15  19
ATOM     19  C9  DAN d          29.530  20.211  62.808  0.00  0.00     0.043 C 
ATOM     20  H7  DAN d          29.740  19.859  63.829  0.00  0.00     0.078 H 
ATOM     21  H8  DAN d          29.721  21.293  62.746  0.00  0.00     0.078 H 
BRANCH  19  22
ATOM     22  O9  DAN d          30.397  19.533  61.895  0.00  0.00    -0.398 OA
ATOM     23  H16 DAN d          30.224  19.836  61.011  0.00  0.00     0.209 HD
ENDBRANCH  19  22
ENDBRANCH  15  19
ENDBRANCH  11  15
ENDBRANCH   5  11
BRANCH   4  24
ATOM     24  N5  DAN d          26.317  16.011  61.492  0.00  0.00    -0.351 N 
ATOM     25  C10 DAN d          27.081  14.933  61.647  0.00  0.00     0.214 C 
ATOM     26  O10 DAN d          27.399  14.499  62.749  0.00  0.00    -0.274 OA
ATOM     27  H12 DAN d          26.101  16.322  60.566  0.00  0.00     0.163 HD
BRANCH  25  28
ATOM     28  C11 DAN d          27.584  14.206  60.419  0.00  0.00    -0.003 C 
ATOM     29  H9  DAN d          28.196  13.345  60.727  0.00  0.00     0.040 H 
ATOM     30  H10 DAN d          28.194  14.891  59.812  0.00  0.00     0.040 H 
ATOM     31  H11 DAN d          26.728  13.853  59.825  0.00  0.00     0.040 H 
ENDBRANCH  25  28
ENDBRANCH   4  24
BRANCH   3  32
ATOM     32  O4  DAN d          23.919  15.318  63.033  0.00  0.00    -0.389 OA
ATOM     33  H13 DAN d          24.322  14.701  62.433  0.00  0.00     0.210 HD
ENDBRANCH   3  32
BRANCH   1  34
ATOM     34  C1  DAN d          23.590  19.817  64.751  0.00  0.00     0.233 C 
ATOM     35  O1B DAN d          22.453  19.628  65.226  0.00  0.00    -0.642 OA
ATOM     36  O1A DAN d          24.194  20.892  64.942  0.00  0.00    -0.642 OA
ENDBRANCH   1  34
TORSDOF 10
