MODEL 1
REMARK VINA RESULT:      -8.9      0.000      0.000
REMARK  7 active torsions:
REMARK  status: ('A' for Active; 'I' for Inactive)
REMARK    1  A    between atoms: C8_6  and  C7_7 
REMARK       I    between atoms: C7_7  and  N1_9 
REMARK    2  A    between atoms: N1_9  and  C1_10 
REMARK    3  A    between atoms: C5_12  and  C6_13 
REMARK    4  A    between atoms: C6_13  and  O6_14 
REMARK    5  A    between atoms: C4_15  and  O4_16 
REMARK    6  A    between atoms: C3_17  and  O3_18 
REMARK    7  A    between atoms: C2_19  and  O2_20 
ROOT
ATOM      1  C1  OAK d          33.109  23.271  28.676  0.00  0.00     0.134 C 
ATOM      2  O5  OAK d          33.587  22.654  27.430  0.00  0.00    -0.354 OA
ATOM      3  C5  OAK d          32.522  22.333  26.530  0.00  0.00     0.088 C 
ATOM      4  C4  OAK d          31.769  23.634  26.154  0.00  0.00     0.089 C 
ATOM      5  C3  OAK d          31.241  24.367  27.399  0.00  0.00     0.091 C 
ATOM      6  C2  OAK d          32.373  24.596  28.415  0.00  0.00     0.104 C 
ATOM      7  H7  OAK d          32.415  22.574  29.167  0.00  0.00     0.122 H 
ATOM      8  H8  OAK d          31.814  21.644  27.013  0.00  0.00     0.090 H 
ATOM      9  H12 OAK d          32.462  24.301  25.620  0.00  0.00     0.091 H 
ATOM     10  H14 OAK d          30.461  23.751  27.869  0.00  0.00     0.091 H 
ATOM     11  H16 OAK d          33.086  25.316  27.988  0.00  0.00     0.093 H 
ENDROOT
BRANCH   1  12
ATOM     12  N1  OAK d          34.263  23.523  29.578  0.00  0.00    -0.328 N 
ATOM     13  C7  OAK d          35.384  24.042  29.082  0.00  0.00     0.253 C 
ATOM     14  O7  OAK d          35.539  24.339  27.899  0.00  0.00    -0.268 OA
ATOM     15  H6  OAK d          34.198  23.306  30.552  0.00  0.00     0.165 HD
BRANCH  13  16
ATOM     16  C8  OAK d          36.514  24.270  30.093  0.00  0.00     0.032 A 
ATOM     17  C9  OAK d          36.645  25.499  30.732  0.00  0.00    -0.068 A 
ATOM     18  C10 OAK d          37.675  25.712  31.646  0.00  0.00    -0.082 A 
ATOM     19  H1  OAK d          35.941  26.296  30.518  0.00  0.00     0.085 H 
ATOM     20  C11 OAK d          38.582  24.694  31.927  0.00  0.00    -0.083 A 
ATOM     21  H2  OAK d          37.770  26.673  32.139  0.00  0.00     0.083 H 
ATOM     22  C12 OAK d          38.456  23.459  31.287  0.00  0.00    -0.082 A 
ATOM     23  H3  OAK d          39.382  24.859  32.639  0.00  0.00     0.083 H 
ATOM     24  C13 OAK d          37.421  23.246  30.369  0.00  0.00    -0.068 A 
ATOM     25  H4  OAK d          39.161  22.664  31.501  0.00  0.00     0.083 H 
ATOM     26  H5  OAK d          37.324  22.288  29.873  0.00  0.00     0.085 H 
ENDBRANCH  13  16
ENDBRANCH   1  12
BRANCH   6  27
ATOM     27  O2  OAK d          31.863  25.139  29.645  0.00  0.00    -0.389 OA
ATOM     28  H17 OAK d          31.304  24.497  30.065  0.00  0.00     0.210 HD
ENDBRANCH   6  27
BRANCH   3  29
ATOM     29  C6  OAK d          33.172  21.628  25.326  0.00  0.00     0.043 C 
ATOM     30  H9  OAK d          32.617  20.707  25.098  0.00  0.00     0.078 H 
ATOM     31  H10 OAK d          34.216  21.376  25.568  0.00  0.00     0.078 H 
BRANCH  29  32
ATOM     32  O6  OAK d          33.145  22.492  24.188  0.00  0.00    -0.398 OA
ATOM     33  H11 OAK d          32.419  23.100  24.270  0.00  0.00     0.209 HD
ENDBRANCH  29  32
ENDBRANCH   3  29
BRANCH   5  34
ATOM     34  O3  OAK d          30.678  25.622  27.017  0.00  0.00    -0.390 OA
ATOM     35  H15 OAK d          30.884  26.274  27.676  0.00  0.00     0.210 HD
ENDBRANCH   5  34
BRANCH   4  36
ATOM     36  O4  OAK d          30.680  23.313  25.302  0.00  0.00    -0.390 OA
ATOM     37  H13 OAK d          30.115  24.072  25.212  0.00  0.00     0.210 HD
ENDBRANCH   4  36
TORSDOF 7
ENDMDL
MODEL 2
REMARK VINA RESULT:      -8.8      1.884      2.818
REMARK  7 active torsions:
REMARK  status: ('A' for Active; 'I' for Inactive)
REMARK    1  A    between atoms: C8_6  and  C7_7 
REMARK       I    between atoms: C7_7  and  N1_9 
REMARK    2  A    between atoms: N1_9  and  C1_10 
REMARK    3  A    between atoms: C5_12  and  C6_13 
REMARK    4  A    between atoms: C6_13  and  O6_14 
REMARK    5  A    between atoms: C4_15  and  O4_16 
REMARK    6  A    between atoms: C3_17  and  O3_18 
REMARK    7  A    between atoms: C2_19  and  O2_20 
ROOT
ATOM      1  C1  OAK d          32.826  23.068  27.875  0.00  0.00     0.134 C 
ATOM      2  O5  OAK d          32.872  21.656  28.282  0.00  0.00    -0.354 OA
ATOM      3  C5  OAK d          32.065  20.817  27.450  0.00  0.00     0.088 C 
ATOM      4  C4  OAK d          32.580  20.905  25.992  0.00  0.00     0.089 C 
ATOM      5  C3  OAK d          32.588  22.354  25.476  0.00  0.00     0.091 C 
ATOM      6  C2  OAK d          33.354  23.271  26.444  0.00  0.00     0.104 C 
ATOM      7  H7  OAK d          31.782  23.410  27.916  0.00  0.00     0.122 H 
ATOM      8  H8  OAK d          31.018  21.155  27.474  0.00  0.00     0.090 H 
ATOM      9  H12 OAK d          33.607  20.513  25.956  0.00  0.00     0.091 H 
ATOM     10  H14 OAK d          31.550  22.708  25.398  0.00  0.00     0.091 H 
ATOM     11  H16 OAK d          34.418  22.994  26.419  0.00  0.00     0.093 H 
ENDROOT
BRANCH   1  12
ATOM     12  N1  OAK d          33.642  23.880  28.815  0.00  0.00    -0.328 N 
ATOM     13  C7  OAK d          34.713  23.340  29.393  0.00  0.00     0.253 C 
ATOM     14  O7  OAK d          35.090  22.187  29.197  0.00  0.00    -0.268 OA
ATOM     15  H6  OAK d          33.388  24.827  29.013  0.00  0.00     0.165 HD
BRANCH  13  16
ATOM     16  C8  OAK d          35.491  24.261  30.340  0.00  0.00     0.032 A 
ATOM     17  C9  OAK d          36.762  24.709  29.996  0.00  0.00    -0.068 A 
ATOM     18  C10 OAK d          37.474  25.539  30.859  0.00  0.00    -0.082 A 
ATOM     19  H1  OAK d          37.201  24.410  29.051  0.00  0.00     0.085 H 
ATOM     20  C11 OAK d          36.917  25.928  32.074  0.00  0.00    -0.083 A 
ATOM     21  H2  OAK d          38.465  25.884  30.583  0.00  0.00     0.083 H 
ATOM     22  C12 OAK d          35.642  25.480  32.425  0.00  0.00    -0.082 A 
ATOM     23  H3  OAK d          37.471  26.575  32.744  0.00  0.00     0.083 H 
ATOM     24  C13 OAK d          34.928  24.645  31.557  0.00  0.00    -0.068 A 
ATOM     25  H4  OAK d          35.205  25.779  33.371  0.00  0.00     0.083 H 
ATOM     26  H5  OAK d          33.938  24.298  31.831  0.00  0.00     0.085 H 
ENDBRANCH  13  16
ENDBRANCH   1  12
BRANCH   6  27
ATOM     27  O2  OAK d          33.236  24.650  26.055  0.00  0.00    -0.389 OA
ATOM     28  H17 OAK d          33.457  25.205  26.793  0.00  0.00     0.210 HD
ENDBRANCH   6  27
BRANCH   3  29
ATOM     29  C6  OAK d          32.152  19.402  28.050  0.00  0.00     0.043 C 
ATOM     30  H9  OAK d          31.167  18.917  27.988  0.00  0.00     0.078 H 
ATOM     31  H10 OAK d          32.461  19.469  29.104  0.00  0.00     0.078 H 
BRANCH  29  32
ATOM     32  O6  OAK d          33.109  18.628  27.324  0.00  0.00    -0.398 OA
ATOM     33  H11 OAK d          33.653  18.143  27.934  0.00  0.00     0.209 HD
ENDBRANCH  29  32
ENDBRANCH   3  29
BRANCH   5  34
ATOM     34  O3  OAK d          33.195  22.403  24.185  0.00  0.00    -0.390 OA
ATOM     35  H15 OAK d          32.524  22.322  23.518  0.00  0.00     0.210 HD
ENDBRANCH   5  34
BRANCH   4  36
ATOM     36  O4  OAK d          31.750  20.113  25.154  0.00  0.00    -0.390 OA
ATOM     37  H13 OAK d          30.928  20.566  25.006  0.00  0.00     0.210 HD
ENDBRANCH   4  36
TORSDOF 7
ENDMDL
MODEL 3
REMARK VINA RESULT:      -8.2      2.493      6.599
REMARK  7 active torsions:
REMARK  status: ('A' for Active; 'I' for Inactive)
REMARK    1  A    between atoms: C8_6  and  C7_7 
REMARK       I    between atoms: C7_7  and  N1_9 
REMARK    2  A    between atoms: N1_9  and  C1_10 
REMARK    3  A    between atoms: C5_12  and  C6_13 
REMARK    4  A    between atoms: C6_13  and  O6_14 
REMARK    5  A    between atoms: C4_15  and  O4_16 
REMARK    6  A    between atoms: C3_17  and  O3_18 
REMARK    7  A    between atoms: C2_19  and  O2_20 
ROOT
ATOM      1  C1  OAK d          35.089  24.058  29.611  0.00  0.00     0.134 C 
ATOM      2  O5  OAK d          36.364  23.501  30.086  0.00  0.00    -0.354 OA
ATOM      3  C5  OAK d          37.283  24.512  30.509  0.00  0.00     0.088 C 
ATOM      4  C4  OAK d          36.653  25.311  31.677  0.00  0.00     0.089 C 
ATOM      5  C3  OAK d          35.299  25.923  31.284  0.00  0.00     0.091 C 
ATOM      6  C2  OAK d          34.361  24.847  30.713  0.00  0.00     0.104 C 
ATOM      7  H7  OAK d          35.296  24.737  28.772  0.00  0.00     0.122 H 
ATOM      8  H8  OAK d          37.491  25.205  29.681  0.00  0.00     0.090 H 
ATOM      9  H12 OAK d          36.499  24.630  32.528  0.00  0.00     0.091 H 
ATOM     10  H14 OAK d          35.467  26.691  30.515  0.00  0.00     0.091 H 
ATOM     11  H16 OAK d          34.093  24.152  31.523  0.00  0.00     0.093 H 
ENDROOT
BRANCH   1  12
ATOM     12  N1  OAK d          34.212  22.955  29.140  0.00  0.00    -0.328 N 
ATOM     13  C7  OAK d          33.509  23.106  28.020  0.00  0.00     0.253 C 
ATOM     14  O7  OAK d          33.537  24.119  27.324  0.00  0.00    -0.268 OA
ATOM     15  H6  OAK d          34.150  22.104  29.661  0.00  0.00     0.165 HD
BRANCH  13  16
ATOM     16  C8  OAK d          32.640  21.910  27.615  0.00  0.00     0.032 A 
ATOM     17  C9  OAK d          31.552  22.090  26.766  0.00  0.00    -0.068 A 
ATOM     18  C10 OAK d          30.756  21.005  26.402  0.00  0.00    -0.082 A 
ATOM     19  H1  OAK d          31.322  23.078  26.386  0.00  0.00     0.085 H 
ATOM     20  C11 OAK d          31.045  19.732  26.886  0.00  0.00    -0.083 A 
ATOM     21  H2  OAK d          29.910  21.153  25.741  0.00  0.00     0.083 H 
ATOM     22  C12 OAK d          32.135  19.547  27.739  0.00  0.00    -0.082 A 
ATOM     23  H3  OAK d          30.426  18.888  26.601  0.00  0.00     0.083 H 
ATOM     24  C13 OAK d          32.934  20.637  28.104  0.00  0.00    -0.068 A 
ATOM     25  H4  OAK d          32.362  18.557  28.119  0.00  0.00     0.083 H 
ATOM     26  H5  OAK d          33.780  20.492  28.766  0.00  0.00     0.085 H 
ENDBRANCH  13  16
ENDBRANCH   1  12
BRANCH   6  27
ATOM     27  O2  OAK d          33.152  25.431  30.199  0.00  0.00    -0.389 OA
ATOM     28  H17 OAK d          32.617  24.752  29.805  0.00  0.00     0.210 HD
ENDBRANCH   6  27
BRANCH   3  29
ATOM     29  C6  OAK d          38.583  23.780  30.894  0.00  0.00     0.043 C 
ATOM     30  H9  OAK d          39.446  24.416  30.648  0.00  0.00     0.078 H 
ATOM     31  H10 OAK d          38.651  22.836  30.333  0.00  0.00     0.078 H 
BRANCH  29  32
ATOM     32  O6  OAK d          38.583  23.501  32.296  0.00  0.00    -0.398 OA
ATOM     33  H11 OAK d          38.805  22.587  32.435  0.00  0.00     0.209 HD
ENDBRANCH  29  32
ENDBRANCH   3  29
BRANCH   5  34
ATOM     34  O3  OAK d          34.694  26.531  32.425  0.00  0.00    -0.390 OA
ATOM     35  H15 OAK d          35.052  26.144  33.215  0.00  0.00     0.210 HD
ENDBRANCH   5  34
BRANCH   4  36
ATOM     36  O4  OAK d          37.542  26.349  32.067  0.00  0.00    -0.390 OA
ATOM     37  H13 OAK d          37.047  27.143  32.231  0.00  0.00     0.210 HD
ENDBRANCH   4  36
TORSDOF 7
ENDMDL
MODEL 4
REMARK VINA RESULT:      -7.5      1.481      2.893
REMARK  7 active torsions:
REMARK  status: ('A' for Active; 'I' for Inactive)
REMARK    1  A    between atoms: C8_6  and  C7_7 
REMARK       I    between atoms: C7_7  and  N1_9 
REMARK    2  A    between atoms: N1_9  and  C1_10 
REMARK    3  A    between atoms: C5_12  and  C6_13 
REMARK    4  A    between atoms: C6_13  and  O6_14 
REMARK    5  A    between atoms: C4_15  and  O4_16 
REMARK    6  A    between atoms: C3_17  and  O3_18 
REMARK    7  A    between atoms: C2_19  and  O2_20 
ROOT
ATOM      1  C1  OAK d          34.202  23.331  27.419  0.00  0.00     0.134 C 
ATOM      2  O5  OAK d          33.244  24.437  27.553  0.00  0.00    -0.354 OA
ATOM      3  C5  OAK d          32.151  24.335  26.635  0.00  0.00     0.088 C 
ATOM      4  C4  OAK d          31.387  23.014  26.904  0.00  0.00     0.089 C 
ATOM      5  C3  OAK d          32.312  21.790  26.803  0.00  0.00     0.091 C 
ATOM      6  C2  OAK d          33.547  21.967  27.702  0.00  0.00     0.104 C 
ATOM      7  H7  OAK d          34.590  23.327  26.390  0.00  0.00     0.122 H 
ATOM      8  H8  OAK d          32.527  24.320  25.601  0.00  0.00     0.090 H 
ATOM      9  H12 OAK d          30.962  23.053  27.918  0.00  0.00     0.091 H 
ATOM     10  H14 OAK d          32.645  21.681  25.761  0.00  0.00     0.091 H 
ATOM     11  H16 OAK d          33.221  21.945  28.752  0.00  0.00     0.093 H 
ENDROOT
BRANCH   1  12
ATOM     12  N1  OAK d          35.331  23.535  28.364  0.00  0.00    -0.328 N 
ATOM     13  C7  OAK d          35.134  24.228  29.483  0.00  0.00     0.253 C 
ATOM     14  O7  OAK d          34.055  24.721  29.804  0.00  0.00    -0.268 OA
ATOM     15  H6  OAK d          36.233  23.155  28.160  0.00  0.00     0.165 HD
BRANCH  13  16
ATOM     16  C8  OAK d          36.358  24.378  30.394  0.00  0.00     0.032 A 
ATOM     17  C9  OAK d          37.141  23.271  30.705  0.00  0.00    -0.068 A 
ATOM     18  C10 OAK d          38.250  23.404  31.539  0.00  0.00    -0.082 A 
ATOM     19  H1  OAK d          36.888  22.300  30.296  0.00  0.00     0.085 H 
ATOM     20  C11 OAK d          38.582  24.649  32.067  0.00  0.00    -0.083 A 
ATOM     21  H2  OAK d          38.855  22.537  31.776  0.00  0.00     0.083 H 
ATOM     22  C12 OAK d          37.798  25.763  31.760  0.00  0.00    -0.082 A 
ATOM     23  H3  OAK d          39.446  24.753  32.714  0.00  0.00     0.083 H 
ATOM     24  C13 OAK d          36.685  25.628  30.922  0.00  0.00    -0.068 A 
ATOM     25  H4  OAK d          38.053  26.733  32.170  0.00  0.00     0.083 H 
ATOM     26  H5  OAK d          36.077  26.493  30.684  0.00  0.00     0.085 H 
ENDBRANCH  13  16
ENDBRANCH   1  12
BRANCH   6  27
ATOM     27  O2  OAK d          34.493  20.904  27.499  0.00  0.00    -0.389 OA
ATOM     28  H17 OAK d          35.362  21.271  27.387  0.00  0.00     0.210 HD
ENDBRANCH   6  27
BRANCH   3  29
ATOM     29  C6  OAK d          31.293  25.596  26.843  0.00  0.00     0.043 C 
ATOM     30  H9  OAK d          30.419  25.346  27.461  0.00  0.00     0.078 H 
ATOM     31  H10 OAK d          30.955  25.974  25.866  0.00  0.00     0.078 H 
BRANCH  29  32
ATOM     32  O6  OAK d          32.066  26.604  27.499  0.00  0.00    -0.398 OA
ATOM     33  H11 OAK d          31.534  27.028  28.163  0.00  0.00     0.209 HD
ENDBRANCH  29  32
ENDBRANCH   3  29
BRANCH   5  34
ATOM     34  O3  OAK d          31.601  20.615  27.191  0.00  0.00    -0.390 OA
ATOM     35  H15 OAK d          30.754  20.861  27.544  0.00  0.00     0.210 HD
ENDBRANCH   5  34
BRANCH   4  36
ATOM     36  O4  OAK d          30.333  22.884  25.961  0.00  0.00    -0.390 OA
ATOM     37  H13 OAK d          30.163  23.728  25.559  0.00  0.00     0.210 HD
ENDBRANCH   4  36
TORSDOF 7
ENDMDL
MODEL 5
REMARK VINA RESULT:      -7.2      1.904      2.969
REMARK  7 active torsions:
REMARK  status: ('A' for Active; 'I' for Inactive)
REMARK    1  A    between atoms: C8_6  and  C7_7 
REMARK       I    between atoms: C7_7  and  N1_9 
REMARK    2  A    between atoms: N1_9  and  C1_10 
REMARK    3  A    between atoms: C5_12  and  C6_13 
REMARK    4  A    between atoms: C6_13  and  O6_14 
REMARK    5  A    between atoms: C4_15  and  O4_16 
REMARK    6  A    between atoms: C3_17  and  O3_18 
REMARK    7  A    between atoms: C2_19  and  O2_20 
ROOT
ATOM      1  C1  OAK d          33.279  22.197  27.844  0.00  0.00     0.134 C 
ATOM      2  O5  OAK d          32.269  23.089  27.259  0.00  0.00    -0.354 OA
ATOM      3  C5  OAK d          31.634  22.523  26.109  0.00  0.00     0.088 C 
ATOM      4  C4  OAK d          30.922  21.209  26.520  0.00  0.00     0.089 C 
ATOM      5  C3  OAK d          31.898  20.210  27.163  0.00  0.00     0.091 C 
ATOM      6  C2  OAK d          32.666  20.869  28.321  0.00  0.00     0.104 C 
ATOM      7  H7  OAK d          34.038  21.979  27.080  0.00  0.00     0.122 H 
ATOM      8  H8  OAK d          32.384  22.290  25.339  0.00  0.00     0.090 H 
ATOM      9  H12 OAK d          30.132  21.449  27.247  0.00  0.00     0.091 H 
ATOM     10  H14 OAK d          32.619  19.878  26.402  0.00  0.00     0.091 H 
ATOM     11  H16 OAK d          31.957  21.081  29.135  0.00  0.00     0.093 H 
ENDROOT
BRANCH   1  12
ATOM     12  N1  OAK d          33.930  22.874  28.996  0.00  0.00    -0.328 N 
ATOM     13  C7  OAK d          34.761  23.890  28.778  0.00  0.00     0.253 C 
ATOM     14  O7  OAK d          35.035  24.325  27.661  0.00  0.00    -0.268 OA
ATOM     15  H6  OAK d          33.744  22.568  29.930  0.00  0.00     0.165 HD
BRANCH  13  16
ATOM     16  C8  OAK d          35.376  24.526  30.030  0.00  0.00     0.032 A 
ATOM     17  C9  OAK d          34.571  24.865  31.112  0.00  0.00    -0.068 A 
ATOM     18  C10 OAK d          35.127  25.450  32.248  0.00  0.00    -0.082 A 
ATOM     19  H1  OAK d          33.505  24.675  31.071  0.00  0.00     0.085 H 
ATOM     20  C11 OAK d          36.495  25.698  32.309  0.00  0.00    -0.083 A 
ATOM     21  H2  OAK d          34.492  25.712  33.087  0.00  0.00     0.083 H 
ATOM     22  C12 OAK d          37.308  25.360  31.225  0.00  0.00    -0.082 A 
ATOM     23  H3  OAK d          36.928  26.151  33.194  0.00  0.00     0.083 H 
ATOM     24  C13 OAK d          36.749  24.773  30.084  0.00  0.00    -0.068 A 
ATOM     25  H4  OAK d          38.374  25.553  31.268  0.00  0.00     0.083 H 
ATOM     26  H5  OAK d          37.380  24.512  29.243  0.00  0.00     0.085 H 
ENDBRANCH  13  16
ENDBRANCH   1  12
BRANCH   6  27
ATOM     27  O2  OAK d          33.689  19.996  28.828  0.00  0.00    -0.389 OA
ATOM     28  H17 OAK d          34.490  20.489  28.957  0.00  0.00     0.210 HD
ENDBRANCH   6  27
BRANCH   3  29
ATOM     29  C6  OAK d          30.674  23.600  25.570  0.00  0.00     0.043 C 
ATOM     30  H9  OAK d          29.657  23.399  25.935  0.00  0.00     0.078 H 
ATOM     31  H10 OAK d          30.680  23.579  24.470  0.00  0.00     0.078 H 
BRANCH  29  32
ATOM     32  O6  OAK d          31.094  24.890  26.022  0.00  0.00    -0.398 OA
ATOM     33  H11 OAK d          31.351  25.418  25.275  0.00  0.00     0.209 HD
ENDBRANCH  29  32
ENDBRANCH   3  29
BRANCH   5  34
ATOM     34  O3  OAK d          31.177  19.077  27.648  0.00  0.00    -0.390 OA
ATOM     35  H15 OAK d          30.316  19.351  27.938  0.00  0.00     0.210 HD
ENDBRANCH   5  34
BRANCH   4  36
ATOM     36  O4  OAK d          30.334  20.617  25.371  0.00  0.00    -0.390 OA
ATOM     37  H13 OAK d          30.205  19.688  25.525  0.00  0.00     0.210 HD
ENDBRANCH   4  36
TORSDOF 7
ENDMDL
MODEL 6
REMARK VINA RESULT:      -6.4      2.401      6.481
REMARK  7 active torsions:
REMARK  status: ('A' for Active; 'I' for Inactive)
REMARK    1  A    between atoms: C8_6  and  C7_7 
REMARK       I    between atoms: C7_7  and  N1_9 
REMARK    2  A    between atoms: N1_9  and  C1_10 
REMARK    3  A    between atoms: C5_12  and  C6_13 
REMARK    4  A    between atoms: C6_13  and  O6_14 
REMARK    5  A    between atoms: C4_15  and  O4_16 
REMARK    6  A    between atoms: C3_17  and  O3_18 
REMARK    7  A    between atoms: C2_19  and  O2_20 
ROOT
ATOM      1  C1  OAK d          34.933  24.386  28.972  0.00  0.00     0.134 C 
ATOM      2  O5  OAK d          36.105  23.631  29.438  0.00  0.00    -0.354 OA
ATOM      3  C5  OAK d          36.935  24.390  30.322  0.00  0.00     0.088 C 
ATOM      4  C4  OAK d          36.108  24.795  31.568  0.00  0.00     0.089 C 
ATOM      5  C3  OAK d          34.843  25.580  31.183  0.00  0.00     0.091 C 
ATOM      6  C2  OAK d          34.022  24.808  30.137  0.00  0.00     0.104 C 
ATOM      7  H7  OAK d          35.283  25.291  28.455  0.00  0.00     0.122 H 
ATOM      8  H8  OAK d          37.284  25.305  29.820  0.00  0.00     0.090 H 
ATOM      9  H12 OAK d          35.807  23.882  32.103  0.00  0.00     0.091 H 
ATOM     10  H14 OAK d          35.143  26.548  30.755  0.00  0.00     0.091 H 
ATOM     11  H16 OAK d          33.616  23.902  30.612  0.00  0.00     0.093 H 
ENDROOT
BRANCH   1  12
ATOM     12  N1  OAK d          34.153  23.553  28.020  0.00  0.00    -0.328 N 
ATOM     13  C7  OAK d          33.851  22.297  28.340  0.00  0.00     0.253 C 
ATOM     14  O7  OAK d          34.174  21.761  29.398  0.00  0.00    -0.268 OA
ATOM     15  H6  OAK d          33.858  23.934  27.144  0.00  0.00     0.165 HD
BRANCH  13  16
ATOM     16  C8  OAK d          33.039  21.523  27.295  0.00  0.00     0.032 A 
ATOM     17  C9  OAK d          31.659  21.682  27.220  0.00  0.00    -0.068 A 
ATOM     18  C10 OAK d          30.918  20.974  26.276  0.00  0.00    -0.082 A 
ATOM     19  H1  OAK d          31.157  22.360  27.900  0.00  0.00     0.085 H 
ATOM     20  C11 OAK d          31.555  20.101  25.398  0.00  0.00    -0.083 A 
ATOM     21  H2  OAK d          29.843  21.103  26.225  0.00  0.00     0.083 H 
ATOM     22  C12 OAK d          32.941  19.936  25.471  0.00  0.00    -0.082 A 
ATOM     23  H3  OAK d          30.980  19.551  24.663  0.00  0.00     0.083 H 
ATOM     24  C13 OAK d          33.684  20.648  26.420  0.00  0.00    -0.068 A 
ATOM     25  H4  OAK d          33.440  19.256  24.791  0.00  0.00     0.083 H 
ATOM     26  H5  OAK d          34.758  20.520  26.475  0.00  0.00     0.085 H 
ENDBRANCH  13  16
ENDBRANCH   1  12
BRANCH   6  27
ATOM     27  O2  OAK d          32.922  25.598  29.655  0.00  0.00    -0.389 OA
ATOM     28  H17 OAK d          33.012  25.725  28.718  0.00  0.00     0.210 HD
ENDBRANCH   6  27
BRANCH   3  29
ATOM     29  C6  OAK d          38.147  23.499  30.649  0.00  0.00     0.043 C 
ATOM     30  H9  OAK d          39.068  23.998  30.316  0.00  0.00     0.078 H 
ATOM     31  H10 OAK d          38.044  22.535  30.128  0.00  0.00     0.078 H 
BRANCH  29  32
ATOM     32  O6  OAK d          38.213  23.272  32.059  0.00  0.00    -0.398 OA
ATOM     33  H11 OAK d          37.965  24.066  32.518  0.00  0.00     0.209 HD
ENDBRANCH  29  32
ENDBRANCH   3  29
BRANCH   5  34
ATOM     34  O3  OAK d          34.047  25.811  32.345  0.00  0.00    -0.390 OA
ATOM     35  H15 OAK d          34.254  26.666  32.704  0.00  0.00     0.210 HD
ENDBRANCH   5  34
BRANCH   4  36
ATOM     36  O4  OAK d          36.913  25.593  32.424  0.00  0.00    -0.390 OA
ATOM     37  H13 OAK d          37.440  25.029  32.978  0.00  0.00     0.210 HD
ENDBRANCH   4  36
TORSDOF 7
ENDMDL
