MODEL 1
REMARK VINA RESULT:      -6.5      0.000      0.000
REMARK  9 active torsions:
REMARK  status: ('A' for Active; 'I' for Inactive)
REMARK    1  A    between atoms: C1_1  and  S1_12 
REMARK    2  A    between atoms: C2_2  and  O2_3 
REMARK    3  A    between atoms: C3_4  and  O3_5 
REMARK    4  A    between atoms: C4_6  and  O4_7 
REMARK    5  A    between atoms: C5_8  and  C6_10 
REMARK    6  A    between atoms: C6_10  and  O6_11 
REMARK    7  A    between atoms: S1_12  and  C1'_13 
REMARK    8  A    between atoms: C1'_13  and  C2'_14 
REMARK    9  A    between atoms: C1'_13  and  C3'_15 
ROOT
ATOM      1  C1  IPT d         -14.945 -27.749 -26.512  0.00  0.00     0.110 C 
ATOM      2  C2  IPT d         -13.872 -27.472 -25.454  0.00  0.00     0.096 C 
ATOM      3  C3  IPT d         -12.529 -27.099 -26.094  0.00  0.00     0.090 C 
ATOM      4  C4  IPT d         -12.152 -28.025 -27.259  0.00  0.00     0.089 C 
ATOM      5  C5  IPT d         -13.346 -28.164 -28.213  0.00  0.00     0.087 C 
ATOM      6  O5  IPT d         -14.446 -28.679 -27.471  0.00  0.00    -0.363 OA
ATOM      7  H1  IPT d         -15.202 -26.803 -27.010  0.00  0.00     0.104 H 
ATOM      8  H2  IPT d         -13.735 -28.372 -24.837  0.00  0.00     0.092 H 
ATOM      9  H4  IPT d         -12.618 -26.077 -26.490  0.00  0.00     0.091 H 
ATOM     10  H6  IPT d         -11.304 -27.592 -27.809  0.00  0.00     0.091 H 
ATOM     11  H8  IPT d         -13.591 -27.161 -28.591  0.00  0.00     0.090 H 
ENDROOT
BRANCH   1  12
ATOM     12  S1  IPT d         -16.407 -28.458 -25.818  0.00  0.00    -0.131 SA
BRANCH  12  13
ATOM     13  C1' IPT d         -17.785 -27.997 -26.835  0.00  0.00    -0.014 C 
ATOM     14  H12 IPT d         -17.678 -26.936 -27.104  0.00  0.00     0.055 H 
BRANCH  13  15
ATOM     15  C2' IPT d         -17.829 -28.816 -28.127  0.00  0.00    -0.065 C 
ATOM     16  H13 IPT d         -16.938 -29.459 -28.185  0.00  0.00     0.028 H 
ATOM     17  H14 IPT d         -17.847 -28.136 -28.992  0.00  0.00     0.028 H 
ATOM     18  H15 IPT d         -18.733 -29.442 -28.134  0.00  0.00     0.028 H 
ENDBRANCH  13  15
BRANCH  13  19
ATOM     19  C3' IPT d         -19.078 -28.172 -26.046  0.00  0.00    -0.065 C 
ATOM     20  H16 IPT d         -19.031 -27.568 -25.128  0.00  0.00     0.028 H 
ATOM     21  H17 IPT d         -19.206 -29.232 -25.781  0.00  0.00     0.028 H 
ATOM     22  H18 IPT d         -19.930 -27.841 -26.659  0.00  0.00     0.028 H 
ENDBRANCH  13  19
ENDBRANCH  12  13
ENDBRANCH   1  12
BRANCH   2  23
ATOM     23  O2  IPT d         -14.316 -26.392 -24.630  0.00  0.00    -0.389 OA
ATOM     24  H3  IPT d         -15.252 -26.469 -24.488  0.00  0.00     0.210 HD
ENDBRANCH   2  23
BRANCH   3  25
ATOM     25  O3  IPT d         -11.486 -27.114 -25.105  0.00  0.00    -0.390 OA
ATOM     26  H5  IPT d         -11.249 -28.013 -24.908  0.00  0.00     0.210 HD
ENDBRANCH   3  25
BRANCH   5  27
ATOM     27  C6  IPT d         -13.154 -29.085 -29.414  0.00  0.00     0.043 C 
ATOM     28  H9  IPT d         -13.751 -28.703 -30.256  0.00  0.00     0.078 H 
ATOM     29  H10 IPT d         -13.499 -30.095 -29.148  0.00  0.00     0.078 H 
BRANCH  27  30
ATOM     30  O6  IPT d         -11.779 -29.153 -29.812  0.00  0.00    -0.398 OA
ATOM     31  H11 IPT d         -11.251 -28.639 -29.213  0.00  0.00     0.209 HD
ENDBRANCH  27  30
ENDBRANCH   5  27
BRANCH   4  32
ATOM     32  O4  IPT d         -11.766 -29.304 -26.734  0.00  0.00    -0.390 OA
ATOM     33  H7  IPT d         -10.956 -29.213 -26.246  0.00  0.00     0.210 HD
ENDBRANCH   4  32
TORSDOF 9
ENDMDL
MODEL 2
REMARK VINA RESULT:      -5.7      1.686      3.466
REMARK  9 active torsions:
REMARK  status: ('A' for Active; 'I' for Inactive)
REMARK    1  A    between atoms: C1_1  and  S1_12 
REMARK    2  A    between atoms: C2_2  and  O2_3 
REMARK    3  A    between atoms: C3_4  and  O3_5 
REMARK    4  A    between atoms: C4_6  and  O4_7 
REMARK    5  A    between atoms: C5_8  and  C6_10 
REMARK    6  A    between atoms: C6_10  and  O6_11 
REMARK    7  A    between atoms: S1_12  and  C1'_13 
REMARK    8  A    between atoms: C1'_13  and  C2'_14 
REMARK    9  A    between atoms: C1'_13  and  C3'_15 
ROOT
ATOM      1  C1  IPT d         -13.601 -28.482 -26.478  0.00  0.00     0.110 C 
ATOM      2  C2  IPT d         -13.403 -28.433 -27.996  0.00  0.00     0.096 C 
ATOM      3  C3  IPT d         -12.096 -29.115 -28.418  0.00  0.00     0.090 C 
ATOM      4  C4  IPT d         -10.906 -28.712 -27.536  0.00  0.00     0.089 C 
ATOM      5  C5  IPT d         -11.296 -28.843 -26.057  0.00  0.00     0.087 C 
ATOM      6  O5  IPT d         -12.426 -28.009 -25.823  0.00  0.00    -0.363 OA
ATOM      7  H1  IPT d         -13.800 -29.523 -26.181  0.00  0.00     0.104 H 
ATOM      8  H2  IPT d         -13.378 -27.382 -28.321  0.00  0.00     0.092 H 
ATOM      9  H4  IPT d         -12.237 -30.202 -28.320  0.00  0.00     0.091 H 
ATOM     10  H6  IPT d         -10.058 -29.380 -27.741  0.00  0.00     0.091 H 
ATOM     11  H8  IPT d         -11.565 -29.893 -25.873  0.00  0.00     0.090 H 
ENDROOT
BRANCH   1  12
ATOM     12  S1  IPT d         -14.938 -27.459 -25.939  0.00  0.00    -0.131 SA
BRANCH  12  13
ATOM     13  C1' IPT d         -16.375 -28.481 -25.741  0.00  0.00    -0.014 C 
ATOM     14  H12 IPT d         -16.073 -29.532 -25.862  0.00  0.00     0.055 H 
BRANCH  13  15
ATOM     15  C2' IPT d         -16.993 -28.316 -24.351  0.00  0.00    -0.065 C 
ATOM     16  H13 IPT d         -17.987 -28.787 -24.333  0.00  0.00     0.028 H 
ATOM     17  H14 IPT d         -17.090 -27.246 -24.117  0.00  0.00     0.028 H 
ATOM     18  H15 IPT d         -16.346 -28.798 -23.603  0.00  0.00     0.028 H 
ENDBRANCH  13  15
BRANCH  13  19
ATOM     19  C3' IPT d         -17.392 -28.139 -26.824  0.00  0.00    -0.065 C 
ATOM     20  H16 IPT d         -18.406 -28.355 -26.455  0.00  0.00     0.028 H 
ATOM     21  H17 IPT d         -17.192 -28.744 -27.720  0.00  0.00     0.028 H 
ATOM     22  H18 IPT d         -17.314 -27.071 -27.077  0.00  0.00     0.028 H 
ENDBRANCH  13  19
ENDBRANCH  12  13
ENDBRANCH   1  12
BRANCH   2  23
ATOM     23  O2  IPT d         -14.504 -29.099 -28.619  0.00  0.00    -0.389 OA
ATOM     24  H3  IPT d         -14.450 -30.030 -28.441  0.00  0.00     0.210 HD
ENDBRANCH   2  23
BRANCH   3  25
ATOM     25  O3  IPT d         -11.802 -28.818 -29.794  0.00  0.00    -0.390 OA
ATOM     26  H5  IPT d         -12.290 -28.047 -30.062  0.00  0.00     0.210 HD
ENDBRANCH   3  25
BRANCH   5  27
ATOM     27  C6  IPT d         -10.235 -28.444 -25.036  0.00  0.00     0.043 C 
ATOM     28  H9  IPT d          -9.247 -28.471 -25.519  0.00  0.00     0.078 H 
ATOM     29  H10 IPT d         -10.256 -29.160 -24.202  0.00  0.00     0.078 H 
BRANCH  27  30
ATOM     30  O6  IPT d         -10.465 -27.125 -24.523  0.00  0.00    -0.398 OA
ATOM     31  H11 IPT d         -11.398 -26.987 -24.415  0.00  0.00     0.209 HD
ENDBRANCH  27  30
ENDBRANCH   5  27
BRANCH   4  32
ATOM     32  O4  IPT d         -10.528 -27.363 -27.847  0.00  0.00    -0.390 OA
ATOM     33  H7  IPT d          -9.870 -27.370 -28.532  0.00  0.00     0.210 HD
ENDBRANCH   4  32
TORSDOF 9
ENDMDL
MODEL 3
REMARK VINA RESULT:      -5.4      1.727      3.297
REMARK  9 active torsions:
REMARK  status: ('A' for Active; 'I' for Inactive)
REMARK    1  A    between atoms: C1_1  and  S1_12 
REMARK    2  A    between atoms: C2_2  and  O2_3 
REMARK    3  A    between atoms: C3_4  and  O3_5 
REMARK    4  A    between atoms: C4_6  and  O4_7 
REMARK    5  A    between atoms: C5_8  and  C6_10 
REMARK    6  A    between atoms: C6_10  and  O6_11 
REMARK    7  A    between atoms: S1_12  and  C1'_13 
REMARK    8  A    between atoms: C1'_13  and  C2'_14 
REMARK    9  A    between atoms: C1'_13  and  C3'_15 
ROOT
ATOM      1  C1  IPT d         -14.701 -28.183 -26.039  0.00  0.00     0.110 C 
ATOM      2  C2  IPT d         -15.001 -28.153 -27.542  0.00  0.00     0.096 C 
ATOM      3  C3  IPT d         -13.903 -28.855 -28.351  0.00  0.00     0.090 C 
ATOM      4  C4  IPT d         -12.490 -28.456 -27.903  0.00  0.00     0.089 C 
ATOM      5  C5  IPT d         -12.385 -28.565 -26.375  0.00  0.00     0.087 C 
ATOM      6  O5  IPT d         -13.375 -27.716 -25.803  0.00  0.00    -0.363 OA
ATOM      7  H1  IPT d         -14.802 -29.217 -25.680  0.00  0.00     0.104 H 
ATOM      8  H2  IPT d         -15.073 -27.107 -27.873  0.00  0.00     0.092 H 
ATOM      9  H4  IPT d         -14.014 -29.939 -28.197  0.00  0.00     0.091 H 
ATOM     10  H6  IPT d         -11.758 -29.136 -28.360  0.00  0.00     0.091 H 
ATOM     11  H8  IPT d         -12.589 -29.610 -26.100  0.00  0.00     0.090 H 
ENDROOT
BRANCH   1  12
ATOM     12  S1  IPT d         -15.787 -27.138 -25.116  0.00  0.00    -0.131 SA
BRANCH  12  13
ATOM     13  C1' IPT d         -17.303 -28.016 -24.842  0.00  0.00    -0.014 C 
ATOM     14  H12 IPT d         -17.195 -29.032 -25.249  0.00  0.00     0.055 H 
BRANCH  13  15
ATOM     15  C2' IPT d         -17.624 -28.130 -23.349  0.00  0.00    -0.065 C 
ATOM     16  H13 IPT d         -17.635 -29.190 -23.057  0.00  0.00     0.028 H 
ATOM     17  H14 IPT d         -18.611 -27.685 -23.152  0.00  0.00     0.028 H 
ATOM     18  H15 IPT d         -16.858 -27.597 -22.768  0.00  0.00     0.028 H 
ENDBRANCH  13  15
BRANCH  13  19
ATOM     19  C3' IPT d         -18.436 -27.312 -25.581  0.00  0.00    -0.065 C 
ATOM     20  H16 IPT d         -18.111 -26.303 -25.875  0.00  0.00     0.028 H 
ATOM     21  H17 IPT d         -19.314 -27.238 -24.922  0.00  0.00     0.028 H 
ATOM     22  H18 IPT d         -18.701 -27.888 -26.480  0.00  0.00     0.028 H 
ENDBRANCH  13  19
ENDBRANCH  12  13
ENDBRANCH   1  12
BRANCH   2  23
ATOM     23  O2  IPT d         -16.248 -28.813 -27.768  0.00  0.00    -0.389 OA
ATOM     24  H3  IPT d         -16.086 -29.708 -28.042  0.00  0.00     0.210 HD
ENDBRANCH   2  23
BRANCH   3  25
ATOM     25  O3  IPT d         -14.065 -28.578 -29.753  0.00  0.00    -0.390 OA
ATOM     26  H5  IPT d         -13.225 -28.336 -30.126  0.00  0.00     0.210 HD
ENDBRANCH   3  25
BRANCH   5  27
ATOM     27  C6  IPT d         -11.050 -28.167 -25.755  0.00  0.00     0.043 C 
ATOM     28  H9  IPT d         -10.330 -27.959 -26.561  0.00  0.00     0.078 H 
ATOM     29  H10 IPT d         -10.680 -29.000 -25.139  0.00  0.00     0.078 H 
BRANCH  27  30
ATOM     30  O6  IPT d         -11.177 -27.001 -24.932  0.00  0.00    -0.398 OA
ATOM     31  H11 IPT d         -10.387 -26.479 -25.000  0.00  0.00     0.209 HD
ENDBRANCH  27  30
ENDBRANCH   5  27
BRANCH   4  32
ATOM     32  O4  IPT d         -12.222 -27.116 -28.339  0.00  0.00    -0.390 OA
ATOM     33  H7  IPT d         -11.410 -27.100 -28.831  0.00  0.00     0.210 HD
ENDBRANCH   4  32
TORSDOF 9
ENDMDL
MODEL 4
REMARK VINA RESULT:      -4.5      2.536      5.011
REMARK  9 active torsions:
REMARK  status: ('A' for Active; 'I' for Inactive)
REMARK    1  A    between atoms: C1_1  and  S1_12 
REMARK    2  A    between atoms: C2_2  and  O2_3 
REMARK    3  A    between atoms: C3_4  and  O3_5 
REMARK    4  A    between atoms: C4_6  and  O4_7 
REMARK    5  A    between atoms: C5_8  and  C6_10 
REMARK    6  A    between atoms: C6_10  and  O6_11 
REMARK    7  A    between atoms: S1_12  and  C1'_13 
REMARK    8  A    between atoms: C1'_13  and  C2'_14 
REMARK    9  A    between atoms: C1'_13  and  C3'_15 
ROOT
ATOM      1  C1  IPT d         -15.057 -28.261 -26.074  0.00  0.00     0.110 C 
ATOM      2  C2  IPT d         -15.287 -26.958 -25.300  0.00  0.00     0.096 C 
ATOM      3  C3  IPT d         -16.411 -27.105 -24.267  0.00  0.00     0.090 C 
ATOM      4  C4  IPT d         -17.646 -27.819 -24.833  0.00  0.00     0.089 C 
ATOM      5  C5  IPT d         -17.213 -29.102 -25.555  0.00  0.00     0.087 C 
ATOM      6  O5  IPT d         -16.298 -28.742 -26.585  0.00  0.00    -0.363 OA
ATOM      7  H1  IPT d         -14.622 -29.005 -25.391  0.00  0.00     0.104 H 
ATOM      8  H2  IPT d         -15.556 -26.162 -26.009  0.00  0.00     0.092 H 
ATOM      9  H4  IPT d         -16.024 -27.709 -23.433  0.00  0.00     0.091 H 
ATOM     10  H6  IPT d         -18.323 -28.084 -24.009  0.00  0.00     0.091 H 
ATOM     11  H8  IPT d         -16.708 -29.745 -24.819  0.00  0.00     0.090 H 
ENDROOT
BRANCH   1  12
ATOM     12  S1  IPT d         -13.981 -28.041 -27.458  0.00  0.00    -0.131 SA
BRANCH  12  13
ATOM     13  C1' IPT d         -12.470 -28.912 -27.130  0.00  0.00    -0.014 C 
ATOM     14  H12 IPT d         -12.451 -29.820 -27.751  0.00  0.00     0.055 H 
BRANCH  13  15
ATOM     15  C2' IPT d         -11.246 -28.064 -27.484  0.00  0.00    -0.065 C 
ATOM     16  H13 IPT d         -10.607 -28.618 -28.188  0.00  0.00     0.028 H 
ATOM     17  H14 IPT d         -10.677 -27.842 -26.569  0.00  0.00     0.028 H 
ATOM     18  H15 IPT d         -11.573 -27.123 -27.949  0.00  0.00     0.028 H 
ENDBRANCH  13  15
BRANCH  13  19
ATOM     19  C3' IPT d         -12.431 -29.324 -25.663  0.00  0.00    -0.065 C 
ATOM     20  H16 IPT d         -13.347 -29.880 -25.414  0.00  0.00     0.028 H 
ATOM     21  H17 IPT d         -12.364 -28.426 -25.031  0.00  0.00     0.028 H 
ATOM     22  H18 IPT d         -11.554 -29.964 -25.485  0.00  0.00     0.028 H 
ENDBRANCH  13  19
ENDBRANCH  12  13
ENDBRANCH   1  12
BRANCH   2  23
ATOM     23  O2  IPT d         -14.074 -26.610 -24.630  0.00  0.00    -0.389 OA
ATOM     24  H3  IPT d         -13.708 -25.829 -25.026  0.00  0.00     0.210 HD
ENDBRANCH   2  23
BRANCH   3  25
ATOM     25  O3  IPT d         -16.787 -25.815 -23.755  0.00  0.00    -0.390 OA
ATOM     26  H5  IPT d         -16.740 -25.825 -22.806  0.00  0.00     0.210 HD
ENDBRANCH   3  25
BRANCH   5  27
ATOM     27  C6  IPT d         -18.320 -29.919 -26.213  0.00  0.00     0.043 C 
ATOM     28  H9  IPT d         -19.276 -29.387 -26.093  0.00  0.00     0.078 H 
ATOM     29  H10 IPT d         -18.381 -30.900 -25.718  0.00  0.00     0.078 H 
BRANCH  27  30
ATOM     30  O6  IPT d         -18.070 -30.118 -27.610  0.00  0.00    -0.398 OA
ATOM     31  H11 IPT d         -18.847 -30.476 -28.022  0.00  0.00     0.209 HD
ENDBRANCH  27  30
ENDBRANCH   5  27
BRANCH   4  32
ATOM     32  O4  IPT d         -18.327 -26.932 -25.733  0.00  0.00    -0.390 OA
ATOM     33  H7  IPT d         -18.332 -26.055 -25.368  0.00  0.00     0.210 HD
ENDBRANCH   4  32
TORSDOF 9
ENDMDL
MODEL 5
REMARK VINA RESULT:      -4.5      2.326      5.761
REMARK  9 active torsions:
REMARK  status: ('A' for Active; 'I' for Inactive)
REMARK    1  A    between atoms: C1_1  and  S1_12 
REMARK    2  A    between atoms: C2_2  and  O2_3 
REMARK    3  A    between atoms: C3_4  and  O3_5 
REMARK    4  A    between atoms: C4_6  and  O4_7 
REMARK    5  A    between atoms: C5_8  and  C6_10 
REMARK    6  A    between atoms: C6_10  and  O6_11 
REMARK    7  A    between atoms: S1_12  and  C1'_13 
REMARK    8  A    between atoms: C1'_13  and  C2'_14 
REMARK    9  A    between atoms: C1'_13  and  C3'_15 
ROOT
ATOM      1  C1  IPT d         -14.225 -28.002 -26.173  0.00  0.00     0.110 C 
ATOM      2  C2  IPT d         -15.308 -28.667 -27.030  0.00  0.00     0.096 C 
ATOM      3  C3  IPT d         -16.593 -27.831 -27.067  0.00  0.00     0.090 C 
ATOM      4  C4  IPT d         -17.004 -27.317 -25.680  0.00  0.00     0.089 C 
ATOM      5  C5  IPT d         -15.794 -26.674 -24.990  0.00  0.00     0.087 C 
ATOM      6  O5  IPT d         -14.765 -27.655 -24.900  0.00  0.00    -0.363 OA
ATOM      7  H1  IPT d         -13.874 -27.096 -26.688  0.00  0.00     0.104 H 
ATOM      8  H2  IPT d         -15.539 -29.658 -26.611  0.00  0.00     0.092 H 
ATOM      9  H4  IPT d         -16.407 -26.958 -27.710  0.00  0.00     0.091 H 
ATOM     10  H6  IPT d         -17.795 -26.561 -25.792  0.00  0.00     0.091 H 
ATOM     11  H8  IPT d         -15.455 -25.839 -25.618  0.00  0.00     0.090 H 
ENDROOT
BRANCH   1  12
ATOM     12  S1  IPT d         -12.851 -29.072 -25.875  0.00  0.00    -0.131 SA
BRANCH  12  13
ATOM     13  C1' IPT d         -11.374 -28.235 -26.388  0.00  0.00    -0.014 C 
ATOM     14  H12 IPT d         -11.349 -27.246 -25.906  0.00  0.00     0.055 H 
BRANCH  13  15
ATOM     15  C2' IPT d         -10.118 -29.003 -25.969  0.00  0.00    -0.065 C 
ATOM     16  H13 IPT d          -9.753 -29.600 -26.818  0.00  0.00     0.028 H 
ATOM     17  H14 IPT d         -10.360 -29.670 -25.129  0.00  0.00     0.028 H 
ATOM     18  H15 IPT d          -9.339 -28.291 -25.660  0.00  0.00     0.028 H 
ENDBRANCH  13  15
BRANCH  13  19
ATOM     19  C3' IPT d         -11.402 -28.039 -27.900  0.00  0.00    -0.065 C 
ATOM     20  H16 IPT d         -11.458 -29.019 -28.396  0.00  0.00     0.028 H 
ATOM     21  H17 IPT d         -10.488 -27.517 -28.220  0.00  0.00     0.028 H 
ATOM     22  H18 IPT d         -12.282 -27.439 -28.176  0.00  0.00     0.028 H 
ENDBRANCH  13  19
ENDBRANCH  12  13
ENDBRANCH   1  12
BRANCH   2  23
ATOM     23  O2  IPT d         -14.805 -28.817 -28.359  0.00  0.00    -0.389 OA
ATOM     24  H3  IPT d         -14.400 -29.671 -28.449  0.00  0.00     0.210 HD
ENDBRANCH   2  23
BRANCH   3  25
ATOM     25  O3  IPT d         -17.667 -28.596 -27.640  0.00  0.00    -0.390 OA
ATOM     26  H5  IPT d         -17.850 -28.277 -28.516  0.00  0.00     0.210 HD
ENDBRANCH   3  25
BRANCH   5  27
ATOM     27  C6  IPT d         -16.019 -26.141 -23.579  0.00  0.00     0.043 C 
ATOM     28  H9  IPT d         -15.419 -25.228 -23.442  0.00  0.00     0.078 H 
ATOM     29  H10 IPT d         -15.699 -26.903 -22.854  0.00  0.00     0.078 H 
BRANCH  27  30
ATOM     30  O6  IPT d         -17.399 -25.829 -23.347  0.00  0.00    -0.398 OA
ATOM     31  H11 IPT d         -17.510 -25.537 -22.450  0.00  0.00     0.209 HD
ENDBRANCH  27  30
ENDBRANCH   5  27
BRANCH   4  32
ATOM     32  O4  IPT d         -17.512 -28.414 -24.906  0.00  0.00    -0.390 OA
ATOM     33  H7  IPT d         -17.247 -28.309 -24.000  0.00  0.00     0.210 HD
ENDBRANCH   4  32
TORSDOF 9
ENDMDL
MODEL 6
REMARK VINA RESULT:      -3.7      1.631      3.571
REMARK  9 active torsions:
REMARK  status: ('A' for Active; 'I' for Inactive)
REMARK    1  A    between atoms: C1_1  and  S1_12 
REMARK    2  A    between atoms: C2_2  and  O2_3 
REMARK    3  A    between atoms: C3_4  and  O3_5 
REMARK    4  A    between atoms: C4_6  and  O4_7 
REMARK    5  A    between atoms: C5_8  and  C6_10 
REMARK    6  A    between atoms: C6_10  and  O6_11 
REMARK    7  A    between atoms: S1_12  and  C1'_13 
REMARK    8  A    between atoms: C1'_13  and  C2'_14 
REMARK    9  A    between atoms: C1'_13  and  C3'_15 
ROOT
ATOM      1  C1  IPT d         -15.734 -28.625 -27.210  0.00  0.00     0.110 C 
ATOM      2  C2  IPT d         -14.365 -28.451 -27.877  0.00  0.00     0.096 C 
ATOM      3  C3  IPT d         -13.241 -28.339 -26.839  0.00  0.00     0.090 C 
ATOM      4  C4  IPT d         -13.592 -27.388 -25.686  0.00  0.00     0.089 C 
ATOM      5  C5  IPT d         -14.987 -27.730 -25.145  0.00  0.00     0.087 C 
ATOM      6  O5  IPT d         -15.917 -27.618 -26.217  0.00  0.00    -0.363 OA
ATOM      7  H1  IPT d         -15.776 -29.620 -26.744  0.00  0.00     0.104 H 
ATOM      8  H2  IPT d         -14.377 -27.537 -28.489  0.00  0.00     0.092 H 
ATOM      9  H4  IPT d         -13.075 -29.340 -26.414  0.00  0.00     0.091 H 
ATOM     10  H6  IPT d         -12.856 -27.508 -24.878  0.00  0.00     0.091 H 
ATOM     11  H8  IPT d         -14.961 -28.769 -24.785  0.00  0.00     0.090 H 
ENDROOT
BRANCH   1  12
ATOM     12  S1  IPT d         -17.067 -28.463 -28.358  0.00  0.00    -0.131 SA
BRANCH  12  13
ATOM     13  C1' IPT d         -18.563 -28.966 -27.548  0.00  0.00    -0.014 C 
ATOM     14  H12 IPT d         -19.335 -29.129 -28.314  0.00  0.00     0.055 H 
BRANCH  13  15
ATOM     15  C2' IPT d         -18.371 -30.274 -26.776  0.00  0.00    -0.065 C 
ATOM     16  H13 IPT d         -17.686 -30.931 -27.332  0.00  0.00     0.028 H 
ATOM     17  H14 IPT d         -19.343 -30.774 -26.656  0.00  0.00     0.028 H 
ATOM     18  H15 IPT d         -17.946 -30.056 -25.785  0.00  0.00     0.028 H 
ENDBRANCH  13  15
BRANCH  13  19
ATOM     19  C3' IPT d         -19.030 -27.856 -26.613  0.00  0.00    -0.065 C 
ATOM     20  H16 IPT d         -19.216 -26.941 -27.195  0.00  0.00     0.028 H 
ATOM     21  H17 IPT d         -18.252 -27.659 -25.859  0.00  0.00     0.028 H 
ATOM     22  H18 IPT d         -19.958 -28.165 -26.110  0.00  0.00     0.028 H 
ENDBRANCH  13  19
ENDBRANCH  12  13
ENDBRANCH   1  12
BRANCH   2  23
ATOM     23  O2  IPT d         -14.122 -29.583 -28.714  0.00  0.00    -0.389 OA
ATOM     24  H3  IPT d         -13.899 -30.332 -28.174  0.00  0.00     0.210 HD
ENDBRANCH   2  23
BRANCH   3  25
ATOM     25  O3  IPT d         -12.023 -27.908 -27.471  0.00  0.00    -0.390 OA
ATOM     26  H5  IPT d         -12.204 -27.158 -28.027  0.00  0.00     0.210 HD
ENDBRANCH   3  25
BRANCH   5  27
ATOM     27  C6  IPT d         -15.511 -26.853 -24.012  0.00  0.00     0.043 C 
ATOM     28  H9  IPT d         -15.681 -27.481 -23.124  0.00  0.00     0.078 H 
ATOM     29  H10 IPT d         -16.461 -26.395 -24.326  0.00  0.00     0.078 H 
BRANCH  27  30
ATOM     30  O6  IPT d         -14.583 -25.814 -23.676  0.00  0.00    -0.398 OA
ATOM     31  H11 IPT d         -13.841 -25.850 -24.268  0.00  0.00     0.209 HD
ENDBRANCH  27  30
ENDBRANCH   5  27
BRANCH   4  32
ATOM     32  O4  IPT d         -13.547 -26.036 -26.164  0.00  0.00    -0.390 OA
ATOM     33  H7  IPT d         -14.362 -25.598 -25.948  0.00  0.00     0.210 HD
ENDBRANCH   4  32
TORSDOF 9
ENDMDL
