MODEL 1
REMARK VINA RESULT:      -5.4      0.000      0.000
REMARK WARNING: 32 MAX_TORS EXCEEDED!!!
REMARK  36 active torsions:
REMARK  status: ('A' for Active; 'I' for Inactive)
REMARK    1  A    between atoms: C6_6  and  N6_7 
REMARK    2  A    between atoms: CCN_19  and  N9_10 
REMARK    3  A    between atoms: CCK_16  and  OAN_12 
REMARK    4  A    between atoms: CCL_17  and  OAO_13 
REMARK    5  A    between atoms: CCC_15  and  CCM_18 
REMARK       I    between atoms: NBR_27  and  CCC_15 
REMARK    6  A    between atoms: CBZ_20  and  CBG_22 
REMARK       I    between atoms: NBS_28  and  CBZ_20 
REMARK    7  A    between atoms: CBG_22  and  CAX_23 
REMARK    8  A    between atoms: CAX_23  and  CAU_24 
REMARK    9  A    between atoms: CAU_24  and  CAW_25 
REMARK   10  A    between atoms: CAW_25  and  CBD_26 
REMARK   11  A    between atoms: CBD_26  and  NBR_27 
REMARK   12  A    between atoms: CCI_29  and  NBS_28 
REMARK   13  A    between atoms: CCB_30  and  CCI_29 
REMARK   14  A    between atoms: CCI_29  and  CBJ_32 
REMARK       I    between atoms: NBQ_44  and  CCB_30 
REMARK   15  A    between atoms: CBJ_32  and  CAZ_33 
REMARK   16  A    between atoms: CAZ_33  and  CAS_34 
REMARK   17  A    between atoms: CAS_34  and  CAR_35 
REMARK   18  A    between atoms: CAR_35  and  NAC_36 
REMARK   19  A    between atoms: CBH_39  and  CCA_37 
REMARK       I    between atoms: CCA_37  and  NBT_45 
REMARK   20  A    between atoms: CAY_40  and  CBH_39 
REMARK   21  A    between atoms: CAT_41  and  CAY_40 
REMARK   22  A    between atoms: CAV_42  and  CAT_41 
REMARK   23  A    between atoms: CBC_43  and  CAV_42 
REMARK   24  A    between atoms: CBC_43  and  NBQ_44 
REMARK   25  A    between atoms: NBT_45  and  CCJ_46 
REMARK   26  A    between atoms: CCJ_46  and  CBK_47 
REMARK   27  A    between atoms: CCJ_46  and  CCD_54 
REMARK   28  A    between atoms: CBK_47  and  CBB_48 
REMARK   29  A    between atoms: CBB_48  and  CBF_49 
REMARK   30  A    between atoms: CBF_49  and  NBP_50 
REMARK       I    between atoms: NBP_50  and  CBX_51 
REMARK       I    between atoms: CBX_51  and  NAB_52 
REMARK       I    between atoms: CBX_51  and  NAE_53 
REMARK       I    between atoms: CCD_54  and  N_56 
REMARK   31  A    between atoms: N_56  and  CA_57 
REMARK   32  A    between atoms: CA_57  and  CB_58 
REMARK   33  A    between atoms: CA_57  and  C_65 
REMARK   34  A    between atoms: CB_58  and  CG_59 
REMARK   35  A    between atoms: CG_59  and  CD_60 
REMARK   36  A    between atoms: CD_60  and  NE_61 
REMARK       I    between atoms: NE_61  and  CZ_62 
REMARK       I    between atoms: CZ_62  and  NH1_63 
REMARK       I    between atoms: C_65  and  NAF_67 
ROOT
ATOM      1  CCB A02 d          16.723   4.327   4.385  0.00  0.00     0.240 C 
ATOM      2  OAK A02 d          15.731   4.685   5.008  0.00  0.00    -0.271 OA
ATOM      3  NBQ A02 d          16.952   4.645   3.112  0.00  0.00    -0.359 N 
ATOM      4  H45 A02 d          17.783   4.303   2.672  0.00  0.00     0.162 HD
ENDROOT
BRANCH   1   5
ATOM      5  CCI A02 d          17.788   3.424   5.054  0.00  0.00     0.089 C 
ATOM      6  H23 A02 d          18.165   2.743   4.277  0.00  0.00     0.087 H 
BRANCH   5   7
ATOM      7  NBS A02 d          17.172   2.585   6.114  0.00  0.00    -0.348 N 
ATOM      8  CBZ A02 d          16.325   1.585   5.822  0.00  0.00     0.218 C 
ATOM      9  OAI A02 d          15.948   1.304   4.678  0.00  0.00    -0.274 OA
ATOM     10  H22 A02 d          17.394   2.770   7.071  0.00  0.00     0.163 HD
BRANCH   8  11
ATOM     11  CBG A02 d          15.784   0.810   7.041  0.00  0.00     0.009 C 
ATOM     12  H11 A02 d          16.343   1.119   7.936  0.00  0.00     0.047 H 
ATOM     13  H12 A02 d          15.930  -0.267   6.871  0.00  0.00     0.047 H 
BRANCH  11  14
ATOM     14  CAX A02 d          14.284   1.079   7.273  0.00  0.00    -0.057 C 
ATOM     15  H13 A02 d          13.996   0.679   8.257  0.00  0.00     0.033 H 
ATOM     16  H14 A02 d          13.703   0.573   6.487  0.00  0.00     0.033 H 
BRANCH  14  17
ATOM     17  CAU A02 d          13.976   2.580   7.234  0.00  0.00    -0.063 C 
ATOM     18  H15 A02 d          14.023   2.921   6.189  0.00  0.00     0.033 H 
ATOM     19  H16 A02 d          14.736   3.110   7.827  0.00  0.00     0.033 H 
BRANCH  17  20
ATOM     20  CAW A02 d          12.593   2.919   7.797  0.00  0.00    -0.050 C 
ATOM     21  H17 A02 d          12.492   2.514   8.815  0.00  0.00     0.035 H 
ATOM     22  H18 A02 d          11.810   2.491   7.153  0.00  0.00     0.035 H 
BRANCH  20  23
ATOM     23  CBD A02 d          12.469   4.444   7.827  0.00  0.00    -0.005 C 
ATOM     24  H19 A02 d          12.577   4.826   6.801  0.00  0.00     0.064 H 
ATOM     25  H20 A02 d          13.274   4.850   8.456  0.00  0.00     0.064 H 
BRANCH  23  26
ATOM     26  NBR A02 d          11.175   4.898   8.366  0.00  0.00    -0.359 N 
ATOM     27  CCC A02 d          10.826   4.824   9.651  0.00  0.00     0.249 C 
ATOM     28  OAL A02 d          11.519   4.303  10.537  0.00  0.00    -0.271 OA
ATOM     29  H21 A02 d          10.514   5.288   7.725  0.00  0.00     0.162 HD
BRANCH  27  30
ATOM     30  CCM A02 d           9.464   5.438  10.026  0.00  0.00     0.144 C 
ATOM     31  OBV A02 d           8.910   4.817  11.234  0.00  0.00    -0.346 OA
ATOM     32  CCN A02 d           9.081   5.728  12.359  0.00  0.00     0.140 C 
ATOM     33  CCL A02 d          10.024   6.832  11.842  0.00  0.00     0.105 C 
ATOM     34  H10 A02 d           8.111   6.172  12.626  0.00  0.00     0.123 H 
ATOM     35  CCK A02 d           9.651   6.915  10.373  0.00  0.00     0.098 C 
ATOM     36  H8  A02 d          11.082   6.566  11.984  0.00  0.00     0.093 H 
ATOM     37  H7  A02 d          10.432   7.397   9.767  0.00  0.00     0.091 H 
ATOM     38  H9  A02 d           8.765   5.323   9.184  0.00  0.00     0.102 H 
BRANCH  32  39
ATOM     39  N9  A02 d           9.626   5.008  13.588  0.00  0.00    -0.294 N 
ATOM     40  C4  A02 d           8.969   4.792  14.723  0.00  0.00     0.167 A 
ATOM     41  N3  A02 d           7.733   5.107  15.141  0.00  0.00    -0.222 NA
ATOM     42  C5  A02 d           9.831   4.117  15.577  0.00  0.00     0.149 A 
ATOM     43  C2  A02 d           7.326   4.763  16.356  0.00  0.00     0.091 A 
ATOM     44  N1  A02 d           8.133   4.103  17.198  0.00  0.00    -0.222 NA
ATOM     45  H1  A02 d           6.322   5.021  16.674  0.00  0.00     0.146 H 
ATOM     46  C6  A02 d           9.385   3.773  16.842  0.00  0.00     0.155 A 
ATOM     47  N7  A02 d          10.987   3.930  14.943  0.00  0.00    -0.236 NA
ATOM     48  C8  A02 d          10.847   4.467  13.726  0.00  0.00     0.071 A 
ATOM     49  H4  A02 d          11.616   4.466  12.955  0.00  0.00     0.144 H 
BRANCH  46  50
ATOM     50  N6  A02 d          10.190   3.130  17.681  0.00  0.00    -0.382 N 
ATOM     51  H2  A02 d          11.147   2.885  17.390  0.00  0.00     0.157 HD
ATOM     52  H3  A02 d           9.857   2.876  18.622  0.00  0.00     0.157 HD
ENDBRANCH  46  50
ENDBRANCH  32  39
BRANCH  33  53
ATOM     53  OAO A02 d           9.735   8.068  12.479  0.00  0.00    -0.388 OA
ATOM     54  H6  A02 d           8.807   8.255  12.399  0.00  0.00     0.210 HD
ENDBRANCH  33  53
BRANCH  35  55
ATOM     55  OAN A02 d           8.391   7.599  10.228  0.00  0.00    -0.390 OA
ATOM     56  H5  A02 d           8.466   8.477  10.584  0.00  0.00     0.210 HD
ENDBRANCH  35  55
ENDBRANCH  27  30
ENDBRANCH  23  26
ENDBRANCH  20  23
ENDBRANCH  17  20
ENDBRANCH  14  17
ENDBRANCH  11  14
ENDBRANCH   8  11
ENDBRANCH   5   7
BRANCH   5  57
ATOM     57  CBJ A02 d          19.006   4.214   5.584  0.00  0.00    -0.038 C 
ATOM     58  H24 A02 d          19.534   4.644   4.720  0.00  0.00     0.036 H 
ATOM     59  H25 A02 d          19.669   3.507   6.104  0.00  0.00     0.036 H 
BRANCH  57  60
ATOM     60  CAZ A02 d          18.676   5.354   6.553  0.00  0.00    -0.061 C 
ATOM     61  H26 A02 d          18.209   4.938   7.458  0.00  0.00     0.033 H 
ATOM     62  H27 A02 d          17.978   6.052   6.068  0.00  0.00     0.033 H 
BRANCH  60  63
ATOM     63  CAS A02 d          19.963   6.110   6.945  0.00  0.00    -0.043 C 
ATOM     64  H28 A02 d          20.172   6.880   6.187  0.00  0.00     0.035 H 
ATOM     65  H29 A02 d          20.800   5.397   6.985  0.00  0.00     0.035 H 
BRANCH  63  66
ATOM     66  CAR A02 d          19.814   6.785   8.317  0.00  0.00     0.080 C 
ATOM     67  H30 A02 d          20.458   6.272   9.047  0.00  0.00     0.075 H 
ATOM     68  H31 A02 d          18.765   6.720   8.643  0.00  0.00     0.075 H 
BRANCH  66  69
ATOM     69  NAC A02 d          20.210   8.202   8.227  0.00  0.00    -0.079 N 
ATOM     70  H32 A02 d          20.109   8.637   9.131  0.00  0.00     0.274 HD
ATOM     71  H33 A02 d          19.620   8.674   7.559  0.00  0.00     0.274 HD
ATOM     72  H34 A02 d          21.171   8.264   7.929  0.00  0.00     0.274 HD
ENDBRANCH  66  69
ENDBRANCH  63  66
ENDBRANCH  60  63
ENDBRANCH  57  60
ENDBRANCH   5  57
ENDBRANCH   1   5
BRANCH   3  73
ATOM     73  CBC A02 d          16.023   5.486   2.323  0.00  0.00    -0.005 C 
ATOM     74  H43 A02 d          15.841   5.008   1.349  0.00  0.00     0.064 H 
ATOM     75  H44 A02 d          15.072   5.583   2.867  0.00  0.00     0.064 H 
BRANCH  73  76
ATOM     76  CAV A02 d          16.619   6.880   2.097  0.00  0.00    -0.050 C 
ATOM     77  H41 A02 d          16.841   7.341   3.071  0.00  0.00     0.035 H 
ATOM     78  H42 A02 d          17.548   6.786   1.516  0.00  0.00     0.035 H 
BRANCH  76  79
ATOM     79  CAT A02 d          15.632   7.769   1.331  0.00  0.00    -0.063 C 
ATOM     80  H39 A02 d          15.003   7.133   0.692  0.00  0.00     0.033 H 
ATOM     81  H40 A02 d          14.998   8.303   2.055  0.00  0.00     0.033 H 
BRANCH  79  82
ATOM     82  CAY A02 d          16.353   8.796   0.452  0.00  0.00    -0.057 C 
ATOM     83  H37 A02 d          17.379   8.928   0.827  0.00  0.00     0.033 H 
ATOM     84  H38 A02 d          16.385   8.420  -0.581  0.00  0.00     0.033 H 
BRANCH  82  85
ATOM     85  CBH A02 d          15.639  10.158   0.465  0.00  0.00     0.009 C 
ATOM     86  H35 A02 d          15.641  10.571  -0.554  0.00  0.00     0.047 H 
ATOM     87  H36 A02 d          14.601  10.013   0.800  0.00  0.00     0.047 H 
BRANCH  85  88
ATOM     88  CCA A02 d          16.333  11.155   1.408  0.00  0.00     0.218 C 
ATOM     89  OAJ A02 d          17.531  11.424   1.274  0.00  0.00    -0.274 OA
ATOM     90  NBT A02 d          15.541  11.690   2.345  0.00  0.00    -0.348 N 
ATOM     91  H46 A02 d          14.579  11.418   2.368  0.00  0.00     0.163 HD
BRANCH  90  92
ATOM     92  CCJ A02 d          16.022  12.668   3.352  0.00  0.00     0.089 C 
ATOM     93  H47 A02 d          16.942  12.267   3.801  0.00  0.00     0.087 H 
BRANCH  92  94
ATOM     94  CBK A02 d          14.985  12.864   4.490  0.00  0.00    -0.036 C 
ATOM     95  H48 A02 d          15.053  13.904   4.842  0.00  0.00     0.036 H 
ATOM     96  H49 A02 d          15.243  12.181   5.312  0.00  0.00     0.036 H 
BRANCH  94  97
ATOM     97  CBB A02 d          13.528  12.591   4.078  0.00  0.00    -0.048 C 
ATOM     98  H50 A02 d          12.927  12.435   4.986  0.00  0.00     0.035 H 
ATOM     99  H51 A02 d          13.500  11.682   3.459  0.00  0.00     0.035 H 
BRANCH  97 100
ATOM    100  CBF A02 d          12.921  13.754   3.277  0.00  0.00     0.009 C 
ATOM    101  H52 A02 d          13.593  14.624   3.318  0.00  0.00     0.064 H 
ATOM    102  H53 A02 d          11.943  14.026   3.700  0.00  0.00     0.064 H 
BRANCH 100 103
ATOM    103  NBP A02 d          12.756  13.316   1.878  0.00  0.00    -0.227 N 
ATOM    104  CBX A02 d          12.438  14.136   0.867  0.00  0.00     0.665 C 
ATOM    105  NAB A02 d          12.255  15.444   1.040  0.00  0.00    -0.235 N 
ATOM    106  NAE A02 d          12.312  13.620  -0.352  0.00  0.00    -0.235 N 
ATOM    107  H55 A02 d          12.011  16.041   0.236  0.00  0.00     0.174 HD
ATOM    108  H56 A02 d          12.357  15.859   1.977  0.00  0.00     0.174 HD
ATOM    109  H57 A02 d          12.451  12.610  -0.501  0.00  0.00     0.174 HD
ATOM    110  H58 A02 d          12.076  14.230  -1.148  0.00  0.00     0.174 HD
ATOM    111  H54 A02 d          12.894  12.318   1.665  0.00  0.00     0.177 HD
ENDBRANCH 100 103
ENDBRANCH  97 100
ENDBRANCH  94  97
ENDBRANCH  92  94
BRANCH  92 112
ATOM    112  CCD A02 d          16.370  14.016   2.675  0.00  0.00     0.241 C 
ATOM    113  OAM A02 d          16.280  14.154   1.455  0.00  0.00    -0.271 OA
ATOM    114  N   A02 d          16.769  14.985   3.502  0.00  0.00    -0.346 N 
ATOM    115  H59 A02 d          16.814  14.784   4.481  0.00  0.00     0.163 HD
BRANCH 114 116
ATOM    116  CA  A02 d          17.148  16.341   3.046  0.00  0.00     0.089 C 
ATOM    117  H60 A02 d          17.852  16.243   2.207  0.00  0.00     0.087 H 
BRANCH 116 118
ATOM    118  CB  A02 d          17.841  17.095   4.188  0.00  0.00    -0.036 C 
ATOM    119  H61 A02 d          17.884  18.165   3.936  0.00  0.00     0.036 H 
ATOM    120  H62 A02 d          18.863  16.705   4.306  0.00  0.00     0.036 H 
BRANCH 118 121
ATOM    121  CG  A02 d          17.088  16.925   5.509  0.00  0.00    -0.048 C 
ATOM    122  H63 A02 d          16.439  16.039   5.440  0.00  0.00     0.035 H 
ATOM    123  H64 A02 d          16.471  17.818   5.688  0.00  0.00     0.035 H 
BRANCH 121 124
ATOM    124  CD  A02 d          18.052  16.745   6.677  0.00  0.00     0.009 C 
ATOM    125  H65 A02 d          18.980  16.269   6.328  0.00  0.00     0.064 H 
ATOM    126  H66 A02 d          17.588  16.119   7.454  0.00  0.00     0.064 H 
BRANCH 124 127
ATOM    127  NE  A02 d          18.343  18.071   7.213  0.00  0.00    -0.227 N 
ATOM    128  CZ  A02 d          17.812  18.584   8.322  0.00  0.00     0.665 C 
ATOM    129  NH1 A02 d          16.967  17.909   9.101  0.00  0.00    -0.235 N 
ATOM    130  NH2 A02 d          18.178  19.816   8.648  0.00  0.00    -0.235 N 
ATOM    131  H68 A02 d          16.584  18.351   9.949  0.00  0.00     0.174 HD
ATOM    132  H69 A02 d          16.697  16.946   8.855  0.00  0.00     0.174 HD
ATOM    133  H70 A02 d          18.831  20.336   8.045  0.00  0.00     0.174 HD
ATOM    134  H71 A02 d          17.809  20.253   9.505  0.00  0.00     0.174 HD
ATOM    135  H67 A02 d          19.012  18.657   6.693  0.00  0.00     0.177 HD
ENDBRANCH 124 127
ENDBRANCH 121 124
ENDBRANCH 118 121
ENDBRANCH 116 118
BRANCH 116 136
ATOM    136  C   A02 d          15.917  17.140   2.560  0.00  0.00     0.238 C 
ATOM    137  O   A02 d          14.818  17.037   3.109  0.00  0.00    -0.271 OA
ATOM    138  NAF A02 d          16.150  17.951   1.530  0.00  0.00    -0.368 N 
ATOM    139  H72 A02 d          15.408  18.505   1.152  0.00  0.00     0.159 HD
ATOM    140  H73 A02 d          17.067  18.006   1.134  0.00  0.00     0.159 HD
ENDBRANCH 116 136
ENDBRANCH 114 116
ENDBRANCH  92 112
ENDBRANCH  90  92
ENDBRANCH  85  88
ENDBRANCH  82  85
ENDBRANCH  79  82
ENDBRANCH  76  79
ENDBRANCH  73  76
ENDBRANCH   3  73
TORSDOF 36
ENDMDL
