MODEL 1
REMARK VINA RESULT:      -6.7      0.000      0.000
REMARK WARNING: 32 MAX_TORS EXCEEDED!!!
REMARK  36 active torsions:
REMARK  status: ('A' for Active; 'I' for Inactive)
REMARK    1  A    between atoms: C6_6  and  N6_7 
REMARK    2  A    between atoms: CCN_19  and  N9_10 
REMARK    3  A    between atoms: CCK_16  and  OAN_12 
REMARK    4  A    between atoms: CCL_17  and  OAO_13 
REMARK    5  A    between atoms: CCC_15  and  CCM_18 
REMARK       I    between atoms: NBR_27  and  CCC_15 
REMARK    6  A    between atoms: CBZ_20  and  CBG_22 
REMARK       I    between atoms: NBS_28  and  CBZ_20 
REMARK    7  A    between atoms: CBG_22  and  CAX_23 
REMARK    8  A    between atoms: CAX_23  and  CAU_24 
REMARK    9  A    between atoms: CAU_24  and  CAW_25 
REMARK   10  A    between atoms: CAW_25  and  CBD_26 
REMARK   11  A    between atoms: CBD_26  and  NBR_27 
REMARK   12  A    between atoms: CCI_29  and  NBS_28 
REMARK   13  A    between atoms: CCB_30  and  CCI_29 
REMARK   14  A    between atoms: CCI_29  and  CBJ_32 
REMARK       I    between atoms: NBQ_44  and  CCB_30 
REMARK   15  A    between atoms: CBJ_32  and  CAZ_33 
REMARK   16  A    between atoms: CAZ_33  and  CAS_34 
REMARK   17  A    between atoms: CAS_34  and  CAR_35 
REMARK   18  A    between atoms: CAR_35  and  NAC_36 
REMARK   19  A    between atoms: CBH_39  and  CCA_37 
REMARK       I    between atoms: CCA_37  and  NBT_45 
REMARK   20  A    between atoms: CAY_40  and  CBH_39 
REMARK   21  A    between atoms: CAT_41  and  CAY_40 
REMARK   22  A    between atoms: CAV_42  and  CAT_41 
REMARK   23  A    between atoms: CBC_43  and  CAV_42 
REMARK   24  A    between atoms: CBC_43  and  NBQ_44 
REMARK   25  A    between atoms: NBT_45  and  CCJ_46 
REMARK   26  A    between atoms: CCJ_46  and  CBK_47 
REMARK   27  A    between atoms: CCJ_46  and  CCD_54 
REMARK   28  A    between atoms: CBK_47  and  CBB_48 
REMARK   29  A    between atoms: CBB_48  and  CBF_49 
REMARK   30  A    between atoms: CBF_49  and  NBP_50 
REMARK       I    between atoms: NBP_50  and  CBX_51 
REMARK       I    between atoms: CBX_51  and  NAB_52 
REMARK       I    between atoms: CBX_51  and  NAE_53 
REMARK       I    between atoms: CCD_54  and  N_56 
REMARK   31  A    between atoms: N_56  and  CA_57 
REMARK   32  A    between atoms: CA_57  and  CB_58 
REMARK   33  A    between atoms: CA_57  and  C_65 
REMARK   34  A    between atoms: CB_58  and  CG_59 
REMARK   35  A    between atoms: CG_59  and  CD_60 
REMARK   36  A    between atoms: CD_60  and  NE_61 
REMARK       I    between atoms: NE_61  and  CZ_62 
REMARK       I    between atoms: CZ_62  and  NH1_63 
REMARK       I    between atoms: C_65  and  NAF_67 
ROOT
ATOM      1  CCB A02 d          16.299   4.210   4.275  0.00  0.00     0.240 C 
ATOM      2  OAK A02 d          16.233   4.230   3.053  0.00  0.00    -0.271 OA
ATOM      3  NBQ A02 d          15.535   4.958   5.070  0.00  0.00    -0.359 N 
ATOM      4  H45 A02 d          15.659   4.890   6.061  0.00  0.00     0.162 HD
ENDROOT
BRANCH   1   5
ATOM      5  CCI A02 d          17.333   3.309   4.992  0.00  0.00     0.089 C 
ATOM      6  H23 A02 d          17.668   2.560   4.259  0.00  0.00     0.087 H 
BRANCH   5   7
ATOM      7  NBS A02 d          16.698   2.572   6.115  0.00  0.00    -0.348 N 
ATOM      8  CBZ A02 d          16.093   1.388   5.932  0.00  0.00     0.218 C 
ATOM      9  OAI A02 d          15.968   0.832   4.834  0.00  0.00    -0.274 OA
ATOM     10  H22 A02 d          16.721   2.970   7.032  0.00  0.00     0.163 HD
BRANCH   8  11
ATOM     11  CBG A02 d          15.493   0.757   7.206  0.00  0.00     0.009 C 
ATOM     12  H11 A02 d          16.231   0.072   7.646  0.00  0.00     0.047 H 
ATOM     13  H12 A02 d          14.588   0.195   6.931  0.00  0.00     0.047 H 
BRANCH  11  14
ATOM     14  CAX A02 d          15.118   1.824   8.253  0.00  0.00    -0.057 C 
ATOM     15  H13 A02 d          15.635   2.764   8.008  0.00  0.00     0.033 H 
ATOM     16  H14 A02 d          15.437   1.478   9.248  0.00  0.00     0.033 H 
BRANCH  14  17
ATOM     17  CAU A02 d          13.606   2.076   8.272  0.00  0.00    -0.063 C 
ATOM     18  H15 A02 d          13.106   1.182   8.674  0.00  0.00     0.033 H 
ATOM     19  H16 A02 d          13.266   2.254   7.241  0.00  0.00     0.033 H 
BRANCH  17  20
ATOM     20  CAW A02 d          13.214   3.282   9.131  0.00  0.00    -0.050 C 
ATOM     21  H17 A02 d          13.350   3.045  10.196  0.00  0.00     0.035 H 
ATOM     22  H18 A02 d          12.163   3.549   8.946  0.00  0.00     0.035 H 
BRANCH  20  23
ATOM     23  CBD A02 d          14.126   4.446   8.734  0.00  0.00    -0.005 C 
ATOM     24  H19 A02 d          14.208   4.470   7.638  0.00  0.00     0.064 H 
ATOM     25  H20 A02 d          15.120   4.279   9.173  0.00  0.00     0.064 H 
BRANCH  23  26
ATOM     26  NBR A02 d          13.618   5.749   9.199  0.00  0.00    -0.359 N 
ATOM     27  CCC A02 d          12.714   6.481   8.547  0.00  0.00     0.249 C 
ATOM     28  OAL A02 d          12.242   6.189   7.439  0.00  0.00    -0.271 OA
ATOM     29  H21 A02 d          13.975   6.108  10.061  0.00  0.00     0.162 HD
BRANCH  27  30
ATOM     30  CCM A02 d          12.247   7.771   9.246  0.00  0.00     0.144 C 
ATOM     31  OBV A02 d          11.226   7.491  10.262  0.00  0.00    -0.346 OA
ATOM     32  CCN A02 d          11.834   7.574  11.584  0.00  0.00     0.140 C 
ATOM     33  CCL A02 d          13.351   7.645  11.324  0.00  0.00     0.105 C 
ATOM     34  H10 A02 d          11.506   8.497  12.084  0.00  0.00     0.123 H 
ATOM     35  CCK A02 d          13.420   8.392  10.005  0.00  0.00     0.098 C 
ATOM     36  H8  A02 d          13.802   6.644  11.255  0.00  0.00     0.093 H 
ATOM     37  H7  A02 d          14.381   8.248   9.489  0.00  0.00     0.091 H 
ATOM     38  H9  A02 d          11.854   8.474   8.496  0.00  0.00     0.102 H 
BRANCH  32  39
ATOM     39  N9  A02 d          11.435   6.393  12.462  0.00  0.00    -0.294 N 
ATOM     40  C4  A02 d          12.172   5.313  12.701  0.00  0.00     0.167 A 
ATOM     41  N3  A02 d          13.388   4.923  12.288  0.00  0.00    -0.222 NA
ATOM     42  C5  A02 d          11.433   4.486  13.537  0.00  0.00     0.149 A 
ATOM     43  C2  A02 d          13.894   3.764  12.688  0.00  0.00     0.091 A 
ATOM     44  N1  A02 d          13.208   2.950  13.503  0.00  0.00    -0.222 NA
ATOM     45  H1  A02 d          14.881   3.469  12.349  0.00  0.00     0.146 H 
ATOM     46  C6  A02 d          11.981   3.279  13.937  0.00  0.00     0.155 A 
ATOM     47  N7  A02 d          10.271   5.082  13.795  0.00  0.00    -0.236 NA
ATOM     48  C8  A02 d          10.287   6.251  13.144  0.00  0.00     0.071 A 
ATOM     49  H4  A02 d           9.482   6.983  13.163  0.00  0.00     0.144 H 
BRANCH  46  50
ATOM     50  N6  A02 d          11.295   2.467  14.734  0.00  0.00    -0.382 N 
ATOM     51  H2  A02 d          10.390   2.084  14.423  0.00  0.00     0.157 HD
ATOM     52  H3  A02 d          11.667   2.220  15.662  0.00  0.00     0.157 HD
ENDBRANCH  46  50
ENDBRANCH  32  39
BRANCH  33  53
ATOM     53  OAO A02 d          13.992   8.406  12.338  0.00  0.00    -0.388 OA
ATOM     54  H6  A02 d          13.530   8.290  13.160  0.00  0.00     0.210 HD
ENDBRANCH  33  53
BRANCH  35  55
ATOM     55  OAN A02 d          13.156   9.792  10.222  0.00  0.00    -0.390 OA
ATOM     56  H5  A02 d          13.726  10.117  10.909  0.00  0.00     0.210 HD
ENDBRANCH  35  55
ENDBRANCH  27  30
ENDBRANCH  23  26
ENDBRANCH  20  23
ENDBRANCH  17  20
ENDBRANCH  14  17
ENDBRANCH  11  14
ENDBRANCH   8  11
ENDBRANCH   5   7
BRANCH   5  57
ATOM     57  CBJ A02 d          18.593   4.078   5.451  0.00  0.00    -0.038 C 
ATOM     58  H24 A02 d          18.477   5.129   5.149  0.00  0.00     0.036 H 
ATOM     59  H25 A02 d          19.462   3.642   4.938  0.00  0.00     0.036 H 
BRANCH  57  60
ATOM     60  CAZ A02 d          18.867   4.046   6.958  0.00  0.00    -0.061 C 
ATOM     61  H26 A02 d          18.260   3.254   7.421  0.00  0.00     0.033 H 
ATOM     62  H27 A02 d          18.598   5.018   7.397  0.00  0.00     0.033 H 
BRANCH  60  63
ATOM     63  CAS A02 d          20.361   3.763   7.222  0.00  0.00    -0.043 C 
ATOM     64  H28 A02 d          20.968   4.496   6.671  0.00  0.00     0.035 H 
ATOM     65  H29 A02 d          20.601   2.748   6.872  0.00  0.00     0.035 H 
BRANCH  63  66
ATOM     66  CAR A02 d          20.689   3.866   8.720  0.00  0.00     0.080 C 
ATOM     67  H30 A02 d          20.483   4.890   9.068  0.00  0.00     0.075 H 
ATOM     68  H31 A02 d          21.752   3.631   8.877  0.00  0.00     0.075 H 
BRANCH  66  69
ATOM     69  NAC A02 d          19.861   2.915   9.483  0.00  0.00    -0.079 N 
ATOM     70  H32 A02 d          18.956   3.323   9.659  0.00  0.00     0.274 HD
ATOM     71  H33 A02 d          20.312   2.707  10.361  0.00  0.00     0.274 HD
ATOM     72  H34 A02 d          19.750   2.065   8.953  0.00  0.00     0.274 HD
ENDBRANCH  66  69
ENDBRANCH  63  66
ENDBRANCH  60  63
ENDBRANCH  57  60
ENDBRANCH   5  57
ENDBRANCH   1   5
BRANCH   3  73
ATOM     73  CBC A02 d          14.509   5.886   4.543  0.00  0.00    -0.005 C 
ATOM     74  H43 A02 d          14.581   5.920   3.446  0.00  0.00     0.064 H 
ATOM     75  H44 A02 d          13.511   5.526   4.834  0.00  0.00     0.064 H 
BRANCH  73  76
ATOM     76  CAV A02 d          14.719   7.297   5.106  0.00  0.00    -0.050 C 
ATOM     77  H41 A02 d          14.149   7.402   6.041  0.00  0.00     0.035 H 
ATOM     78  H42 A02 d          15.789   7.448   5.310  0.00  0.00     0.035 H 
BRANCH  76  79
ATOM     79  CAT A02 d          14.242   8.353   4.102  0.00  0.00    -0.063 C 
ATOM     80  H39 A02 d          14.811   9.280   4.263  0.00  0.00     0.033 H 
ATOM     81  H40 A02 d          14.426   7.983   3.082  0.00  0.00     0.033 H 
BRANCH  79  82
ATOM     82  CAY A02 d          12.748   8.654   4.258  0.00  0.00    -0.057 C 
ATOM     83  H37 A02 d          12.173   7.907   3.691  0.00  0.00     0.033 H 
ATOM     84  H38 A02 d          12.482   8.592   5.323  0.00  0.00     0.033 H 
BRANCH  82  85
ATOM     85  CBH A02 d          12.393  10.057   3.736  0.00  0.00     0.009 C 
ATOM     86  H35 A02 d          12.923  10.229   2.788  0.00  0.00     0.047 H 
ATOM     87  H36 A02 d          11.307  10.108   3.563  0.00  0.00     0.047 H 
BRANCH  85  88
ATOM     88  CCA A02 d          12.792  11.154   4.737  0.00  0.00     0.218 C 
ATOM     89  OAJ A02 d          12.615  10.999   5.949  0.00  0.00    -0.274 OA
ATOM     90  NBT A02 d          13.337  12.246   4.188  0.00  0.00    -0.348 N 
ATOM     91  H46 A02 d          13.449  12.276   3.195  0.00  0.00     0.163 HD
BRANCH  90  92
ATOM     92  CCJ A02 d          13.783  13.417   4.984  0.00  0.00     0.089 C 
ATOM     93  H47 A02 d          13.276  13.377   5.958  0.00  0.00     0.087 H 
BRANCH  92  94
ATOM     94  CBK A02 d          13.386  14.751   4.297  0.00  0.00    -0.036 C 
ATOM     95  H48 A02 d          14.163  15.003   3.559  0.00  0.00     0.036 H 
ATOM     96  H49 A02 d          13.344  15.535   5.067  0.00  0.00     0.036 H 
BRANCH  94  97
ATOM     97  CBB A02 d          12.030  14.716   3.572  0.00  0.00    -0.048 C 
ATOM     98  H50 A02 d          11.491  13.806   3.874  0.00  0.00     0.035 H 
ATOM     99  H51 A02 d          12.209  14.694   2.487  0.00  0.00     0.035 H 
BRANCH  97 100
ATOM    100  CBF A02 d          11.159  15.938   3.905  0.00  0.00     0.009 C 
ATOM    101  H52 A02 d          10.906  15.934   4.976  0.00  0.00     0.064 H 
ATOM    102  H53 A02 d          10.235  15.910   3.310  0.00  0.00     0.064 H 
BRANCH 100 103
ATOM    103  NBP A02 d          11.926  17.156   3.579  0.00  0.00    -0.227 N 
ATOM    104  CBX A02 d          11.675  17.940   2.522  0.00  0.00     0.665 C 
ATOM    105  NAB A02 d          10.683  17.691   1.668  0.00  0.00    -0.235 N 
ATOM    106  NAE A02 d          12.442  19.010   2.330  0.00  0.00    -0.235 N 
ATOM    107  H55 A02 d          10.523  18.319   0.867  0.00  0.00     0.174 HD
ATOM    108  H56 A02 d          10.077  16.871   1.808  0.00  0.00     0.174 HD
ATOM    109  H57 A02 d          13.212  19.215   2.982  0.00  0.00     0.174 HD
ATOM    110  H58 A02 d          12.265  19.633   1.529  0.00  0.00     0.174 HD
ATOM    111  H54 A02 d          12.702  17.419   4.202  0.00  0.00     0.177 HD
ENDBRANCH 100 103
ENDBRANCH  97 100
ENDBRANCH  94  97
ENDBRANCH  92  94
BRANCH  92 112
ATOM    112  CCD A02 d          15.309  13.351   5.237  0.00  0.00     0.241 C 
ATOM    113  OAM A02 d          15.779  12.582   6.075  0.00  0.00    -0.271 OA
ATOM    114  N   A02 d          16.048  14.178   4.494  0.00  0.00    -0.346 N 
ATOM    115  H59 A02 d          15.581  14.770   3.836  0.00  0.00     0.163 HD
BRANCH 114 116
ATOM    116  CA  A02 d          17.522  14.263   4.592  0.00  0.00     0.089 C 
ATOM    117  H60 A02 d          17.891  13.364   5.106  0.00  0.00     0.087 H 
BRANCH 116 118
ATOM    118  CB  A02 d          17.914  15.498   5.413  0.00  0.00    -0.036 C 
ATOM    119  H61 A02 d          18.940  15.794   5.147  0.00  0.00     0.036 H 
ATOM    120  H62 A02 d          17.872  15.245   6.483  0.00  0.00     0.036 H 
BRANCH 118 121
ATOM    121  CG  A02 d          16.971  16.673   5.142  0.00  0.00    -0.048 C 
ATOM    122  H63 A02 d          15.982  16.443   5.567  0.00  0.00     0.035 H 
ATOM    123  H64 A02 d          16.879  16.816   4.056  0.00  0.00     0.035 H 
BRANCH 121 124
ATOM    124  CD  A02 d          17.495  17.960   5.771  0.00  0.00     0.009 C 
ATOM    125  H65 A02 d          17.084  18.831   5.241  0.00  0.00     0.064 H 
ATOM    126  H66 A02 d          18.594  17.983   5.718  0.00  0.00     0.064 H 
BRANCH 124 127
ATOM    127  NE  A02 d          17.063  17.974   7.165  0.00  0.00    -0.227 N 
ATOM    128  CZ  A02 d          17.800  18.394   8.192  0.00  0.00     0.665 C 
ATOM    129  NH1 A02 d          19.026  18.896   8.049  0.00  0.00    -0.235 N 
ATOM    130  NH2 A02 d          17.250  18.316   9.396  0.00  0.00    -0.235 N 
ATOM    131  H68 A02 d          19.555  19.207   8.876  0.00  0.00     0.174 HD
ATOM    132  H69 A02 d          19.445  18.971   7.111  0.00  0.00     0.174 HD
ATOM    133  H70 A02 d          16.302  17.929   9.505  0.00  0.00     0.174 HD
ATOM    134  H71 A02 d          17.771  18.643  10.223  0.00  0.00     0.174 HD
ATOM    135  H67 A02 d          16.113  17.633   7.371  0.00  0.00     0.177 HD
ENDBRANCH 124 127
ENDBRANCH 121 124
ENDBRANCH 118 121
ENDBRANCH 116 118
BRANCH 116 136
ATOM    136  C   A02 d          18.180  14.332   3.194  0.00  0.00     0.238 C 
ATOM    137  O   A02 d          17.509  14.318   2.160  0.00  0.00    -0.271 OA
ATOM    138  NAF A02 d          19.508  14.428   3.207  0.00  0.00    -0.368 N 
ATOM    139  H72 A02 d          20.014  14.477   2.346  0.00  0.00     0.159 HD
ATOM    140  H73 A02 d          19.999  14.451   4.078  0.00  0.00     0.159 HD
ENDBRANCH 116 136
ENDBRANCH 114 116
ENDBRANCH  92 112
ENDBRANCH  90  92
ENDBRANCH  85  88
ENDBRANCH  82  85
ENDBRANCH  79  82
ENDBRANCH  76  79
ENDBRANCH  73  76
ENDBRANCH   3  73
TORSDOF 36
ENDMDL
MODEL 2
REMARK VINA RESULT:      -5.9      4.086      6.165
REMARK WARNING: 32 MAX_TORS EXCEEDED!!!
REMARK  36 active torsions:
REMARK  status: ('A' for Active; 'I' for Inactive)
REMARK    1  A    between atoms: C6_6  and  N6_7 
REMARK    2  A    between atoms: CCN_19  and  N9_10 
REMARK    3  A    between atoms: CCK_16  and  OAN_12 
REMARK    4  A    between atoms: CCL_17  and  OAO_13 
REMARK    5  A    between atoms: CCC_15  and  CCM_18 
REMARK       I    between atoms: NBR_27  and  CCC_15 
REMARK    6  A    between atoms: CBZ_20  and  CBG_22 
REMARK       I    between atoms: NBS_28  and  CBZ_20 
REMARK    7  A    between atoms: CBG_22  and  CAX_23 
REMARK    8  A    between atoms: CAX_23  and  CAU_24 
REMARK    9  A    between atoms: CAU_24  and  CAW_25 
REMARK   10  A    between atoms: CAW_25  and  CBD_26 
REMARK   11  A    between atoms: CBD_26  and  NBR_27 
REMARK   12  A    between atoms: CCI_29  and  NBS_28 
REMARK   13  A    between atoms: CCB_30  and  CCI_29 
REMARK   14  A    between atoms: CCI_29  and  CBJ_32 
REMARK       I    between atoms: NBQ_44  and  CCB_30 
REMARK   15  A    between atoms: CBJ_32  and  CAZ_33 
REMARK   16  A    between atoms: CAZ_33  and  CAS_34 
REMARK   17  A    between atoms: CAS_34  and  CAR_35 
REMARK   18  A    between atoms: CAR_35  and  NAC_36 
REMARK   19  A    between atoms: CBH_39  and  CCA_37 
REMARK       I    between atoms: CCA_37  and  NBT_45 
REMARK   20  A    between atoms: CAY_40  and  CBH_39 
REMARK   21  A    between atoms: CAT_41  and  CAY_40 
REMARK   22  A    between atoms: CAV_42  and  CAT_41 
REMARK   23  A    between atoms: CBC_43  and  CAV_42 
REMARK   24  A    between atoms: CBC_43  and  NBQ_44 
REMARK   25  A    between atoms: NBT_45  and  CCJ_46 
REMARK   26  A    between atoms: CCJ_46  and  CBK_47 
REMARK   27  A    between atoms: CCJ_46  and  CCD_54 
REMARK   28  A    between atoms: CBK_47  and  CBB_48 
REMARK   29  A    between atoms: CBB_48  and  CBF_49 
REMARK   30  A    between atoms: CBF_49  and  NBP_50 
REMARK       I    between atoms: NBP_50  and  CBX_51 
REMARK       I    between atoms: CBX_51  and  NAB_52 
REMARK       I    between atoms: CBX_51  and  NAE_53 
REMARK       I    between atoms: CCD_54  and  N_56 
REMARK   31  A    between atoms: N_56  and  CA_57 
REMARK   32  A    between atoms: CA_57  and  CB_58 
REMARK   33  A    between atoms: CA_57  and  C_65 
REMARK   34  A    between atoms: CB_58  and  CG_59 
REMARK   35  A    between atoms: CG_59  and  CD_60 
REMARK   36  A    between atoms: CD_60  and  NE_61 
REMARK       I    between atoms: NE_61  and  CZ_62 
REMARK       I    between atoms: CZ_62  and  NH1_63 
REMARK       I    between atoms: C_65  and  NAF_67 
ROOT
ATOM      1  CCB A02 d          16.998   5.846   5.738  0.00  0.00     0.240 C 
ATOM      2  OAK A02 d          15.793   5.806   5.522  0.00  0.00    -0.271 OA
ATOM      3  NBQ A02 d          17.693   6.976   5.845  0.00  0.00    -0.359 N 
ATOM      4  H45 A02 d          18.678   6.922   6.012  0.00  0.00     0.162 HD
ENDROOT
BRANCH   1   5
ATOM      5  CCI A02 d          17.816   4.538   5.869  0.00  0.00     0.089 C 
ATOM      6  H23 A02 d          18.191   4.292   4.865  0.00  0.00     0.087 H 
BRANCH   5   7
ATOM      7  NBS A02 d          16.944   3.416   6.302  0.00  0.00    -0.348 N 
ATOM      8  CBZ A02 d          16.553   2.455   5.450  0.00  0.00     0.218 C 
ATOM      9  OAI A02 d          16.831   2.437   4.245  0.00  0.00    -0.274 OA
ATOM     10  H22 A02 d          16.641   3.375   7.253  0.00  0.00     0.163 HD
BRANCH   8  11
ATOM     11  CBG A02 d          15.657   1.361   6.066  0.00  0.00     0.009 C 
ATOM     12  H11 A02 d          15.708   0.462   5.435  0.00  0.00     0.047 H 
ATOM     13  H12 A02 d          14.620   1.727   6.099  0.00  0.00     0.047 H 
BRANCH  11  14
ATOM     14  CAX A02 d          16.101   0.992   7.495  0.00  0.00    -0.057 C 
ATOM     15  H13 A02 d          17.182   1.172   7.592  0.00  0.00     0.033 H 
ATOM     16  H14 A02 d          15.889  -0.073   7.673  0.00  0.00     0.033 H 
BRANCH  14  17
ATOM     17  CAU A02 d          15.358   1.831   8.541  0.00  0.00    -0.063 C 
ATOM     18  H15 A02 d          16.002   2.673   8.838  0.00  0.00     0.033 H 
ATOM     19  H16 A02 d          15.155   1.199   9.418  0.00  0.00     0.033 H 
BRANCH  17  20
ATOM     20  CAW A02 d          14.031   2.390   8.023  0.00  0.00    -0.050 C 
ATOM     21  H17 A02 d          13.420   1.579   7.601  0.00  0.00     0.035 H 
ATOM     22  H18 A02 d          14.219   3.149   7.248  0.00  0.00     0.035 H 
BRANCH  20  23
ATOM     23  CBD A02 d          13.304   3.026   9.211  0.00  0.00    -0.005 C 
ATOM     24  H19 A02 d          13.461   2.396  10.098  0.00  0.00     0.064 H 
ATOM     25  H20 A02 d          12.230   3.075   8.981  0.00  0.00     0.064 H 
BRANCH  23  26
ATOM     26  NBR A02 d          13.784   4.388   9.507  0.00  0.00    -0.359 N 
ATOM     27  CCC A02 d          13.418   5.100  10.573  0.00  0.00     0.249 C 
ATOM     28  OAL A02 d          12.578   4.733  11.408  0.00  0.00    -0.271 OA
ATOM     29  H21 A02 d          14.428   4.805   8.866  0.00  0.00     0.162 HD
BRANCH  27  30
ATOM     30  CCM A02 d          14.105   6.468  10.750  0.00  0.00     0.144 C 
ATOM     31  OBV A02 d          14.057   7.256   9.514  0.00  0.00    -0.346 OA
ATOM     32  CCN A02 d          13.043   8.295   9.652  0.00  0.00     0.140 C 
ATOM     33  CCL A02 d          12.268   7.933  10.934  0.00  0.00     0.105 C 
ATOM     34  H10 A02 d          13.531   9.272   9.783  0.00  0.00     0.123 H 
ATOM     35  CCK A02 d          13.343   7.288  11.791  0.00  0.00     0.098 C 
ATOM     36  H8  A02 d          11.436   7.243  10.728  0.00  0.00     0.093 H 
ATOM     37  H7  A02 d          12.923   6.667  12.595  0.00  0.00     0.091 H 
ATOM     38  H9  A02 d          15.149   6.316  11.065  0.00  0.00     0.102 H 
BRANCH  32  39
ATOM     39  N9  A02 d          12.149   8.375   8.419  0.00  0.00    -0.294 N 
ATOM     40  C4  A02 d          11.528   7.355   7.836  0.00  0.00     0.167 A 
ATOM     41  N3  A02 d          11.485   6.038   8.096  0.00  0.00    -0.222 NA
ATOM     42  C5  A02 d          10.833   7.862   6.747  0.00  0.00     0.149 A 
ATOM     43  C2  A02 d          10.769   5.225   7.330  0.00  0.00     0.091 A 
ATOM     44  N1  A02 d          10.081   5.688   6.278  0.00  0.00    -0.222 NA
ATOM     45  H1  A02 d          10.742   4.165   7.559  0.00  0.00     0.146 H 
ATOM     46  C6  A02 d          10.097   6.993   5.959  0.00  0.00     0.155 A 
ATOM     47  N7  A02 d          11.038   9.177   6.695  0.00  0.00    -0.236 NA
ATOM     48  C8  A02 d          11.833   9.481   7.727  0.00  0.00     0.071 A 
ATOM     49  H4  A02 d          12.176  10.485   7.971  0.00  0.00     0.144 H 
BRANCH  46  50
ATOM     50  N6  A02 d           9.425   7.451   4.908  0.00  0.00    -0.382 N 
ATOM     51  H2  A02 d           9.309   8.465   4.774  0.00  0.00     0.157 HD
ATOM     52  H3  A02 d           9.021   6.791   4.228  0.00  0.00     0.157 HD
ENDBRANCH  46  50
ENDBRANCH  32  39
BRANCH  33  53
ATOM     53  OAO A02 d          11.790   9.108  11.572  0.00  0.00    -0.388 OA
ATOM     54  H6  A02 d          11.455   9.709  10.916  0.00  0.00     0.210 HD
ENDBRANCH  33  53
BRANCH  35  55
ATOM     55  OAN A02 d          14.215   8.304  12.325  0.00  0.00    -0.390 OA
ATOM     56  H5  A02 d          14.211   9.058  11.748  0.00  0.00     0.210 HD
ENDBRANCH  35  55
ENDBRANCH  27  30
ENDBRANCH  23  26
ENDBRANCH  20  23
ENDBRANCH  17  20
ENDBRANCH  14  17
ENDBRANCH  11  14
ENDBRANCH   8  11
ENDBRANCH   5   7
BRANCH   5  57
ATOM     57  CBJ A02 d          19.054   4.687   6.782  0.00  0.00    -0.038 C 
ATOM     58  H24 A02 d          18.779   4.335   7.788  0.00  0.00     0.036 H 
ATOM     59  H25 A02 d          19.317   5.754   6.827  0.00  0.00     0.036 H 
BRANCH  57  60
ATOM     60  CAZ A02 d          20.297   3.912   6.333  0.00  0.00    -0.061 C 
ATOM     61  H26 A02 d          20.039   2.849   6.213  0.00  0.00     0.033 H 
ATOM     62  H27 A02 d          21.084   4.015   7.094  0.00  0.00     0.033 H 
BRANCH  60  63
ATOM     63  CAS A02 d          20.813   4.466   4.988  0.00  0.00    -0.043 C 
ATOM     64  H28 A02 d          20.024   4.356   4.228  0.00  0.00     0.035 H 
ATOM     65  H29 A02 d          21.701   3.893   4.681  0.00  0.00     0.035 H 
BRANCH  63  66
ATOM     66  CAR A02 d          21.190   5.950   5.107  0.00  0.00     0.080 C 
ATOM     67  H30 A02 d          22.285   6.052   5.067  0.00  0.00     0.075 H 
ATOM     68  H31 A02 d          20.819   6.345   6.065  0.00  0.00     0.075 H 
BRANCH  66  69
ATOM     69  NAC A02 d          20.588   6.714   3.999  0.00  0.00    -0.079 N 
ATOM     70  H32 A02 d          20.297   7.619   4.334  0.00  0.00     0.274 HD
ATOM     71  H33 A02 d          19.789   6.214   3.642  0.00  0.00     0.274 HD
ATOM     72  H34 A02 d          21.268   6.830   3.263  0.00  0.00     0.274 HD
ENDBRANCH  66  69
ENDBRANCH  63  66
ENDBRANCH  60  63
ENDBRANCH  57  60
ENDBRANCH   5  57
ENDBRANCH   1   5
BRANCH   3  73
ATOM     73  CBC A02 d          17.064   8.312   5.726  0.00  0.00    -0.005 C 
ATOM     74  H43 A02 d          17.826   9.045   5.424  0.00  0.00     0.064 H 
ATOM     75  H44 A02 d          16.271   8.272   4.965  0.00  0.00     0.064 H 
BRANCH  73  76
ATOM     76  CAV A02 d          16.455   8.741   7.066  0.00  0.00    -0.050 C 
ATOM     77  H41 A02 d          16.004   7.865   7.555  0.00  0.00     0.035 H 
ATOM     78  H42 A02 d          17.247   9.151   7.708  0.00  0.00     0.035 H 
BRANCH  76  79
ATOM     79  CAT A02 d          15.377   9.809   6.848  0.00  0.00    -0.063 C 
ATOM     80  H39 A02 d          14.567   9.650   7.575  0.00  0.00     0.033 H 
ATOM     81  H40 A02 d          15.823  10.802   7.008  0.00  0.00     0.033 H 
BRANCH  79  82
ATOM     82  CAY A02 d          14.792   9.749   5.434  0.00  0.00    -0.057 C 
ATOM     83  H37 A02 d          15.618   9.730   4.707  0.00  0.00     0.033 H 
ATOM     84  H38 A02 d          14.193   8.832   5.335  0.00  0.00     0.033 H 
BRANCH  82  85
ATOM     85  CBH A02 d          13.896  10.964   5.136  0.00  0.00     0.009 C 
ATOM     86  H35 A02 d          13.117  11.030   5.910  0.00  0.00     0.047 H 
ATOM     87  H36 A02 d          14.512  11.875   5.158  0.00  0.00     0.047 H 
BRANCH  85  88
ATOM     88  CCA A02 d          13.222  10.849   3.759  0.00  0.00     0.218 C 
ATOM     89  OAJ A02 d          13.653  11.481   2.789  0.00  0.00    -0.274 OA
ATOM     90  NBT A02 d          12.170  10.023   3.712  0.00  0.00    -0.348 N 
ATOM     91  H46 A02 d          11.902   9.546   4.549  0.00  0.00     0.163 HD
BRANCH  90  92
ATOM     92  CCJ A02 d          11.383   9.781   2.478  0.00  0.00     0.089 C 
ATOM     93  H47 A02 d          11.798  10.415   1.682  0.00  0.00     0.087 H 
BRANCH  92  94
ATOM     94  CBK A02 d           9.894  10.174   2.671  0.00  0.00    -0.036 C 
ATOM     95  H48 A02 d           9.443   9.474   3.390  0.00  0.00     0.036 H 
ATOM     96  H49 A02 d           9.385  10.081   1.701  0.00  0.00     0.036 H 
BRANCH  94  97
ATOM     97  CBB A02 d           9.676  11.605   3.193  0.00  0.00    -0.048 C 
ATOM     98  H50 A02 d           9.012  12.138   2.496  0.00  0.00     0.035 H 
ATOM     99  H51 A02 d          10.648  12.117   3.237  0.00  0.00     0.035 H 
BRANCH  97 100
ATOM    100  CBF A02 d           9.042  11.624   4.593  0.00  0.00     0.009 C 
ATOM    101  H52 A02 d           9.062  10.613   5.024  0.00  0.00     0.064 H 
ATOM    102  H53 A02 d           8.001  11.973   4.525  0.00  0.00     0.064 H 
BRANCH 100 103
ATOM    103  NBP A02 d           9.823  12.544   5.442  0.00  0.00    -0.227 N 
ATOM    104  CBX A02 d           9.809  12.525   6.781  0.00  0.00     0.665 C 
ATOM    105  NAB A02 d           9.085  11.646   7.474  0.00  0.00    -0.235 N 
ATOM    106  NAE A02 d          10.553  13.410   7.436  0.00  0.00    -0.235 N 
ATOM    107  H55 A02 d           9.101  11.664   8.505  0.00  0.00     0.174 HD
ATOM    108  H56 A02 d           8.510  10.949   6.980  0.00  0.00     0.174 HD
ATOM    109  H57 A02 d          11.118  14.096   6.914  0.00  0.00     0.174 HD
ATOM    110  H58 A02 d          10.566  13.412   8.467  0.00  0.00     0.174 HD
ATOM    111  H54 A02 d          10.416  13.245   4.976  0.00  0.00     0.177 HD
ENDBRANCH 100 103
ENDBRANCH  97 100
ENDBRANCH  94  97
ENDBRANCH  92  94
BRANCH  92 112
ATOM    112  CCD A02 d          11.517   8.305   2.031  0.00  0.00     0.241 C 
ATOM    113  OAM A02 d          10.590   7.509   2.184  0.00  0.00    -0.271 OA
ATOM    114  N   A02 d          12.691   7.977   1.486  0.00  0.00    -0.346 N 
ATOM    115  H59 A02 d          13.389   8.688   1.402  0.00  0.00     0.163 HD
BRANCH 114 116
ATOM    116  CA  A02 d          13.012   6.616   1.000  0.00  0.00     0.089 C 
ATOM    117  H60 A02 d          12.144   5.966   1.182  0.00  0.00     0.087 H 
BRANCH 116 118
ATOM    118  CB  A02 d          14.215   6.062   1.775  0.00  0.00    -0.036 C 
ATOM    119  H61 A02 d          14.953   5.672   1.058  0.00  0.00     0.036 H 
ATOM    120  H62 A02 d          13.875   5.247   2.430  0.00  0.00     0.036 H 
BRANCH 118 121
ATOM    121  CG  A02 d          14.877   7.145   2.630  0.00  0.00    -0.048 C 
ATOM    122  H63 A02 d          14.985   6.772   3.659  0.00  0.00     0.035 H 
ATOM    123  H64 A02 d          14.240   8.042   2.630  0.00  0.00     0.035 H 
BRANCH 121 124
ATOM    124  CD  A02 d          16.254   7.514   2.088  0.00  0.00     0.009 C 
ATOM    125  H65 A02 d          16.335   7.216   1.032  0.00  0.00     0.064 H 
ATOM    126  H66 A02 d          17.036   7.007   2.673  0.00  0.00     0.064 H 
BRANCH 124 127
ATOM    127  NE  A02 d          16.399   8.961   2.210  0.00  0.00    -0.227 N 
ATOM    128  CZ  A02 d          16.211   9.837   1.224  0.00  0.00     0.665 C 
ATOM    129  NH1 A02 d          15.822   9.479   0.000  0.00  0.00    -0.235 N 
ATOM    130  NH2 A02 d          16.407  11.116   1.512  0.00  0.00    -0.235 N 
ATOM    131  H68 A02 d          15.689  10.196  -0.728  0.00  0.00     0.174 HD
ATOM    132  H69 A02 d          15.653   8.486  -0.217  0.00  0.00     0.174 HD
ATOM    133  H70 A02 d          16.708  11.391   2.458  0.00  0.00     0.174 HD
ATOM    134  H71 A02 d          16.259  11.835   0.789  0.00  0.00     0.174 HD
ATOM    135  H67 A02 d          16.669   9.335   3.131  0.00  0.00     0.177 HD
ENDBRANCH 124 127
ENDBRANCH 121 124
ENDBRANCH 118 121
ENDBRANCH 116 118
BRANCH 116 136
ATOM    136  C   A02 d          13.316   6.613  -0.515  0.00  0.00     0.238 C 
ATOM    137  O   A02 d          13.983   7.503  -1.046  0.00  0.00    -0.271 OA
ATOM    138  NAF A02 d          12.823   5.570  -1.180  0.00  0.00    -0.368 N 
ATOM    139  H72 A02 d          12.973   5.489  -2.166  0.00  0.00     0.159 HD
ATOM    140  H73 A02 d          12.302   4.868  -0.695  0.00  0.00     0.159 HD
ENDBRANCH 116 136
ENDBRANCH 114 116
ENDBRANCH  92 112
ENDBRANCH  90  92
ENDBRANCH  85  88
ENDBRANCH  82  85
ENDBRANCH  79  82
ENDBRANCH  76  79
ENDBRANCH  73  76
ENDBRANCH   3  73
TORSDOF 36
ENDMDL
MODEL 3
REMARK VINA RESULT:      -5.6      3.014      5.825
REMARK WARNING: 32 MAX_TORS EXCEEDED!!!
REMARK  36 active torsions:
REMARK  status: ('A' for Active; 'I' for Inactive)
REMARK    1  A    between atoms: C6_6  and  N6_7 
REMARK    2  A    between atoms: CCN_19  and  N9_10 
REMARK    3  A    between atoms: CCK_16  and  OAN_12 
REMARK    4  A    between atoms: CCL_17  and  OAO_13 
REMARK    5  A    between atoms: CCC_15  and  CCM_18 
REMARK       I    between atoms: NBR_27  and  CCC_15 
REMARK    6  A    between atoms: CBZ_20  and  CBG_22 
REMARK       I    between atoms: NBS_28  and  CBZ_20 
REMARK    7  A    between atoms: CBG_22  and  CAX_23 
REMARK    8  A    between atoms: CAX_23  and  CAU_24 
REMARK    9  A    between atoms: CAU_24  and  CAW_25 
REMARK   10  A    between atoms: CAW_25  and  CBD_26 
REMARK   11  A    between atoms: CBD_26  and  NBR_27 
REMARK   12  A    between atoms: CCI_29  and  NBS_28 
REMARK   13  A    between atoms: CCB_30  and  CCI_29 
REMARK   14  A    between atoms: CCI_29  and  CBJ_32 
REMARK       I    between atoms: NBQ_44  and  CCB_30 
REMARK   15  A    between atoms: CBJ_32  and  CAZ_33 
REMARK   16  A    between atoms: CAZ_33  and  CAS_34 
REMARK   17  A    between atoms: CAS_34  and  CAR_35 
REMARK   18  A    between atoms: CAR_35  and  NAC_36 
REMARK   19  A    between atoms: CBH_39  and  CCA_37 
REMARK       I    between atoms: CCA_37  and  NBT_45 
REMARK   20  A    between atoms: CAY_40  and  CBH_39 
REMARK   21  A    between atoms: CAT_41  and  CAY_40 
REMARK   22  A    between atoms: CAV_42  and  CAT_41 
REMARK   23  A    between atoms: CBC_43  and  CAV_42 
REMARK   24  A    between atoms: CBC_43  and  NBQ_44 
REMARK   25  A    between atoms: NBT_45  and  CCJ_46 
REMARK   26  A    between atoms: CCJ_46  and  CBK_47 
REMARK   27  A    between atoms: CCJ_46  and  CCD_54 
REMARK   28  A    between atoms: CBK_47  and  CBB_48 
REMARK   29  A    between atoms: CBB_48  and  CBF_49 
REMARK   30  A    between atoms: CBF_49  and  NBP_50 
REMARK       I    between atoms: NBP_50  and  CBX_51 
REMARK       I    between atoms: CBX_51  and  NAB_52 
REMARK       I    between atoms: CBX_51  and  NAE_53 
REMARK       I    between atoms: CCD_54  and  N_56 
REMARK   31  A    between atoms: N_56  and  CA_57 
REMARK   32  A    between atoms: CA_57  and  CB_58 
REMARK   33  A    between atoms: CA_57  and  C_65 
REMARK   34  A    between atoms: CB_58  and  CG_59 
REMARK   35  A    between atoms: CG_59  and  CD_60 
REMARK   36  A    between atoms: CD_60  and  NE_61 
REMARK       I    between atoms: NE_61  and  CZ_62 
REMARK       I    between atoms: CZ_62  and  NH1_63 
REMARK       I    between atoms: C_65  and  NAF_67 
ROOT
ATOM      1  CCB A02 d          16.798   7.330   3.490  0.00  0.00     0.240 C 
ATOM      2  OAK A02 d          17.349   6.449   2.840  0.00  0.00    -0.271 OA
ATOM      3  NBQ A02 d          15.534   7.705   3.305  0.00  0.00    -0.359 N 
ATOM      4  H45 A02 d          15.162   8.441   3.871  0.00  0.00     0.162 HD
ENDROOT
BRANCH   1   5
ATOM      5  CCI A02 d          17.578   8.109   4.577  0.00  0.00     0.089 C 
ATOM      6  H23 A02 d          18.395   7.455   4.916  0.00  0.00     0.087 H 
BRANCH   5   7
ATOM      7  NBS A02 d          16.711   8.376   5.753  0.00  0.00    -0.348 N 
ATOM      8  CBZ A02 d          16.987   7.869   6.966  0.00  0.00     0.218 C 
ATOM      9  OAI A02 d          17.936   7.112   7.204  0.00  0.00    -0.274 OA
ATOM     10  H22 A02 d          15.899   8.948   5.640  0.00  0.00     0.163 HD
BRANCH   8  11
ATOM     11  CBG A02 d          15.988   8.251   8.077  0.00  0.00     0.009 C 
ATOM     12  H11 A02 d          16.495   8.183   9.050  0.00  0.00     0.047 H 
ATOM     13  H12 A02 d          15.144   7.546   8.054  0.00  0.00     0.047 H 
BRANCH  11  14
ATOM     14  CAX A02 d          15.448   9.683   7.895  0.00  0.00    -0.057 C 
ATOM     15  H13 A02 d          15.365   9.901   6.820  0.00  0.00     0.033 H 
ATOM     16  H14 A02 d          16.148  10.393   8.361  0.00  0.00     0.033 H 
BRANCH  14  17
ATOM     17  CAU A02 d          14.068   9.843   8.545  0.00  0.00    -0.063 C 
ATOM     18  H15 A02 d          13.300   9.541   7.817  0.00  0.00     0.033 H 
ATOM     19  H16 A02 d          13.926  10.901   8.810  0.00  0.00     0.033 H 
BRANCH  17  20
ATOM     20  CAW A02 d          13.903   8.995   9.809  0.00  0.00    -0.050 C 
ATOM     21  H17 A02 d          14.116   9.604  10.700  0.00  0.00     0.035 H 
ATOM     22  H18 A02 d          14.592   8.137   9.778  0.00  0.00     0.035 H 
BRANCH  20  23
ATOM     23  CBD A02 d          12.455   8.501   9.847  0.00  0.00    -0.005 C 
ATOM     24  H19 A02 d          12.003   8.661   8.857  0.00  0.00     0.064 H 
ATOM     25  H20 A02 d          11.905   9.084  10.600  0.00  0.00     0.064 H 
BRANCH  23  26
ATOM     26  NBR A02 d          12.351   7.072  10.189  0.00  0.00    -0.359 N 
ATOM     27  CCC A02 d          12.225   6.601  11.430  0.00  0.00     0.249 C 
ATOM     28  OAL A02 d          12.248   7.302  12.452  0.00  0.00    -0.271 OA
ATOM     29  H21 A02 d          12.377   6.410   9.439  0.00  0.00     0.162 HD
BRANCH  27  30
ATOM     30  CCM A02 d          12.038   5.078  11.567  0.00  0.00     0.144 C 
ATOM     31  OBV A02 d          12.349   4.384  10.313  0.00  0.00    -0.346 OA
ATOM     32  CCN A02 d          13.653   3.744  10.434  0.00  0.00     0.140 C 
ATOM     33  CCL A02 d          14.261   4.312  11.731  0.00  0.00     0.105 C 
ATOM     34  H10 A02 d          13.523   2.657  10.537  0.00  0.00     0.123 H 
ATOM     35  CCK A02 d          13.032   4.535  12.594  0.00  0.00     0.098 C 
ATOM     36  H8  A02 d          14.812   5.247  11.550  0.00  0.00     0.093 H 
ATOM     37  H7  A02 d          13.218   5.240  13.417  0.00  0.00     0.091 H 
ATOM     38  H9  A02 d          11.005   4.861  11.876  0.00  0.00     0.102 H 
BRANCH  32  39
ATOM     39  N9  A02 d          14.523   4.002   9.208  0.00  0.00    -0.294 N 
ATOM     40  C4  A02 d          15.727   3.487   8.981  0.00  0.00     0.167 A 
ATOM     41  N3  A02 d          16.516   2.657   9.681  0.00  0.00    -0.222 NA
ATOM     42  C5  A02 d          16.166   3.986   7.762  0.00  0.00     0.149 A 
ATOM     43  C2  A02 d          17.703   2.300   9.208  0.00  0.00     0.091 A 
ATOM     44  N1  A02 d          18.149   2.758   8.031  0.00  0.00    -0.222 NA
ATOM     45  H1  A02 d          18.324   1.624   9.786  0.00  0.00     0.146 H 
ATOM     46  C6  A02 d          17.411   3.602   7.291  0.00  0.00     0.155 A 
ATOM     47  N7  A02 d          15.220   4.784   7.271  0.00  0.00    -0.236 NA
ATOM     48  C8  A02 d          14.217   4.777   8.155  0.00  0.00     0.071 A 
ATOM     49  H4  A02 d          13.282   5.324   8.039  0.00  0.00     0.144 H 
BRANCH  46  50
ATOM     50  N6  A02 d          17.857   4.067   6.130  0.00  0.00    -0.382 N 
ATOM     51  H2  A02 d          17.599   3.593   5.252  0.00  0.00     0.157 HD
ATOM     52  H3  A02 d          18.462   4.900   6.107  0.00  0.00     0.157 HD
ENDBRANCH  46  50
ENDBRANCH  32  39
BRANCH  33  53
ATOM     53  OAO A02 d          15.107   3.350  12.344  0.00  0.00    -0.388 OA
ATOM     54  H6  A02 d          15.996   3.465  12.029  0.00  0.00     0.210 HD
ENDBRANCH  33  53
BRANCH  35  55
ATOM     55  OAN A02 d          12.553   3.272  13.096  0.00  0.00    -0.390 OA
ATOM     56  H5  A02 d          11.878   3.427  13.747  0.00  0.00     0.210 HD
ENDBRANCH  35  55
ENDBRANCH  27  30
ENDBRANCH  23  26
ENDBRANCH  20  23
ENDBRANCH  17  20
ENDBRANCH  14  17
ENDBRANCH  11  14
ENDBRANCH   8  11
ENDBRANCH   5   7
BRANCH   5  57
ATOM     57  CBJ A02 d          18.233   9.403   4.043  0.00  0.00    -0.038 C 
ATOM     58  H24 A02 d          17.507   9.906   3.388  0.00  0.00     0.036 H 
ATOM     59  H25 A02 d          19.119   9.117   3.456  0.00  0.00     0.036 H 
BRANCH  57  60
ATOM     60  CAZ A02 d          18.678  10.403   5.115  0.00  0.00    -0.061 C 
ATOM     61  H26 A02 d          19.623  10.060   5.562  0.00  0.00     0.033 H 
ATOM     62  H27 A02 d          17.905  10.466   5.895  0.00  0.00     0.033 H 
BRANCH  60  63
ATOM     63  CAS A02 d          18.886  11.798   4.490  0.00  0.00    -0.043 C 
ATOM     64  H28 A02 d          18.762  12.563   5.271  0.00  0.00     0.035 H 
ATOM     65  H29 A02 d          18.134  11.953   3.701  0.00  0.00     0.035 H 
BRANCH  63  66
ATOM     66  CAR A02 d          20.289  11.928   3.878  0.00  0.00     0.080 C 
ATOM     67  H30 A02 d          20.431  12.955   3.508  0.00  0.00     0.075 H 
ATOM     68  H31 A02 d          20.389  11.219   3.043  0.00  0.00     0.075 H 
BRANCH  66  69
ATOM     69  NAC A02 d          21.312  11.630   4.896  0.00  0.00    -0.079 N 
ATOM     70  H32 A02 d          22.185  12.060   4.631  0.00  0.00     0.274 HD
ATOM     71  H33 A02 d          21.436  10.632   4.966  0.00  0.00     0.274 HD
ATOM     72  H34 A02 d          21.015  11.995   5.788  0.00  0.00     0.274 HD
ENDBRANCH  66  69
ENDBRANCH  63  66
ENDBRANCH  60  63
ENDBRANCH  57  60
ENDBRANCH   5  57
ENDBRANCH   1   5
BRANCH   3  73
ATOM     73  CBC A02 d          14.657   7.073   2.293  0.00  0.00    -0.005 C 
ATOM     74  H43 A02 d          15.276   6.515   1.575  0.00  0.00     0.064 H 
ATOM     75  H44 A02 d          13.965   6.381   2.795  0.00  0.00     0.064 H 
BRANCH  73  76
ATOM     76  CAV A02 d          13.849   8.137   1.541  0.00  0.00    -0.050 C 
ATOM     77  H41 A02 d          13.311   7.661   0.707  0.00  0.00     0.035 H 
ATOM     78  H42 A02 d          13.124   8.594   2.231  0.00  0.00     0.035 H 
BRANCH  76  79
ATOM     79  CAT A02 d          14.777   9.225   0.988  0.00  0.00    -0.063 C 
ATOM     80  H39 A02 d          15.797   9.042   1.354  0.00  0.00     0.033 H 
ATOM     81  H40 A02 d          14.766   9.177  -0.111  0.00  0.00     0.033 H 
BRANCH  79  82
ATOM     82  CAY A02 d          14.337  10.626   1.427  0.00  0.00    -0.057 C 
ATOM     83  H37 A02 d          15.230  11.215   1.686  0.00  0.00     0.033 H 
ATOM     84  H38 A02 d          13.807  11.110   0.593  0.00  0.00     0.033 H 
BRANCH  82  85
ATOM     85  CBH A02 d          13.404  10.574   2.648  0.00  0.00     0.009 C 
ATOM     86  H35 A02 d          12.473  11.108   2.408  0.00  0.00     0.047 H 
ATOM     87  H36 A02 d          13.175   9.522   2.877  0.00  0.00     0.047 H 
BRANCH  85  88
ATOM     88  CCA A02 d          14.047  11.225   3.884  0.00  0.00     0.218 C 
ATOM     89  OAJ A02 d          14.912  10.630   4.535  0.00  0.00    -0.274 OA
ATOM     90  NBT A02 d          13.604  12.456   4.168  0.00  0.00    -0.348 N 
ATOM     91  H46 A02 d          12.908  12.860   3.575  0.00  0.00     0.163 HD
BRANCH  90  92
ATOM     92  CCJ A02 d          14.096  13.249   5.321  0.00  0.00     0.089 C 
ATOM     93  H47 A02 d          14.764  12.607   5.914  0.00  0.00     0.087 H 
BRANCH  92  94
ATOM     94  CBK A02 d          12.928  13.695   6.240  0.00  0.00    -0.036 C 
ATOM     95  H48 A02 d          12.196  14.240   5.626  0.00  0.00     0.036 H 
ATOM     96  H49 A02 d          13.333  14.367   7.011  0.00  0.00     0.036 H 
BRANCH  94  97
ATOM     97  CBB A02 d          12.196  12.540   6.947  0.00  0.00    -0.048 C 
ATOM     98  H50 A02 d          12.180  12.740   8.028  0.00  0.00     0.035 H 
ATOM     99  H51 A02 d          12.744  11.605   6.755  0.00  0.00     0.035 H 
BRANCH  97 100
ATOM    100  CBF A02 d          10.750  12.377   6.453  0.00  0.00     0.009 C 
ATOM    101  H52 A02 d          10.393  11.361   6.678  0.00  0.00     0.064 H 
ATOM    102  H53 A02 d          10.707  12.549   5.367  0.00  0.00     0.064 H 
BRANCH 100 103
ATOM    103  NBP A02 d           9.908  13.368   7.150  0.00  0.00    -0.227 N 
ATOM    104  CBX A02 d           8.632  13.624   6.833  0.00  0.00     0.665 C 
ATOM    105  NAB A02 d           7.998  12.984   5.852  0.00  0.00    -0.235 N 
ATOM    106  NAE A02 d           7.978  14.546   7.533  0.00  0.00    -0.235 N 
ATOM    107  H55 A02 d           7.015  13.211   5.639  0.00  0.00     0.174 HD
ATOM    108  H56 A02 d           8.489  12.262   5.306  0.00  0.00     0.174 HD
ATOM    109  H57 A02 d           8.455  15.049   8.295  0.00  0.00     0.174 HD
ATOM    110  H58 A02 d           6.993  14.757   7.315  0.00  0.00     0.174 HD
ATOM    111  H54 A02 d          10.328  13.895   7.929  0.00  0.00     0.177 HD
ENDBRANCH 100 103
ENDBRANCH  97 100
ENDBRANCH  94  97
ENDBRANCH  92  94
BRANCH  92 112
ATOM    112  CCD A02 d          14.917  14.466   4.831  0.00  0.00     0.241 C 
ATOM    113  OAM A02 d          14.596  15.614   5.142  0.00  0.00    -0.271 OA
ATOM    114  N   A02 d          15.967  14.175   4.060  0.00  0.00    -0.346 N 
ATOM    115  H59 A02 d          16.153  13.213   3.856  0.00  0.00     0.163 HD
BRANCH 114 116
ATOM    116  CA  A02 d          16.871  15.200   3.492  0.00  0.00     0.089 C 
ATOM    117  H60 A02 d          16.325  16.153   3.433  0.00  0.00     0.087 H 
BRANCH 116 118
ATOM    118  CB  A02 d          17.297  14.786   2.077  0.00  0.00    -0.036 C 
ATOM    119  H61 A02 d          18.391  14.862   1.997  0.00  0.00     0.036 H 
ATOM    120  H62 A02 d          16.827  15.465   1.349  0.00  0.00     0.036 H 
BRANCH 118 121
ATOM    121  CG  A02 d          16.873  13.350   1.763  0.00  0.00    -0.048 C 
ATOM    122  H63 A02 d          15.919  13.369   1.215  0.00  0.00     0.035 H 
ATOM    123  H64 A02 d          16.742  12.800   2.707  0.00  0.00     0.035 H 
BRANCH 121 124
ATOM    124  CD  A02 d          17.920  12.637   0.914  0.00  0.00     0.009 C 
ATOM    125  H65 A02 d          17.557  12.531  -0.119  0.00  0.00     0.064 H 
ATOM    126  H66 A02 d          18.130  11.641   1.333  0.00  0.00     0.064 H 
BRANCH 124 127
ATOM    127  NE  A02 d          19.131  13.452   0.935  0.00  0.00    -0.227 N 
ATOM    128  CZ  A02 d          20.076  13.447  -0.003  0.00  0.00     0.665 C 
ATOM    129  NH1 A02 d          19.997  12.707  -1.109  0.00  0.00    -0.235 N 
ATOM    130  NH2 A02 d          21.120  14.241   0.193  0.00  0.00    -0.235 N 
ATOM    131  H68 A02 d          20.756  12.738  -1.805  0.00  0.00     0.174 HD
ATOM    132  H69 A02 d          19.177  12.103  -1.267  0.00  0.00     0.174 HD
ATOM    133  H70 A02 d          21.180  14.812   1.047  0.00  0.00     0.174 HD
ATOM    134  H71 A02 d          21.871  14.286  -0.511  0.00  0.00     0.174 HD
ATOM    135  H67 A02 d          19.265  14.082   1.740  0.00  0.00     0.177 HD
ENDBRANCH 124 127
ENDBRANCH 121 124
ENDBRANCH 118 121
ENDBRANCH 116 118
BRANCH 116 136
ATOM    136  C   A02 d          18.121  15.407   4.377  0.00  0.00     0.238 C 
ATOM    137  O   A02 d          19.261  15.375   3.909  0.00  0.00    -0.271 OA
ATOM    138  NAF A02 d          17.861  15.641   5.662  0.00  0.00    -0.368 N 
ATOM    139  H72 A02 d          18.613  15.786   6.306  0.00  0.00     0.159 HD
ATOM    140  H73 A02 d          16.915  15.671   5.984  0.00  0.00     0.159 HD
ENDBRANCH 116 136
ENDBRANCH 114 116
ENDBRANCH  92 112
ENDBRANCH  90  92
ENDBRANCH  85  88
ENDBRANCH  82  85
ENDBRANCH  79  82
ENDBRANCH  76  79
ENDBRANCH  73  76
ENDBRANCH   3  73
TORSDOF 36
ENDMDL
MODEL 4
REMARK VINA RESULT:      -5.5      3.594      5.878
REMARK WARNING: 32 MAX_TORS EXCEEDED!!!
REMARK  36 active torsions:
REMARK  status: ('A' for Active; 'I' for Inactive)
REMARK    1  A    between atoms: C6_6  and  N6_7 
REMARK    2  A    between atoms: CCN_19  and  N9_10 
REMARK    3  A    between atoms: CCK_16  and  OAN_12 
REMARK    4  A    between atoms: CCL_17  and  OAO_13 
REMARK    5  A    between atoms: CCC_15  and  CCM_18 
REMARK       I    between atoms: NBR_27  and  CCC_15 
REMARK    6  A    between atoms: CBZ_20  and  CBG_22 
REMARK       I    between atoms: NBS_28  and  CBZ_20 
REMARK    7  A    between atoms: CBG_22  and  CAX_23 
REMARK    8  A    between atoms: CAX_23  and  CAU_24 
REMARK    9  A    between atoms: CAU_24  and  CAW_25 
REMARK   10  A    between atoms: CAW_25  and  CBD_26 
REMARK   11  A    between atoms: CBD_26  and  NBR_27 
REMARK   12  A    between atoms: CCI_29  and  NBS_28 
REMARK   13  A    between atoms: CCB_30  and  CCI_29 
REMARK   14  A    between atoms: CCI_29  and  CBJ_32 
REMARK       I    between atoms: NBQ_44  and  CCB_30 
REMARK   15  A    between atoms: CBJ_32  and  CAZ_33 
REMARK   16  A    between atoms: CAZ_33  and  CAS_34 
REMARK   17  A    between atoms: CAS_34  and  CAR_35 
REMARK   18  A    between atoms: CAR_35  and  NAC_36 
REMARK   19  A    between atoms: CBH_39  and  CCA_37 
REMARK       I    between atoms: CCA_37  and  NBT_45 
REMARK   20  A    between atoms: CAY_40  and  CBH_39 
REMARK   21  A    between atoms: CAT_41  and  CAY_40 
REMARK   22  A    between atoms: CAV_42  and  CAT_41 
REMARK   23  A    between atoms: CBC_43  and  CAV_42 
REMARK   24  A    between atoms: CBC_43  and  NBQ_44 
REMARK   25  A    between atoms: NBT_45  and  CCJ_46 
REMARK   26  A    between atoms: CCJ_46  and  CBK_47 
REMARK   27  A    between atoms: CCJ_46  and  CCD_54 
REMARK   28  A    between atoms: CBK_47  and  CBB_48 
REMARK   29  A    between atoms: CBB_48  and  CBF_49 
REMARK   30  A    between atoms: CBF_49  and  NBP_50 
REMARK       I    between atoms: NBP_50  and  CBX_51 
REMARK       I    between atoms: CBX_51  and  NAB_52 
REMARK       I    between atoms: CBX_51  and  NAE_53 
REMARK       I    between atoms: CCD_54  and  N_56 
REMARK   31  A    between atoms: N_56  and  CA_57 
REMARK   32  A    between atoms: CA_57  and  CB_58 
REMARK   33  A    between atoms: CA_57  and  C_65 
REMARK   34  A    between atoms: CB_58  and  CG_59 
REMARK   35  A    between atoms: CG_59  and  CD_60 
REMARK   36  A    between atoms: CD_60  and  NE_61 
REMARK       I    between atoms: NE_61  and  CZ_62 
REMARK       I    between atoms: CZ_62  and  NH1_63 
REMARK       I    between atoms: C_65  and  NAF_67 
ROOT
ATOM      1  CCB A02 d          16.621   6.047   6.003  0.00  0.00     0.240 C 
ATOM      2  OAK A02 d          15.462   6.067   5.608  0.00  0.00    -0.271 OA
ATOM      3  NBQ A02 d          17.320   7.141   6.301  0.00  0.00    -0.359 N 
ATOM      4  H45 A02 d          18.267   7.039   6.608  0.00  0.00     0.162 HD
ENDROOT
BRANCH   1   5
ATOM      5  CCI A02 d          17.378   4.705   6.151  0.00  0.00     0.089 C 
ATOM      6  H23 A02 d          17.890   4.518   5.196  0.00  0.00     0.087 H 
BRANCH   5   7
ATOM      7  NBS A02 d          16.424   3.587   6.366  0.00  0.00    -0.348 N 
ATOM      8  CBZ A02 d          16.310   2.576   5.490  0.00  0.00     0.218 C 
ATOM      9  OAI A02 d          16.936   2.503   4.425  0.00  0.00    -0.274 OA
ATOM     10  H22 A02 d          15.851   3.587   7.185  0.00  0.00     0.163 HD
BRANCH   8  11
ATOM     11  CBG A02 d          15.278   1.494   5.871  0.00  0.00     0.009 C 
ATOM     12  H11 A02 d          15.316   0.688   5.124  0.00  0.00     0.047 H 
ATOM     13  H12 A02 d          14.275   1.945   5.874  0.00  0.00     0.047 H 
BRANCH  11  14
ATOM     14  CAX A02 d          15.560   0.897   7.263  0.00  0.00    -0.057 C 
ATOM     15  H13 A02 d          16.648   0.821   7.408  0.00  0.00     0.033 H 
ATOM     16  H14 A02 d          15.112  -0.107   7.320  0.00  0.00     0.033 H 
BRANCH  14  17
ATOM     17  CAU A02 d          14.967   1.771   8.374  0.00  0.00    -0.063 C 
ATOM     18  H15 A02 d          15.712   2.530   8.658  0.00  0.00     0.033 H 
ATOM     19  H16 A02 d          14.745   1.134   9.242  0.00  0.00     0.033 H 
BRANCH  17  20
ATOM     20  CAW A02 d          13.681   2.484   7.948  0.00  0.00    -0.050 C 
ATOM     21  H17 A02 d          12.983   1.763   7.497  0.00  0.00     0.035 H 
ATOM     22  H18 A02 d          13.913   3.275   7.218  0.00  0.00     0.035 H 
BRANCH  20  23
ATOM     23  CBD A02 d          13.058   3.099   9.203  0.00  0.00    -0.005 C 
ATOM     24  H19 A02 d          13.284   2.450  10.062  0.00  0.00     0.064 H 
ATOM     25  H20 A02 d          11.969   3.155   9.063  0.00  0.00     0.064 H 
BRANCH  23  26
ATOM     26  NBR A02 d          13.568   4.452   9.486  0.00  0.00    -0.359 N 
ATOM     27  CCC A02 d          13.269   5.157  10.578  0.00  0.00     0.249 C 
ATOM     28  OAL A02 d          12.474   4.788  11.455  0.00  0.00    -0.271 OA
ATOM     29  H21 A02 d          14.179   4.870   8.814  0.00  0.00     0.162 HD
BRANCH  27  30
ATOM     30  CCM A02 d          13.979   6.515  10.730  0.00  0.00     0.144 C 
ATOM     31  OBV A02 d          13.871   7.317   9.506  0.00  0.00    -0.346 OA
ATOM     32  CCN A02 d          12.878   8.364   9.708  0.00  0.00     0.140 C 
ATOM     33  CCL A02 d          12.170   7.997  11.027  0.00  0.00     0.105 C 
ATOM     34  H10 A02 d          13.382   9.335   9.822  0.00  0.00     0.123 H 
ATOM     35  CCK A02 d          13.283   7.333  11.818  0.00  0.00     0.098 C 
ATOM     36  H8  A02 d          11.321   7.317  10.861  0.00  0.00     0.093 H 
ATOM     37  H7  A02 d          12.901   6.708  12.639  0.00  0.00     0.091 H 
ATOM     38  H9  A02 d          15.036   6.351  10.986  0.00  0.00     0.102 H 
BRANCH  32  39
ATOM     39  N9  A02 d          11.919   8.465   8.527  0.00  0.00    -0.294 N 
ATOM     40  C4  A02 d          11.312   7.448   7.923  0.00  0.00     0.167 A 
ATOM     41  N3  A02 d          11.337   6.120   8.117  0.00  0.00    -0.222 NA
ATOM     42  C5  A02 d          10.541   7.977   6.897  0.00  0.00     0.149 A 
ATOM     43  C2  A02 d          10.619   5.314   7.346  0.00  0.00     0.091 A 
ATOM     44  N1  A02 d           9.858   5.797   6.354  0.00  0.00    -0.222 NA
ATOM     45  H1  A02 d          10.647   4.244   7.521  0.00  0.00     0.146 H 
ATOM     46  C6  A02 d           9.803   7.115   6.103  0.00  0.00     0.155 A 
ATOM     47  N7  A02 d          10.688   9.300   6.903  0.00  0.00    -0.236 NA
ATOM     48  C8  A02 d          11.521   9.588   7.909  0.00  0.00     0.071 A 
ATOM     49  H4  A02 d          11.833  10.594   8.188  0.00  0.00     0.144 H 
BRANCH  46  50
ATOM     50  N6  A02 d           9.059   7.594   5.111  0.00  0.00    -0.382 N 
ATOM     51  H2  A02 d           8.893   8.608   5.036  0.00  0.00     0.157 HD
ATOM     52  H3  A02 d           8.648   6.952   4.419  0.00  0.00     0.157 HD
ENDBRANCH  46  50
ENDBRANCH  32  39
BRANCH  33  53
ATOM     53  OAO A02 d          11.739   9.171  11.701  0.00  0.00    -0.388 OA
ATOM     54  H6  A02 d          11.150   9.659  11.138  0.00  0.00     0.210 HD
ENDBRANCH  33  53
BRANCH  35  55
ATOM     55  OAN A02 d          14.193   8.334  12.314  0.00  0.00    -0.390 OA
ATOM     56  H5  A02 d          14.442   8.914  11.602  0.00  0.00     0.210 HD
ENDBRANCH  35  55
ENDBRANCH  27  30
ENDBRANCH  23  26
ENDBRANCH  20  23
ENDBRANCH  17  20
ENDBRANCH  14  17
ENDBRANCH  11  14
ENDBRANCH   8  11
ENDBRANCH   5   7
BRANCH   5  57
ATOM     57  CBJ A02 d          18.472   4.743   7.243  0.00  0.00    -0.038 C 
ATOM     58  H24 A02 d          18.006   4.465   8.200  0.00  0.00     0.036 H 
ATOM     59  H25 A02 d          18.852   5.773   7.306  0.00  0.00     0.036 H 
BRANCH  57  60
ATOM     60  CAZ A02 d          19.665   3.811   7.008  0.00  0.00    -0.061 C 
ATOM     61  H26 A02 d          20.491   4.384   6.563  0.00  0.00     0.033 H 
ATOM     62  H27 A02 d          19.366   3.005   6.322  0.00  0.00     0.033 H 
BRANCH  60  63
ATOM     63  CAS A02 d          20.132   3.196   8.344  0.00  0.00    -0.043 C 
ATOM     64  H28 A02 d          20.493   4.000   9.003  0.00  0.00     0.035 H 
ATOM     65  H29 A02 d          20.951   2.488   8.146  0.00  0.00     0.035 H 
BRANCH  63  66
ATOM     66  CAR A02 d          18.985   2.452   9.044  0.00  0.00     0.080 C 
ATOM     67  H30 A02 d          18.525   1.745   8.338  0.00  0.00     0.075 H 
ATOM     68  H31 A02 d          18.230   3.179   9.380  0.00  0.00     0.075 H 
BRANCH  66  69
ATOM     69  NAC A02 d          19.501   1.711  10.209  0.00  0.00    -0.079 N 
ATOM     70  H32 A02 d          19.347   0.724  10.075  0.00  0.00     0.274 HD
ATOM     71  H33 A02 d          19.021   2.017  11.042  0.00  0.00     0.274 HD
ATOM     72  H34 A02 d          20.489   1.887  10.308  0.00  0.00     0.274 HD
ENDBRANCH  66  69
ENDBRANCH  63  66
ENDBRANCH  60  63
ENDBRANCH  57  60
ENDBRANCH   5  57
ENDBRANCH   1   5
BRANCH   3  73
ATOM     73  CBC A02 d          16.749   8.503   6.196  0.00  0.00    -0.005 C 
ATOM     74  H43 A02 d          17.535   9.201   5.870  0.00  0.00     0.064 H 
ATOM     75  H44 A02 d          15.934   8.498   5.457  0.00  0.00     0.064 H 
BRANCH  73  76
ATOM     76  CAV A02 d          16.198   8.962   7.551  0.00  0.00    -0.050 C 
ATOM     77  H41 A02 d          15.716   8.111   8.053  0.00  0.00     0.035 H 
ATOM     78  H42 A02 d          17.028   9.332   8.172  0.00  0.00     0.035 H 
BRANCH  76  79
ATOM     79  CAT A02 d          15.171  10.085   7.361  0.00  0.00    -0.063 C 
ATOM     80  H39 A02 d          14.310   9.893   8.018  0.00  0.00     0.033 H 
ATOM     81  H40 A02 d          15.636  11.043   7.636  0.00  0.00     0.033 H 
BRANCH  79  82
ATOM     82  CAY A02 d          14.680  10.170   5.912  0.00  0.00    -0.057 C 
ATOM     83  H37 A02 d          15.547  10.106   5.238  0.00  0.00     0.033 H 
ATOM     84  H38 A02 d          14.000   9.328   5.717  0.00  0.00     0.033 H 
BRANCH  82  85
ATOM     85  CBH A02 d          13.934  11.487   5.640  0.00  0.00     0.009 C 
ATOM     86  H35 A02 d          13.246  11.685   6.474  0.00  0.00     0.047 H 
ATOM     87  H36 A02 d          14.668  12.304   5.568  0.00  0.00     0.047 H 
BRANCH  85  88
ATOM     88  CCA A02 d          13.128  11.424   4.333  0.00  0.00     0.218 C 
ATOM     89  OAJ A02 d          13.588  11.884   3.283  0.00  0.00    -0.274 OA
ATOM     90  NBT A02 d          11.930  10.836   4.436  0.00  0.00    -0.348 N 
ATOM     91  H46 A02 d          11.648  10.484   5.329  0.00  0.00     0.163 HD
BRANCH  90  92
ATOM     92  CCJ A02 d          11.000  10.682   3.291  0.00  0.00     0.089 C 
ATOM     93  H47 A02 d          11.243  11.457   2.550  0.00  0.00     0.087 H 
BRANCH  92  94
ATOM     94  CBK A02 d           9.525  10.890   3.728  0.00  0.00    -0.036 C 
ATOM     95  H48 A02 d           9.327  10.237   4.590  0.00  0.00     0.036 H 
ATOM     96  H49 A02 d           8.874  10.600   2.890  0.00  0.00     0.036 H 
BRANCH  94  97
ATOM     97  CBB A02 d           9.177  12.334   4.128  0.00  0.00    -0.048 C 
ATOM     98  H50 A02 d           9.716  12.584   5.054  0.00  0.00     0.035 H 
ATOM     99  H51 A02 d           8.093  12.400   4.306  0.00  0.00     0.035 H 
BRANCH  97 100
ATOM    100  CBF A02 d           9.564  13.350   3.042  0.00  0.00     0.009 C 
ATOM    101  H52 A02 d           8.713  13.510   2.363  0.00  0.00     0.064 H 
ATOM    102  H53 A02 d          10.423  12.972   2.469  0.00  0.00     0.064 H 
BRANCH 100 103
ATOM    103  NBP A02 d           9.922  14.620   3.701  0.00  0.00    -0.227 N 
ATOM    104  CBX A02 d          10.705  15.557   3.151  0.00  0.00     0.665 C 
ATOM    105  NAB A02 d          11.225  15.426   1.932  0.00  0.00    -0.235 N 
ATOM    106  NAE A02 d          10.960  16.660   3.849  0.00  0.00    -0.235 N 
ATOM    107  H55 A02 d          11.823  16.171   1.544  0.00  0.00     0.174 HD
ATOM    108  H56 A02 d          11.030  14.581   1.376  0.00  0.00     0.174 HD
ATOM    109  H57 A02 d          10.564  16.775   4.793  0.00  0.00     0.174 HD
ATOM    110  H58 A02 d          11.553  17.400   3.445  0.00  0.00     0.174 HD
ATOM    111  H54 A02 d           9.546  14.797   4.644  0.00  0.00     0.177 HD
ENDBRANCH 100 103
ENDBRANCH  97 100
ENDBRANCH  94  97
ENDBRANCH  92  94
BRANCH  92 112
ATOM    112  CCD A02 d          11.194   9.301   2.618  0.00  0.00     0.241 C 
ATOM    113  OAM A02 d          10.329   8.429   2.701  0.00  0.00    -0.271 OA
ATOM    114  N   A02 d          12.346   9.141   1.963  0.00  0.00    -0.346 N 
ATOM    115  H59 A02 d          12.993   9.904   1.948  0.00  0.00     0.163 HD
BRANCH 114 116
ATOM    116  CA  A02 d          12.717   7.893   1.259  0.00  0.00     0.089 C 
ATOM    117  H60 A02 d          11.836   7.235   1.228  0.00  0.00     0.087 H 
BRANCH 116 118
ATOM    118  CB  A02 d          13.839   7.182   2.025  0.00  0.00    -0.036 C 
ATOM    119  H61 A02 d          14.562   6.774   1.303  0.00  0.00     0.036 H 
ATOM    120  H62 A02 d          13.406   6.360   2.613  0.00  0.00     0.036 H 
BRANCH 118 121
ATOM    121  CG  A02 d          14.566   8.140   2.970  0.00  0.00    -0.048 C 
ATOM    122  H63 A02 d          14.521   7.738   3.993  0.00  0.00     0.035 H 
ATOM    123  H64 A02 d          14.069   9.121   2.940  0.00  0.00     0.035 H 
BRANCH 121 124
ATOM    124  CD  A02 d          16.028   8.312   2.569  0.00  0.00     0.009 C 
ATOM    125  H65 A02 d          16.682   8.063   3.417  0.00  0.00     0.064 H 
ATOM    126  H66 A02 d          16.211   9.351   2.256  0.00  0.00     0.064 H 
BRANCH 124 127
ATOM    127  NE  A02 d          16.286   7.403   1.456  0.00  0.00    -0.227 N 
ATOM    128  CZ  A02 d          17.363   7.436   0.673  0.00  0.00     0.665 C 
ATOM    129  NH1 A02 d          18.364   8.298   0.851  0.00  0.00    -0.235 N 
ATOM    130  NH2 A02 d          17.421   6.542  -0.305  0.00  0.00    -0.235 N 
ATOM    131  H68 A02 d          19.175   8.282   0.217  0.00  0.00     0.174 HD
ATOM    132  H69 A02 d          18.325   8.980   1.621  0.00  0.00     0.174 HD
ATOM    133  H70 A02 d          16.647   5.877  -0.441  0.00  0.00     0.174 HD
ATOM    134  H71 A02 d          18.240   6.514  -0.929  0.00  0.00     0.174 HD
ATOM    135  H67 A02 d          15.579   6.679   1.261  0.00  0.00     0.177 HD
ENDBRANCH 124 127
ENDBRANCH 121 124
ENDBRANCH 118 121
ENDBRANCH 116 118
BRANCH 116 136
ATOM    136  C   A02 d          13.168   8.175  -0.193  0.00  0.00     0.238 C 
ATOM    137  O   A02 d          14.219   8.769  -0.442  0.00  0.00    -0.271 OA
ATOM    138  NAF A02 d          12.349   7.707  -1.132  0.00  0.00    -0.368 N 
ATOM    139  H72 A02 d          12.565   7.845  -2.099  0.00  0.00     0.159 HD
ATOM    140  H73 A02 d          11.516   7.217  -0.871  0.00  0.00     0.159 HD
ENDBRANCH 116 136
ENDBRANCH 114 116
ENDBRANCH  92 112
ENDBRANCH  90  92
ENDBRANCH  85  88
ENDBRANCH  82  85
ENDBRANCH  79  82
ENDBRANCH  76  79
ENDBRANCH  73  76
ENDBRANCH   3  73
TORSDOF 36
ENDMDL
MODEL 5
REMARK VINA RESULT:      -5.4      3.418     11.001
REMARK WARNING: 32 MAX_TORS EXCEEDED!!!
REMARK  36 active torsions:
REMARK  status: ('A' for Active; 'I' for Inactive)
REMARK    1  A    between atoms: C6_6  and  N6_7 
REMARK    2  A    between atoms: CCN_19  and  N9_10 
REMARK    3  A    between atoms: CCK_16  and  OAN_12 
REMARK    4  A    between atoms: CCL_17  and  OAO_13 
REMARK    5  A    between atoms: CCC_15  and  CCM_18 
REMARK       I    between atoms: NBR_27  and  CCC_15 
REMARK    6  A    between atoms: CBZ_20  and  CBG_22 
REMARK       I    between atoms: NBS_28  and  CBZ_20 
REMARK    7  A    between atoms: CBG_22  and  CAX_23 
REMARK    8  A    between atoms: CAX_23  and  CAU_24 
REMARK    9  A    between atoms: CAU_24  and  CAW_25 
REMARK   10  A    between atoms: CAW_25  and  CBD_26 
REMARK   11  A    between atoms: CBD_26  and  NBR_27 
REMARK   12  A    between atoms: CCI_29  and  NBS_28 
REMARK   13  A    between atoms: CCB_30  and  CCI_29 
REMARK   14  A    between atoms: CCI_29  and  CBJ_32 
REMARK       I    between atoms: NBQ_44  and  CCB_30 
REMARK   15  A    between atoms: CBJ_32  and  CAZ_33 
REMARK   16  A    between atoms: CAZ_33  and  CAS_34 
REMARK   17  A    between atoms: CAS_34  and  CAR_35 
REMARK   18  A    between atoms: CAR_35  and  NAC_36 
REMARK   19  A    between atoms: CBH_39  and  CCA_37 
REMARK       I    between atoms: CCA_37  and  NBT_45 
REMARK   20  A    between atoms: CAY_40  and  CBH_39 
REMARK   21  A    between atoms: CAT_41  and  CAY_40 
REMARK   22  A    between atoms: CAV_42  and  CAT_41 
REMARK   23  A    between atoms: CBC_43  and  CAV_42 
REMARK   24  A    between atoms: CBC_43  and  NBQ_44 
REMARK   25  A    between atoms: NBT_45  and  CCJ_46 
REMARK   26  A    between atoms: CCJ_46  and  CBK_47 
REMARK   27  A    between atoms: CCJ_46  and  CCD_54 
REMARK   28  A    between atoms: CBK_47  and  CBB_48 
REMARK   29  A    between atoms: CBB_48  and  CBF_49 
REMARK   30  A    between atoms: CBF_49  and  NBP_50 
REMARK       I    between atoms: NBP_50  and  CBX_51 
REMARK       I    between atoms: CBX_51  and  NAB_52 
REMARK       I    between atoms: CBX_51  and  NAE_53 
REMARK       I    between atoms: CCD_54  and  N_56 
REMARK   31  A    between atoms: N_56  and  CA_57 
REMARK   32  A    between atoms: CA_57  and  CB_58 
REMARK   33  A    between atoms: CA_57  and  C_65 
REMARK   34  A    between atoms: CB_58  and  CG_59 
REMARK   35  A    between atoms: CG_59  and  CD_60 
REMARK   36  A    between atoms: CD_60  and  NE_61 
REMARK       I    between atoms: NE_61  and  CZ_62 
REMARK       I    between atoms: CZ_62  and  NH1_63 
REMARK       I    between atoms: C_65  and  NAF_67 
ROOT
ATOM      1  CCB A02 d          10.916   7.241   7.434  0.00  0.00     0.240 C 
ATOM      2  OAK A02 d          10.921   6.189   6.807  0.00  0.00    -0.271 OA
ATOM      3  NBQ A02 d          10.449   7.361   8.675  0.00  0.00    -0.359 N 
ATOM      4  H45 A02 d          10.472   8.260   9.114  0.00  0.00     0.162 HD
ENDROOT
BRANCH   1   5
ATOM      5  CCI A02 d          11.440   8.545   6.784  0.00  0.00     0.089 C 
ATOM      6  H23 A02 d          10.647   9.300   6.895  0.00  0.00     0.087 H 
BRANCH   5   7
ATOM      7  NBS A02 d          11.664   8.352   5.328  0.00  0.00    -0.348 N 
ATOM      8  CBZ A02 d          10.815   8.841   4.410  0.00  0.00     0.218 C 
ATOM      9  OAI A02 d           9.767   9.440   4.681  0.00  0.00    -0.274 OA
ATOM     10  H22 A02 d          12.470   7.844   5.024  0.00  0.00     0.163 HD
BRANCH   8  11
ATOM     11  CBG A02 d          11.202   8.556   2.945  0.00  0.00     0.009 C 
ATOM     12  H11 A02 d          10.421   8.960   2.285  0.00  0.00     0.047 H 
ATOM     13  H12 A02 d          11.277   7.468   2.802  0.00  0.00     0.047 H 
BRANCH  11  14
ATOM     14  CAX A02 d          12.551   9.202   2.571  0.00  0.00    -0.057 C 
ATOM     15  H13 A02 d          13.093   9.460   3.494  0.00  0.00     0.033 H 
ATOM     16  H14 A02 d          12.362  10.117   1.989  0.00  0.00     0.033 H 
BRANCH  14  17
ATOM     17  CAU A02 d          13.412   8.247   1.737  0.00  0.00    -0.063 C 
ATOM     18  H15 A02 d          12.858   7.982   0.824  0.00  0.00     0.033 H 
ATOM     19  H16 A02 d          13.603   7.339   2.327  0.00  0.00     0.033 H 
BRANCH  17  20
ATOM     20  CAW A02 d          14.757   8.858   1.332  0.00  0.00    -0.050 C 
ATOM     21  H17 A02 d          14.723   9.952   1.447  0.00  0.00     0.035 H 
ATOM     22  H18 A02 d          14.983   8.607   0.285  0.00  0.00     0.035 H 
BRANCH  20  23
ATOM     23  CBD A02 d          15.827   8.269   2.254  0.00  0.00    -0.005 C 
ATOM     24  H19 A02 d          16.170   7.313   1.829  0.00  0.00     0.064 H 
ATOM     25  H20 A02 d          15.380   8.091   3.242  0.00  0.00     0.064 H 
BRANCH  23  26
ATOM     26  NBR A02 d          16.990   9.158   2.415  0.00  0.00    -0.359 N 
ATOM     27  CCC A02 d          18.251   8.738   2.526  0.00  0.00     0.249 C 
ATOM     28  OAL A02 d          18.591   7.547   2.576  0.00  0.00    -0.271 OA
ATOM     29  H21 A02 d          16.824  10.144   2.442  0.00  0.00     0.162 HD
BRANCH  27  30
ATOM     30  CCM A02 d          19.333   9.832   2.593  0.00  0.00     0.144 C 
ATOM     31  OBV A02 d          18.739  11.169   2.693  0.00  0.00    -0.346 OA
ATOM     32  CCN A02 d          18.864  11.645   4.065  0.00  0.00     0.140 C 
ATOM     33  CCL A02 d          19.316  10.415   4.877  0.00  0.00     0.105 C 
ATOM     34  H10 A02 d          19.639  12.423   4.117  0.00  0.00     0.123 H 
ATOM     35  CCK A02 d          20.157   9.653   3.869  0.00  0.00     0.098 C 
ATOM     36  H8  A02 d          18.461   9.822   5.232  0.00  0.00     0.093 H 
ATOM     37  H7  A02 d          20.289   8.597   4.144  0.00  0.00     0.091 H 
ATOM     38  H9  A02 d          19.977   9.766   1.704  0.00  0.00     0.102 H 
BRANCH  32  39
ATOM     39  N9  A02 d          17.557  12.245   4.573  0.00  0.00    -0.294 N 
ATOM     40  C4  A02 d          17.095  13.460   4.297  0.00  0.00     0.167 A 
ATOM     41  N3  A02 d          17.571  14.476   3.560  0.00  0.00    -0.222 NA
ATOM     42  C5  A02 d          15.887  13.605   4.966  0.00  0.00     0.149 A 
ATOM     43  C2  A02 d          16.888  15.609   3.456  0.00  0.00     0.091 A 
ATOM     44  N1  A02 d          15.715  15.773   4.083  0.00  0.00    -0.222 NA
ATOM     45  H1  A02 d          17.286  16.417   2.852  0.00  0.00     0.146 H 
ATOM     46  C6  A02 d          15.195  14.798   4.846  0.00  0.00     0.155 A 
ATOM     47  N7  A02 d          15.637  12.476   5.627  0.00  0.00    -0.236 NA
ATOM     48  C8  A02 d          16.656  11.649   5.371  0.00  0.00     0.071 A 
ATOM     49  H4  A02 d          16.744  10.634   5.755  0.00  0.00     0.144 H 
BRANCH  46  50
ATOM     50  N6  A02 d          14.038  14.965   5.479  0.00  0.00    -0.382 N 
ATOM     51  H2  A02 d          14.006  15.500   6.358  0.00  0.00     0.157 HD
ATOM     52  H3  A02 d          13.175  14.559   5.090  0.00  0.00     0.157 HD
ENDBRANCH  46  50
ENDBRANCH  32  39
BRANCH  33  53
ATOM     53  OAO A02 d          20.128  10.816   5.971  0.00  0.00    -0.388 OA
ATOM     54  H6  A02 d          20.980  10.401   5.901  0.00  0.00     0.210 HD
ENDBRANCH  33  53
BRANCH  35  55
ATOM     55  OAN A02 d          21.432  10.305   3.705  0.00  0.00    -0.390 OA
ATOM     56  H5  A02 d          21.401  10.871   2.942  0.00  0.00     0.210 HD
ENDBRANCH  35  55
ENDBRANCH  27  30
ENDBRANCH  23  26
ENDBRANCH  20  23
ENDBRANCH  17  20
ENDBRANCH  14  17
ENDBRANCH  11  14
ENDBRANCH   8  11
ENDBRANCH   5   7
BRANCH   5  57
ATOM     57  CBJ A02 d          12.695   9.111   7.487  0.00  0.00    -0.038 C 
ATOM     58  H24 A02 d          13.562   8.519   7.161  0.00  0.00     0.036 H 
ATOM     59  H25 A02 d          12.557   8.994   8.572  0.00  0.00     0.036 H 
BRANCH  57  60
ATOM     60  CAZ A02 d          12.995  10.587   7.204  0.00  0.00    -0.061 C 
ATOM     61  H26 A02 d          13.425  10.683   6.196  0.00  0.00     0.033 H 
ATOM     62  H27 A02 d          13.715  10.960   7.947  0.00  0.00     0.033 H 
BRANCH  60  63
ATOM     63  CAS A02 d          11.698  11.420   7.287  0.00  0.00    -0.043 C 
ATOM     64  H28 A02 d          11.725  12.036   8.198  0.00  0.00     0.035 H 
ATOM     65  H29 A02 d          10.836  10.738   7.329  0.00  0.00     0.035 H 
BRANCH  63  66
ATOM     66  CAR A02 d          11.551  12.340   6.065  0.00  0.00     0.080 C 
ATOM     67  H30 A02 d          11.799  13.372   6.354  0.00  0.00     0.075 H 
ATOM     68  H31 A02 d          10.513  12.299   5.702  0.00  0.00     0.075 H 
BRANCH  66  69
ATOM     69  NAC A02 d          12.461  11.901   4.991  0.00  0.00    -0.079 N 
ATOM     70  H32 A02 d          11.951  11.337   4.329  0.00  0.00     0.274 HD
ATOM     71  H33 A02 d          13.211  11.357   5.388  0.00  0.00     0.274 HD
ATOM     72  H34 A02 d          12.842  12.708   4.524  0.00  0.00     0.274 HD
ENDBRANCH  66  69
ENDBRANCH  63  66
ENDBRANCH  60  63
ENDBRANCH  57  60
ENDBRANCH   5  57
ENDBRANCH   1   5
BRANCH   3  73
ATOM     73  CBC A02 d           9.897   6.213   9.431  0.00  0.00    -0.005 C 
ATOM     74  H43 A02 d           8.914   6.490   9.840  0.00  0.00     0.064 H 
ATOM     75  H44 A02 d           9.783   5.355   8.753  0.00  0.00     0.064 H 
BRANCH  73  76
ATOM     76  CAV A02 d          10.832   5.827  10.582  0.00  0.00    -0.050 C 
ATOM     77  H41 A02 d          10.232   5.461  11.429  0.00  0.00     0.035 H 
ATOM     78  H42 A02 d          11.512   5.032  10.244  0.00  0.00     0.035 H 
BRANCH  76  79
ATOM     79  CAT A02 d          11.656   7.038  11.035  0.00  0.00    -0.063 C 
ATOM     80  H39 A02 d          11.560   7.834  10.283  0.00  0.00     0.033 H 
ATOM     81  H40 A02 d          11.264   7.395  11.999  0.00  0.00     0.033 H 
BRANCH  79  82
ATOM     82  CAY A02 d          13.139   6.689  11.201  0.00  0.00    -0.057 C 
ATOM     83  H37 A02 d          13.365   6.599  12.274  0.00  0.00     0.033 H 
ATOM     84  H38 A02 d          13.336   5.729  10.702  0.00  0.00     0.033 H 
BRANCH  82  85
ATOM     85  CBH A02 d          14.050   7.767  10.589  0.00  0.00     0.009 C 
ATOM     86  H35 A02 d          13.425   8.507  10.068  0.00  0.00     0.047 H 
ATOM     87  H36 A02 d          14.608   8.262  11.398  0.00  0.00     0.047 H 
BRANCH  85  88
ATOM     88  CCA A02 d          15.049   7.164   9.588  0.00  0.00     0.218 C 
ATOM     89  OAJ A02 d          16.259   7.393   9.687  0.00  0.00    -0.274 OA
ATOM     90  NBT A02 d          14.504   6.391   8.642  0.00  0.00    -0.348 N 
ATOM     91  H46 A02 d          13.513   6.256   8.650  0.00  0.00     0.163 HD
BRANCH  90  92
ATOM     92  CCJ A02 d          15.298   5.723   7.582  0.00  0.00     0.089 C 
ATOM     93  H47 A02 d          14.606   5.409   6.787  0.00  0.00     0.087 H 
BRANCH  92  94
ATOM     94  CBK A02 d          16.008   4.453   8.122  0.00  0.00    -0.036 C 
ATOM     95  H48 A02 d          15.353   3.987   8.874  0.00  0.00     0.036 H 
ATOM     96  H49 A02 d          16.950   4.761   8.597  0.00  0.00     0.036 H 
BRANCH  94  97
ATOM     97  CBB A02 d          16.333   3.399   7.049  0.00  0.00    -0.048 C 
ATOM     98  H50 A02 d          17.270   2.893   7.323  0.00  0.00     0.035 H 
ATOM     99  H51 A02 d          16.460   3.908   6.082  0.00  0.00     0.035 H 
BRANCH  97 100
ATOM    100  CBF A02 d          15.222   2.345   6.912  0.00  0.00     0.009 C 
ATOM    101  H52 A02 d          15.267   1.646   7.760  0.00  0.00     0.064 H 
ATOM    102  H53 A02 d          15.352   1.790   5.972  0.00  0.00     0.064 H 
BRANCH 100 103
ATOM    103  NBP A02 d          13.922   3.041   6.906  0.00  0.00    -0.227 N 
ATOM    104  CBX A02 d          12.776   2.495   7.338  0.00  0.00     0.665 C 
ATOM    105  NAB A02 d          12.717   1.260   7.832  0.00  0.00    -0.235 N 
ATOM    106  NAE A02 d          11.665   3.223   7.277  0.00  0.00    -0.235 N 
ATOM    107  H55 A02 d          11.815   0.876   8.153  0.00  0.00     0.174 HD
ATOM    108  H56 A02 d          13.570   0.687   7.892  0.00  0.00     0.174 HD
ATOM    109  H57 A02 d          11.696   4.181   6.898  0.00  0.00     0.174 HD
ATOM    110  H58 A02 d          10.773   2.830   7.610  0.00  0.00     0.174 HD
ATOM    111  H54 A02 d          13.892   4.006   6.549  0.00  0.00     0.177 HD
ENDBRANCH 100 103
ENDBRANCH  97 100
ENDBRANCH  94  97
ENDBRANCH  92  94
BRANCH  92 112
ATOM    112  CCD A02 d          16.317   6.712   6.964  0.00  0.00     0.241 C 
ATOM    113  OAM A02 d          15.949   7.611   6.208  0.00  0.00    -0.271 OA
ATOM    114  N   A02 d          17.591   6.509   7.308  0.00  0.00    -0.346 N 
ATOM    115  H59 A02 d          17.800   5.752   7.928  0.00  0.00     0.163 HD
BRANCH 114 116
ATOM    116  CA  A02 d          18.710   7.345   6.819  0.00  0.00     0.089 C 
ATOM    117  H60 A02 d          18.292   8.194   6.258  0.00  0.00     0.087 H 
BRANCH 116 118
ATOM    118  CB  A02 d          19.599   6.520   5.880  0.00  0.00    -0.036 C 
ATOM    119  H61 A02 d          20.382   7.172   5.464  0.00  0.00     0.036 H 
ATOM    120  H62 A02 d          18.982   6.121   5.061  0.00  0.00     0.036 H 
BRANCH 118 121
ATOM    121  CG  A02 d          20.262   5.355   6.617  0.00  0.00    -0.048 C 
ATOM    122  H63 A02 d          19.504   4.837   7.223  0.00  0.00     0.035 H 
ATOM    123  H64 A02 d          21.051   5.749   7.276  0.00  0.00     0.035 H 
BRANCH 121 124
ATOM    124  CD  A02 d          20.881   4.361   5.640  0.00  0.00     0.009 C 
ATOM    125  H65 A02 d          20.126   3.629   5.321  0.00  0.00     0.064 H 
ATOM    126  H66 A02 d          21.722   3.837   6.119  0.00  0.00     0.064 H 
BRANCH 124 127
ATOM    127  NE  A02 d          21.358   5.120   4.488  0.00  0.00    -0.227 N 
ATOM    128  CZ  A02 d          21.805   4.588   3.351  0.00  0.00     0.665 C 
ATOM    129  NH1 A02 d          21.829   3.275   3.124  0.00  0.00    -0.235 N 
ATOM    130  NH2 A02 d          22.219   5.433   2.416  0.00  0.00    -0.235 N 
ATOM    131  H68 A02 d          22.185   2.914   2.227  0.00  0.00     0.174 HD
ATOM    132  H69 A02 d          21.492   2.622   3.845  0.00  0.00     0.174 HD
ATOM    133  H70 A02 d          22.200   6.447   2.592  0.00  0.00     0.174 HD
ATOM    134  H71 A02 d          22.558   5.074   1.512  0.00  0.00     0.174 HD
ATOM    135  H67 A02 d          21.348   6.148   4.558  0.00  0.00     0.177 HD
ENDBRANCH 124 127
ENDBRANCH 121 124
ENDBRANCH 118 121
ENDBRANCH 116 118
BRANCH 116 136
ATOM    136  C   A02 d          19.554   7.901   7.988  0.00  0.00     0.238 C 
ATOM    137  O   A02 d          20.512   8.654   7.797  0.00  0.00    -0.271 OA
ATOM    138  NAF A02 d          19.149   7.522   9.198  0.00  0.00    -0.368 N 
ATOM    139  H72 A02 d          19.640   7.836  10.011  0.00  0.00     0.159 HD
ATOM    140  H73 A02 d          18.354   6.922   9.295  0.00  0.00     0.159 HD
ENDBRANCH 116 136
ENDBRANCH 114 116
ENDBRANCH  92 112
ENDBRANCH  90  92
ENDBRANCH  85  88
ENDBRANCH  82  85
ENDBRANCH  79  82
ENDBRANCH  76  79
ENDBRANCH  73  76
ENDBRANCH   3  73
TORSDOF 36
ENDMDL
MODEL 6
REMARK VINA RESULT:      -5.0      2.729      4.575
REMARK WARNING: 32 MAX_TORS EXCEEDED!!!
REMARK  36 active torsions:
REMARK  status: ('A' for Active; 'I' for Inactive)
REMARK    1  A    between atoms: C6_6  and  N6_7 
REMARK    2  A    between atoms: CCN_19  and  N9_10 
REMARK    3  A    between atoms: CCK_16  and  OAN_12 
REMARK    4  A    between atoms: CCL_17  and  OAO_13 
REMARK    5  A    between atoms: CCC_15  and  CCM_18 
REMARK       I    between atoms: NBR_27  and  CCC_15 
REMARK    6  A    between atoms: CBZ_20  and  CBG_22 
REMARK       I    between atoms: NBS_28  and  CBZ_20 
REMARK    7  A    between atoms: CBG_22  and  CAX_23 
REMARK    8  A    between atoms: CAX_23  and  CAU_24 
REMARK    9  A    between atoms: CAU_24  and  CAW_25 
REMARK   10  A    between atoms: CAW_25  and  CBD_26 
REMARK   11  A    between atoms: CBD_26  and  NBR_27 
REMARK   12  A    between atoms: CCI_29  and  NBS_28 
REMARK   13  A    between atoms: CCB_30  and  CCI_29 
REMARK   14  A    between atoms: CCI_29  and  CBJ_32 
REMARK       I    between atoms: NBQ_44  and  CCB_30 
REMARK   15  A    between atoms: CBJ_32  and  CAZ_33 
REMARK   16  A    between atoms: CAZ_33  and  CAS_34 
REMARK   17  A    between atoms: CAS_34  and  CAR_35 
REMARK   18  A    between atoms: CAR_35  and  NAC_36 
REMARK   19  A    between atoms: CBH_39  and  CCA_37 
REMARK       I    between atoms: CCA_37  and  NBT_45 
REMARK   20  A    between atoms: CAY_40  and  CBH_39 
REMARK   21  A    between atoms: CAT_41  and  CAY_40 
REMARK   22  A    between atoms: CAV_42  and  CAT_41 
REMARK   23  A    between atoms: CBC_43  and  CAV_42 
REMARK   24  A    between atoms: CBC_43  and  NBQ_44 
REMARK   25  A    between atoms: NBT_45  and  CCJ_46 
REMARK   26  A    between atoms: CCJ_46  and  CBK_47 
REMARK   27  A    between atoms: CCJ_46  and  CCD_54 
REMARK   28  A    between atoms: CBK_47  and  CBB_48 
REMARK   29  A    between atoms: CBB_48  and  CBF_49 
REMARK   30  A    between atoms: CBF_49  and  NBP_50 
REMARK       I    between atoms: NBP_50  and  CBX_51 
REMARK       I    between atoms: CBX_51  and  NAB_52 
REMARK       I    between atoms: CBX_51  and  NAE_53 
REMARK       I    between atoms: CCD_54  and  N_56 
REMARK   31  A    between atoms: N_56  and  CA_57 
REMARK   32  A    between atoms: CA_57  and  CB_58 
REMARK   33  A    between atoms: CA_57  and  C_65 
REMARK   34  A    between atoms: CB_58  and  CG_59 
REMARK   35  A    between atoms: CG_59  and  CD_60 
REMARK   36  A    between atoms: CD_60  and  NE_61 
REMARK       I    between atoms: NE_61  and  CZ_62 
REMARK       I    between atoms: CZ_62  and  NH1_63 
REMARK       I    between atoms: C_65  and  NAF_67 
ROOT
ATOM      1  CCB A02 d          17.842   5.413   3.217  0.00  0.00     0.240 C 
ATOM      2  OAK A02 d          18.505   4.623   2.558  0.00  0.00    -0.271 OA
ATOM      3  NBQ A02 d          16.864   6.162   2.710  0.00  0.00    -0.359 N 
ATOM      4  H45 A02 d          16.376   6.792   3.315  0.00  0.00     0.162 HD
ENDROOT
BRANCH   1   5
ATOM      5  CCI A02 d          18.134   5.622   4.723  0.00  0.00     0.089 C 
ATOM      6  H23 A02 d          18.215   4.622   5.176  0.00  0.00     0.087 H 
BRANCH   5   7
ATOM      7  NBS A02 d          17.000   6.315   5.386  0.00  0.00    -0.348 N 
ATOM      8  CBZ A02 d          16.784   6.214   6.708  0.00  0.00     0.218 C 
ATOM      9  OAI A02 d          17.460   5.514   7.472  0.00  0.00    -0.274 OA
ATOM     10  H22 A02 d          16.381   6.872   4.834  0.00  0.00     0.163 HD
BRANCH   8  11
ATOM     11  CBG A02 d          15.568   7.003   7.233  0.00  0.00     0.009 C 
ATOM     12  H11 A02 d          15.145   6.473   8.098  0.00  0.00     0.047 H 
ATOM     13  H12 A02 d          14.812   7.065   6.436  0.00  0.00     0.047 H 
BRANCH  11  14
ATOM     14  CAX A02 d          15.953   8.432   7.665  0.00  0.00    -0.057 C 
ATOM     15  H13 A02 d          16.779   8.788   7.030  0.00  0.00     0.033 H 
ATOM     16  H14 A02 d          16.280   8.413   8.716  0.00  0.00     0.033 H 
BRANCH  14  17
ATOM     17  CAU A02 d          14.768   9.394   7.527  0.00  0.00    -0.063 C 
ATOM     18  H15 A02 d          14.465   9.429   6.470  0.00  0.00     0.033 H 
ATOM     19  H16 A02 d          15.088  10.395   7.851  0.00  0.00     0.033 H 
BRANCH  17  20
ATOM     20  CAW A02 d          13.559   8.972   8.367  0.00  0.00    -0.050 C 
ATOM     21  H17 A02 d          13.348   9.735   9.132  0.00  0.00     0.035 H 
ATOM     22  H18 A02 d          13.760   8.007   8.857  0.00  0.00     0.035 H 
BRANCH  20  23
ATOM     23  CBD A02 d          12.364   8.838   7.420  0.00  0.00    -0.005 C 
ATOM     24  H19 A02 d          12.740   8.726   6.393  0.00  0.00     0.064 H 
ATOM     25  H20 A02 d          11.756   9.751   7.491  0.00  0.00     0.064 H 
BRANCH  23  26
ATOM     26  NBR A02 d          11.513   7.679   7.741  0.00  0.00    -0.359 N 
ATOM     27  CCC A02 d          10.394   7.742   8.463  0.00  0.00     0.249 C 
ATOM     28  OAL A02 d           9.969   8.770   9.010  0.00  0.00    -0.271 OA
ATOM     29  H21 A02 d          11.793   6.784   7.392  0.00  0.00     0.162 HD
BRANCH  27  30
ATOM     30  CCM A02 d           9.598   6.431   8.607  0.00  0.00     0.144 C 
ATOM     31  OBV A02 d          10.325   5.296   8.029  0.00  0.00    -0.346 OA
ATOM     32  CCN A02 d          10.895   4.497   9.107  0.00  0.00     0.140 C 
ATOM     33  CCL A02 d          10.720   5.353  10.377  0.00  0.00     0.105 C 
ATOM     34  H10 A02 d          10.326   3.562   9.216  0.00  0.00     0.123 H 
ATOM     35  CCK A02 d           9.430   6.099  10.089  0.00  0.00     0.098 C 
ATOM     36  H8  A02 d          11.567   6.039  10.528  0.00  0.00     0.093 H 
ATOM     37  H7  A02 d           9.314   6.996  10.714  0.00  0.00     0.091 H 
ATOM     38  H9  A02 d           8.617   6.542   8.121  0.00  0.00     0.102 H 
BRANCH  32  39
ATOM     39  N9  A02 d          12.351   4.135   8.830  0.00  0.00    -0.294 N 
ATOM     40  C4  A02 d          13.282   3.884   9.745  0.00  0.00     0.167 A 
ATOM     41  N3  A02 d          13.268   3.871  11.087  0.00  0.00    -0.222 NA
ATOM     42  C5  A02 d          14.462   3.609   9.067  0.00  0.00     0.149 A 
ATOM     43  C2  A02 d          14.370   3.583  11.767  0.00  0.00     0.091 A 
ATOM     44  N1  A02 d          15.521   3.305  11.140  0.00  0.00    -0.222 NA
ATOM     45  H1  A02 d          14.339   3.572  12.851  0.00  0.00     0.146 H 
ATOM     46  C6  A02 d          15.600   3.316   9.800  0.00  0.00     0.155 A 
ATOM     47  N7  A02 d          14.224   3.691   7.760  0.00  0.00    -0.236 NA
ATOM     48  C8  A02 d          12.930   4.001   7.626  0.00  0.00     0.071 A 
ATOM     49  H4  A02 d          12.417   4.127   6.673  0.00  0.00     0.144 H 
BRANCH  46  50
ATOM     50  N6  A02 d          16.745   3.053   9.178  0.00  0.00    -0.382 N 
ATOM     51  H2  A02 d          16.735   2.603   8.251  0.00  0.00     0.157 HD
ATOM     52  H3  A02 d          17.641   3.298   9.622  0.00  0.00     0.157 HD
ENDBRANCH  46  50
ENDBRANCH  32  39
BRANCH  33  53
ATOM     53  OAO A02 d          10.548   4.521  11.515  0.00  0.00    -0.388 OA
ATOM     54  H6  A02 d          10.415   5.062  12.284  0.00  0.00     0.210 HD
ENDBRANCH  33  53
BRANCH  35  55
ATOM     55  OAN A02 d           8.307   5.210  10.252  0.00  0.00    -0.390 OA
ATOM     56  H5  A02 d           8.183   4.710   9.453  0.00  0.00     0.210 HD
ENDBRANCH  35  55
ENDBRANCH  27  30
ENDBRANCH  23  26
ENDBRANCH  20  23
ENDBRANCH  17  20
ENDBRANCH  14  17
ENDBRANCH  11  14
ENDBRANCH   8  11
ENDBRANCH   5   7
BRANCH   5  57
ATOM     57  CBJ A02 d          19.477   6.340   4.986  0.00  0.00    -0.038 C 
ATOM     58  H24 A02 d          20.247   5.861   4.362  0.00  0.00     0.036 H 
ATOM     59  H25 A02 d          19.732   6.207   6.048  0.00  0.00     0.036 H 
BRANCH  57  60
ATOM     60  CAZ A02 d          19.488   7.841   4.681  0.00  0.00    -0.061 C 
ATOM     61  H26 A02 d          18.651   8.082   4.009  0.00  0.00     0.033 H 
ATOM     62  H27 A02 d          20.437   8.106   4.194  0.00  0.00     0.033 H 
BRANCH  60  63
ATOM     63  CAS A02 d          19.342   8.651   5.987  0.00  0.00    -0.043 C 
ATOM     64  H28 A02 d          18.310   8.553   6.357  0.00  0.00     0.035 H 
ATOM     65  H29 A02 d          19.558   9.710   5.779  0.00  0.00     0.035 H 
BRANCH  63  66
ATOM     66  CAR A02 d          20.311   8.145   7.065  0.00  0.00     0.080 C 
ATOM     67  H30 A02 d          21.078   8.911   7.254  0.00  0.00     0.075 H 
ATOM     68  H31 A02 d          20.794   7.220   6.716  0.00  0.00     0.075 H 
BRANCH  66  69
ATOM     69  NAC A02 d          19.578   7.871   8.314  0.00  0.00    -0.079 N 
ATOM     70  H32 A02 d          18.673   8.314   8.276  0.00  0.00     0.274 HD
ATOM     71  H33 A02 d          20.098   8.237   9.097  0.00  0.00     0.274 HD
ATOM     72  H34 A02 d          19.461   6.876   8.424  0.00  0.00     0.274 HD
ENDBRANCH  66  69
ENDBRANCH  63  66
ENDBRANCH  60  63
ENDBRANCH  57  60
ENDBRANCH   5  57
ENDBRANCH   1   5
BRANCH   3  73
ATOM     73  CBC A02 d          16.471   6.096   1.284  0.00  0.00    -0.005 C 
ATOM     74  H43 A02 d          17.098   5.353   0.769  0.00  0.00     0.064 H 
ATOM     75  H44 A02 d          15.415   5.797   1.213  0.00  0.00     0.064 H 
BRANCH  73  76
ATOM     76  CAV A02 d          16.653   7.462   0.612  0.00  0.00    -0.050 C 
ATOM     77  H41 A02 d          16.863   7.313  -0.458  0.00  0.00     0.035 H 
ATOM     78  H42 A02 d          15.730   8.047   0.726  0.00  0.00     0.035 H 
BRANCH  76  79
ATOM     79  CAT A02 d          17.818   8.225   1.254  0.00  0.00    -0.063 C 
ATOM     80  H39 A02 d          18.035   7.782   2.236  0.00  0.00     0.033 H 
ATOM     81  H40 A02 d          18.703   8.135   0.606  0.00  0.00     0.033 H 
BRANCH  79  82
ATOM     82  CAY A02 d          17.492   9.710   1.442  0.00  0.00    -0.057 C 
ATOM     83  H37 A02 d          18.100  10.107   2.268  0.00  0.00     0.033 H 
ATOM     84  H38 A02 d          17.737  10.248   0.514  0.00  0.00     0.033 H 
BRANCH  82  85
ATOM     85  CBH A02 d          16.005   9.930   1.767  0.00  0.00     0.009 C 
ATOM     86  H35 A02 d          15.565  10.583   1.000  0.00  0.00     0.047 H 
ATOM     87  H36 A02 d          15.491   8.957   1.760  0.00  0.00     0.047 H 
BRANCH  85  88
ATOM     88  CCA A02 d          15.816  10.583   3.147  0.00  0.00     0.218 C 
ATOM     89  OAJ A02 d          16.287  10.064   4.163  0.00  0.00    -0.274 OA
ATOM     90  NBT A02 d          15.126  11.731   3.137  0.00  0.00    -0.348 N 
ATOM     91  H46 A02 d          14.793  12.079   2.261  0.00  0.00     0.163 HD
BRANCH  90  92
ATOM     92  CCJ A02 d          14.833  12.511   4.365  0.00  0.00     0.089 C 
ATOM     93  H47 A02 d          15.069  11.878   5.233  0.00  0.00     0.087 H 
BRANCH  92  94
ATOM     94  CBK A02 d          13.330  12.889   4.448  0.00  0.00    -0.036 C 
ATOM     95  H48 A02 d          12.900  12.815   3.439  0.00  0.00     0.036 H 
ATOM     96  H49 A02 d          13.256  13.927   4.803  0.00  0.00     0.036 H 
BRANCH  94  97
ATOM     97  CBB A02 d          12.500  11.999   5.390  0.00  0.00    -0.048 C 
ATOM     98  H50 A02 d          11.991  12.640   6.125  0.00  0.00     0.035 H 
ATOM     99  H51 A02 d          13.179  11.309   5.914  0.00  0.00     0.035 H 
BRANCH  97 100
ATOM    100  CBF A02 d          11.444  11.177   4.635  0.00  0.00     0.009 C 
ATOM    101  H52 A02 d          11.064  11.756   3.780  0.00  0.00     0.064 H 
ATOM    102  H53 A02 d          10.612  10.931   5.310  0.00  0.00     0.064 H 
BRANCH 100 103
ATOM    103  NBP A02 d          12.081   9.936   4.154  0.00  0.00    -0.227 N 
ATOM    104  CBX A02 d          12.231   9.621   2.860  0.00  0.00     0.665 C 
ATOM    105  NAB A02 d          11.823  10.425   1.879  0.00  0.00    -0.235 N 
ATOM    106  NAE A02 d          12.817   8.468   2.552  0.00  0.00    -0.235 N 
ATOM    107  H55 A02 d          11.957  10.146   0.896  0.00  0.00     0.174 HD
ATOM    108  H56 A02 d          11.374  11.324   2.103  0.00  0.00     0.174 HD
ATOM    109  H57 A02 d          13.138   7.837   3.301  0.00  0.00     0.174 HD
ATOM    110  H58 A02 d          12.952   8.206   1.565  0.00  0.00     0.174 HD
ATOM    111  H54 A02 d          12.432   9.270   4.857  0.00  0.00     0.177 HD
ENDBRANCH 100 103
ENDBRANCH  97 100
ENDBRANCH  94  97
ENDBRANCH  92  94
BRANCH  92 112
ATOM    112  CCD A02 d          15.731  13.770   4.435  0.00  0.00     0.241 C 
ATOM    113  OAM A02 d          16.745  13.787   5.132  0.00  0.00    -0.271 OA
ATOM    114  N   A02 d          15.320  14.806   3.700  0.00  0.00    -0.346 N 
ATOM    115  H59 A02 d          14.482  14.705   3.164  0.00  0.00     0.163 HD
BRANCH 114 116
ATOM    116  CA  A02 d          16.041  16.097   3.638  0.00  0.00     0.089 C 
ATOM    117  H60 A02 d          16.983  15.945   3.091  0.00  0.00     0.087 H 
BRANCH 116 118
ATOM    118  CB  A02 d          16.366  16.577   5.058  0.00  0.00    -0.036 C 
ATOM    119  H61 A02 d          16.268  15.729   5.753  0.00  0.00     0.036 H 
ATOM    120  H62 A02 d          15.653  17.366   5.341  0.00  0.00     0.036 H 
BRANCH 118 121
ATOM    121  CG  A02 d          17.787  17.134   5.150  0.00  0.00    -0.048 C 
ATOM    122  H63 A02 d          18.318  16.917   4.211  0.00  0.00     0.035 H 
ATOM    123  H64 A02 d          18.310  16.648   5.987  0.00  0.00     0.035 H 
BRANCH 121 124
ATOM    124  CD  A02 d          17.778  18.642   5.378  0.00  0.00     0.009 C 
ATOM    125  H65 A02 d          16.751  18.986   5.573  0.00  0.00     0.064 H 
ATOM    126  H66 A02 d          18.175  19.159   4.492  0.00  0.00     0.064 H 
BRANCH 124 127
ATOM    127  NE  A02 d          18.623  18.915   6.536  0.00  0.00    -0.227 N 
ATOM    128  CZ  A02 d          18.185  19.099   7.780  0.00  0.00     0.665 C 
ATOM    129  NH1 A02 d          16.898  19.012   8.116  0.00  0.00    -0.235 N 
ATOM    130  NH2 A02 d          19.098  19.357   8.706  0.00  0.00    -0.235 N 
ATOM    131  H68 A02 d          16.610  19.162   9.094  0.00  0.00     0.174 HD
ATOM    132  H69 A02 d          16.192  18.794   7.399  0.00  0.00     0.174 HD
ATOM    133  H70 A02 d          20.092  19.424   8.445  0.00  0.00     0.174 HD
ATOM    134  H71 A02 d          18.814  19.491   9.687  0.00  0.00     0.174 HD
ATOM    135  H67 A02 d          19.640  18.970   6.378  0.00  0.00     0.177 HD
ENDBRANCH 124 127
ENDBRANCH 121 124
ENDBRANCH 118 121
ENDBRANCH 116 118
BRANCH 116 136
ATOM    136  C   A02 d          15.214  17.173   2.897  0.00  0.00     0.238 C 
ATOM    137  O   A02 d          15.695  17.847   1.983  0.00  0.00    -0.271 OA
ATOM    138  NAF A02 d          13.953  17.288   3.309  0.00  0.00    -0.368 N 
ATOM    139  H72 A02 d          13.348  17.961   2.883  0.00  0.00     0.159 HD
ATOM    140  H73 A02 d          13.612  16.703   4.045  0.00  0.00     0.159 HD
ENDBRANCH 116 136
ENDBRANCH 114 116
ENDBRANCH  92 112
ENDBRANCH  90  92
ENDBRANCH  85  88
ENDBRANCH  82  85
ENDBRANCH  79  82
ENDBRANCH  76  79
ENDBRANCH  73  76
ENDBRANCH   3  73
TORSDOF 36
ENDMDL
MODEL 7
REMARK VINA RESULT:      -4.8      4.430      9.853
REMARK WARNING: 32 MAX_TORS EXCEEDED!!!
REMARK  36 active torsions:
REMARK  status: ('A' for Active; 'I' for Inactive)
REMARK    1  A    between atoms: C6_6  and  N6_7 
REMARK    2  A    between atoms: CCN_19  and  N9_10 
REMARK    3  A    between atoms: CCK_16  and  OAN_12 
REMARK    4  A    between atoms: CCL_17  and  OAO_13 
REMARK    5  A    between atoms: CCC_15  and  CCM_18 
REMARK       I    between atoms: NBR_27  and  CCC_15 
REMARK    6  A    between atoms: CBZ_20  and  CBG_22 
REMARK       I    between atoms: NBS_28  and  CBZ_20 
REMARK    7  A    between atoms: CBG_22  and  CAX_23 
REMARK    8  A    between atoms: CAX_23  and  CAU_24 
REMARK    9  A    between atoms: CAU_24  and  CAW_25 
REMARK   10  A    between atoms: CAW_25  and  CBD_26 
REMARK   11  A    between atoms: CBD_26  and  NBR_27 
REMARK   12  A    between atoms: CCI_29  and  NBS_28 
REMARK   13  A    between atoms: CCB_30  and  CCI_29 
REMARK   14  A    between atoms: CCI_29  and  CBJ_32 
REMARK       I    between atoms: NBQ_44  and  CCB_30 
REMARK   15  A    between atoms: CBJ_32  and  CAZ_33 
REMARK   16  A    between atoms: CAZ_33  and  CAS_34 
REMARK   17  A    between atoms: CAS_34  and  CAR_35 
REMARK   18  A    between atoms: CAR_35  and  NAC_36 
REMARK   19  A    between atoms: CBH_39  and  CCA_37 
REMARK       I    between atoms: CCA_37  and  NBT_45 
REMARK   20  A    between atoms: CAY_40  and  CBH_39 
REMARK   21  A    between atoms: CAT_41  and  CAY_40 
REMARK   22  A    between atoms: CAV_42  and  CAT_41 
REMARK   23  A    between atoms: CBC_43  and  CAV_42 
REMARK   24  A    between atoms: CBC_43  and  NBQ_44 
REMARK   25  A    between atoms: NBT_45  and  CCJ_46 
REMARK   26  A    between atoms: CCJ_46  and  CBK_47 
REMARK   27  A    between atoms: CCJ_46  and  CCD_54 
REMARK   28  A    between atoms: CBK_47  and  CBB_48 
REMARK   29  A    between atoms: CBB_48  and  CBF_49 
REMARK   30  A    between atoms: CBF_49  and  NBP_50 
REMARK       I    between atoms: NBP_50  and  CBX_51 
REMARK       I    between atoms: CBX_51  and  NAB_52 
REMARK       I    between atoms: CBX_51  and  NAE_53 
REMARK       I    between atoms: CCD_54  and  N_56 
REMARK   31  A    between atoms: N_56  and  CA_57 
REMARK   32  A    between atoms: CA_57  and  CB_58 
REMARK   33  A    between atoms: CA_57  and  C_65 
REMARK   34  A    between atoms: CB_58  and  CG_59 
REMARK   35  A    between atoms: CG_59  and  CD_60 
REMARK   36  A    between atoms: CD_60  and  NE_61 
REMARK       I    between atoms: NE_61  and  CZ_62 
REMARK       I    between atoms: CZ_62  and  NH1_63 
REMARK       I    between atoms: C_65  and  NAF_67 
ROOT
ATOM      1  CCB A02 d          15.959   7.840   5.203  0.00  0.00     0.240 C 
ATOM      2  OAK A02 d          15.230   7.345   6.053  0.00  0.00    -0.271 OA
ATOM      3  NBQ A02 d          16.051   7.391   3.953  0.00  0.00    -0.359 N 
ATOM      4  H45 A02 d          16.680   7.846   3.322  0.00  0.00     0.162 HD
ENDROOT
BRANCH   1   5
ATOM      5  CCI A02 d          16.876   9.038   5.555  0.00  0.00     0.089 C 
ATOM      6  H23 A02 d          17.307   9.400   4.610  0.00  0.00     0.087 H 
BRANCH   5   7
ATOM      7  NBS A02 d          18.005   8.598   6.415  0.00  0.00    -0.348 N 
ATOM      8  CBZ A02 d          19.178   8.203   5.894  0.00  0.00     0.218 C 
ATOM      9  OAI A02 d          19.410   8.122   4.682  0.00  0.00    -0.274 OA
ATOM     10  H22 A02 d          17.888   8.596   7.407  0.00  0.00     0.163 HD
BRANCH   8  11
ATOM     11  CBG A02 d          20.244   7.787   6.929  0.00  0.00     0.009 C 
ATOM     12  H11 A02 d          20.439   8.635   7.600  0.00  0.00     0.047 H 
ATOM     13  H12 A02 d          21.169   7.519   6.397  0.00  0.00     0.047 H 
BRANCH  11  14
ATOM     14  CAX A02 d          19.786   6.580   7.771  0.00  0.00    -0.057 C 
ATOM     15  H13 A02 d          18.690   6.606   7.870  0.00  0.00     0.033 H 
ATOM     16  H14 A02 d          20.246   6.645   8.770  0.00  0.00     0.033 H 
BRANCH  14  17
ATOM     17  CAU A02 d          20.198   5.257   7.117  0.00  0.00    -0.063 C 
ATOM     18  H15 A02 d          21.297   5.194   7.112  0.00  0.00     0.033 H 
ATOM     19  H16 A02 d          19.826   5.246   6.081  0.00  0.00     0.033 H 
BRANCH  17  20
ATOM     20  CAW A02 d          19.641   4.032   7.848  0.00  0.00    -0.050 C 
ATOM     21  H17 A02 d          19.209   4.335   8.813  0.00  0.00     0.035 H 
ATOM     22  H18 A02 d          20.445   3.300   8.020  0.00  0.00     0.035 H 
BRANCH  20  23
ATOM     23  CBD A02 d          18.557   3.418   6.959  0.00  0.00    -0.005 C 
ATOM     24  H19 A02 d          19.011   2.623   6.349  0.00  0.00     0.064 H 
ATOM     25  H20 A02 d          18.157   4.202   6.301  0.00  0.00     0.064 H 
BRANCH  23  26
ATOM     26  NBR A02 d          17.446   2.841   7.736  0.00  0.00    -0.359 N 
ATOM     27  CCC A02 d          16.231   2.594   7.244  0.00  0.00     0.249 C 
ATOM     28  OAL A02 d          15.868   2.883   6.094  0.00  0.00    -0.271 OA
ATOM     29  H21 A02 d          17.614   2.619   8.696  0.00  0.00     0.162 HD
BRANCH  27  30
ATOM     30  CCM A02 d          15.236   1.902   8.194  0.00  0.00     0.144 C 
ATOM     31  OBV A02 d          14.724   2.834   9.205  0.00  0.00    -0.346 OA
ATOM     32  CCN A02 d          13.364   3.220   8.850  0.00  0.00     0.140 C 
ATOM     33  CCL A02 d          13.159   2.698   7.414  0.00  0.00     0.105 C 
ATOM     34  H10 A02 d          12.650   2.724   9.524  0.00  0.00     0.123 H 
ATOM     35  CCK A02 d          14.013   1.443   7.402  0.00  0.00     0.098 C 
ATOM     36  H8  A02 d          13.491   3.429   6.662  0.00  0.00     0.093 H 
ATOM     37  H7  A02 d          14.266   1.116   6.383  0.00  0.00     0.091 H 
ATOM     38  H9  A02 d          15.728   1.046   8.680  0.00  0.00     0.102 H 
BRANCH  32  39
ATOM     39  N9  A02 d          13.157   4.727   8.970  0.00  0.00    -0.294 N 
ATOM     40  C4  A02 d          13.311   5.452  10.073  0.00  0.00     0.167 A 
ATOM     41  N3  A02 d          13.655   5.142  11.333  0.00  0.00    -0.222 NA
ATOM     42  C5  A02 d          13.015   6.768   9.746  0.00  0.00     0.149 A 
ATOM     43  C2  A02 d          13.731   6.087  12.261  0.00  0.00     0.091 A 
ATOM     44  N1  A02 d          13.460   7.367  11.972  0.00  0.00    -0.222 NA
ATOM     45  H1  A02 d          14.016   5.819  13.272  0.00  0.00     0.146 H 
ATOM     46  C6  A02 d          13.096   7.736  10.733  0.00  0.00     0.155 A 
ATOM     47  N7  A02 d          12.697   6.818   8.454  0.00  0.00    -0.236 NA
ATOM     48  C8  A02 d          12.799   5.568   7.987  0.00  0.00     0.071 A 
ATOM     49  H4  A02 d          12.615   5.275   6.955  0.00  0.00     0.144 H 
BRANCH  46  50
ATOM     50  N6  A02 d          12.815   9.003  10.449  0.00  0.00    -0.382 N 
ATOM     51  H2  A02 d          13.356   9.501   9.728  0.00  0.00     0.157 HD
ATOM     52  H3  A02 d          12.057   9.488  10.951  0.00  0.00     0.157 HD
ENDBRANCH  46  50
ENDBRANCH  32  39
BRANCH  33  53
ATOM     53  OAO A02 d          11.798   2.353   7.202  0.00  0.00    -0.388 OA
ATOM     54  H6  A02 d          11.240   3.011   7.599  0.00  0.00     0.210 HD
ENDBRANCH  33  53
BRANCH  35  55
ATOM     55  OAN A02 d          13.345   0.392   8.128  0.00  0.00    -0.390 OA
ATOM     56  H5  A02 d          12.566   0.743   8.545  0.00  0.00     0.210 HD
ENDBRANCH  35  55
ENDBRANCH  27  30
ENDBRANCH  23  26
ENDBRANCH  20  23
ENDBRANCH  17  20
ENDBRANCH  14  17
ENDBRANCH  11  14
ENDBRANCH   8  11
ENDBRANCH   5   7
BRANCH   5  57
ATOM     57  CBJ A02 d          16.108  10.225   6.180  0.00  0.00    -0.038 C 
ATOM     58  H24 A02 d          16.831  11.030   6.379  0.00  0.00     0.036 H 
ATOM     59  H25 A02 d          15.669   9.884   7.129  0.00  0.00     0.036 H 
BRANCH  57  60
ATOM     60  CAZ A02 d          14.981  10.803   5.318  0.00  0.00    -0.061 C 
ATOM     61  H26 A02 d          14.186  10.050   5.207  0.00  0.00     0.033 H 
ATOM     62  H27 A02 d          15.380  11.064   4.326  0.00  0.00     0.033 H 
BRANCH  60  63
ATOM     63  CAS A02 d          14.397  12.068   5.981  0.00  0.00    -0.043 C 
ATOM     64  H28 A02 d          14.858  12.199   6.972  0.00  0.00     0.035 H 
ATOM     65  H29 A02 d          13.310  11.944   6.095  0.00  0.00     0.035 H 
BRANCH  63  66
ATOM     66  CAR A02 d          14.672  13.318   5.131  0.00  0.00     0.080 C 
ATOM     67  H30 A02 d          15.633  13.760   5.435  0.00  0.00     0.075 H 
ATOM     68  H31 A02 d          13.866  14.049   5.288  0.00  0.00     0.075 H 
BRANCH  66  69
ATOM     69  NAC A02 d          14.731  12.954   3.704  0.00  0.00    -0.079 N 
ATOM     70  H32 A02 d          15.404  12.214   3.573  0.00  0.00     0.274 HD
ATOM     71  H33 A02 d          15.006  13.759   3.163  0.00  0.00     0.274 HD
ATOM     72  H34 A02 d          13.823  12.640   3.400  0.00  0.00     0.274 HD
ENDBRANCH  66  69
ENDBRANCH  63  66
ENDBRANCH  60  63
ENDBRANCH  57  60
ENDBRANCH   5  57
ENDBRANCH   1   5
BRANCH   3  73
ATOM     73  CBC A02 d          15.256   6.242   3.461  0.00  0.00    -0.005 C 
ATOM     74  H43 A02 d          14.805   5.720   4.318  0.00  0.00     0.064 H 
ATOM     75  H44 A02 d          14.460   6.611   2.797  0.00  0.00     0.064 H 
BRANCH  73  76
ATOM     76  CAV A02 d          16.146   5.264   2.685  0.00  0.00    -0.050 C 
ATOM     77  H41 A02 d          17.200   5.464   2.928  0.00  0.00     0.035 H 
ATOM     78  H42 A02 d          15.891   4.235   2.977  0.00  0.00     0.035 H 
BRANCH  76  79
ATOM     79  CAT A02 d          15.936   5.428   1.175  0.00  0.00    -0.063 C 
ATOM     80  H39 A02 d          16.192   4.482   0.676  0.00  0.00     0.033 H 
ATOM     81  H40 A02 d          14.878   5.667   0.987  0.00  0.00     0.033 H 
BRANCH  79  82
ATOM     82  CAY A02 d          16.808   6.546   0.596  0.00  0.00    -0.057 C 
ATOM     83  H37 A02 d          17.627   6.760   1.299  0.00  0.00     0.033 H 
ATOM     84  H38 A02 d          17.227   6.210  -0.364  0.00  0.00     0.033 H 
BRANCH  82  85
ATOM     85  CBH A02 d          16.002   7.835   0.363  0.00  0.00     0.009 C 
ATOM     86  H35 A02 d          15.854   8.342   1.328  0.00  0.00     0.047 H 
ATOM     87  H36 A02 d          16.568   8.492  -0.314  0.00  0.00     0.047 H 
BRANCH  85  88
ATOM     88  CCA A02 d          14.627   7.541  -0.260  0.00  0.00     0.218 C 
ATOM     89  OAJ A02 d          14.526   7.220  -1.448  0.00  0.00    -0.274 OA
ATOM     90  NBT A02 d          13.591   7.652   0.581  0.00  0.00    -0.348 N 
ATOM     91  H46 A02 d          13.773   7.907   1.530  0.00  0.00     0.163 HD
BRANCH  90  92
ATOM     92  CCJ A02 d          12.185   7.414   0.171  0.00  0.00     0.089 C 
ATOM     93  H47 A02 d          12.046   7.847  -0.830  0.00  0.00     0.087 H 
BRANCH  92  94
ATOM     94  CBK A02 d          11.190   8.117   1.133  0.00  0.00    -0.036 C 
ATOM     95  H48 A02 d          10.365   7.420   1.344  0.00  0.00     0.036 H 
ATOM     96  H49 A02 d          10.795   9.010   0.627  0.00  0.00     0.036 H 
BRANCH  94  97
ATOM     97  CBB A02 d          11.802   8.556   2.474  0.00  0.00    -0.048 C 
ATOM     98  H50 A02 d          12.410   9.457   2.307  0.00  0.00     0.035 H 
ATOM     99  H51 A02 d          12.444   7.746   2.852  0.00  0.00     0.035 H 
BRANCH  97 100
ATOM    100  CBF A02 d          10.730   8.871   3.529  0.00  0.00     0.009 C 
ATOM    101  H52 A02 d           9.881   9.385   3.055  0.00  0.00     0.064 H 
ATOM    102  H53 A02 d          11.157   9.515   4.312  0.00  0.00     0.064 H 
BRANCH 100 103
ATOM    103  NBP A02 d          10.275   7.599   4.122  0.00  0.00    -0.227 N 
ATOM    104  CBX A02 d          10.362   7.304   5.426  0.00  0.00     0.665 C 
ATOM    105  NAB A02 d          10.862   8.157   6.318  0.00  0.00    -0.235 N 
ATOM    106  NAE A02 d           9.922   6.119   5.839  0.00  0.00    -0.235 N 
ATOM    107  H55 A02 d          10.912   7.893   7.313  0.00  0.00     0.174 HD
ATOM    108  H56 A02 d          11.200   9.082   6.014  0.00  0.00     0.174 HD
ATOM    109  H57 A02 d           9.532   5.449   5.160  0.00  0.00     0.174 HD
ATOM    110  H58 A02 d           9.970   5.871   6.838  0.00  0.00     0.174 HD
ATOM    111  H54 A02 d           9.865   6.893   3.494  0.00  0.00     0.177 HD
ENDBRANCH 100 103
ENDBRANCH  97 100
ENDBRANCH  94  97
ENDBRANCH  92  94
BRANCH  92 112
ATOM    112  CCD A02 d          11.896   5.896   0.079  0.00  0.00     0.241 C 
ATOM    113  OAM A02 d          11.641   5.238   1.088  0.00  0.00    -0.271 OA
ATOM    114  N   A02 d          11.951   5.377  -1.149  0.00  0.00    -0.346 N 
ATOM    115  H59 A02 d          12.167   5.987  -1.912  0.00  0.00     0.163 HD
BRANCH 114 116
ATOM    116  CA  A02 d          11.709   3.946  -1.441  0.00  0.00     0.089 C 
ATOM    117  H60 A02 d          11.219   3.868  -2.422  0.00  0.00     0.087 H 
BRANCH 116 118
ATOM    118  CB  A02 d          10.780   3.352  -0.375  0.00  0.00    -0.036 C 
ATOM    119  H61 A02 d          10.707   4.055   0.468  0.00  0.00     0.036 H 
ATOM    120  H62 A02 d          11.204   2.400  -0.022  0.00  0.00     0.036 H 
BRANCH 118 121
ATOM    121  CG  A02 d           9.379   3.096  -0.933  0.00  0.00    -0.048 C 
ATOM    122  H63 A02 d           9.282   3.604  -1.904  0.00  0.00     0.035 H 
ATOM    123  H64 A02 d           8.634   3.500  -0.232  0.00  0.00     0.035 H 
BRANCH 121 124
ATOM    124  CD  A02 d           9.123   1.605  -1.125  0.00  0.00     0.009 C 
ATOM    125  H65 A02 d           9.548   1.271  -2.082  0.00  0.00     0.064 H 
ATOM    126  H66 A02 d           8.041   1.405  -1.114  0.00  0.00     0.064 H 
BRANCH 124 127
ATOM    127  NE  A02 d           9.770   0.904  -0.020  0.00  0.00    -0.227 N 
ATOM    128  CZ  A02 d           9.858  -0.420   0.102  0.00  0.00     0.665 C 
ATOM    129  NH1 A02 d           9.388  -1.266  -0.814  0.00  0.00    -0.235 N 
ATOM    130  NH2 A02 d          10.467  -0.883   1.185  0.00  0.00    -0.235 N 
ATOM    131  H68 A02 d           9.481  -2.282  -0.673  0.00  0.00     0.174 HD
ATOM    132  H69 A02 d           8.930  -0.904  -1.663  0.00  0.00     0.174 HD
ATOM    133  H70 A02 d          10.830  -0.228   1.892  0.00  0.00     0.174 HD
ATOM    134  H71 A02 d          10.576  -1.899   1.319  0.00  0.00     0.174 HD
ATOM    135  H67 A02 d          10.192   1.478   0.724  0.00  0.00     0.177 HD
ENDBRANCH 124 127
ENDBRANCH 121 124
ENDBRANCH 118 121
ENDBRANCH 116 118
BRANCH 116 136
ATOM    136  C   A02 d          13.031   3.147  -1.491  0.00  0.00     0.238 C 
ATOM    137  O   A02 d          14.107   3.686  -1.757  0.00  0.00    -0.271 OA
ATOM    138  NAF A02 d          12.911   1.852  -1.203  0.00  0.00    -0.368 N 
ATOM    139  H72 A02 d          13.717   1.261  -1.213  0.00  0.00     0.159 HD
ATOM    140  H73 A02 d          12.014   1.471  -0.978  0.00  0.00     0.159 HD
ENDBRANCH 116 136
ENDBRANCH 114 116
ENDBRANCH  92 112
ENDBRANCH  90  92
ENDBRANCH  85  88
ENDBRANCH  82  85
ENDBRANCH  79  82
ENDBRANCH  76  79
ENDBRANCH  73  76
ENDBRANCH   3  73
TORSDOF 36
ENDMDL
MODEL 8
REMARK VINA RESULT:      -4.7      4.123      7.782
REMARK WARNING: 32 MAX_TORS EXCEEDED!!!
REMARK  36 active torsions:
REMARK  status: ('A' for Active; 'I' for Inactive)
REMARK    1  A    between atoms: C6_6  and  N6_7 
REMARK    2  A    between atoms: CCN_19  and  N9_10 
REMARK    3  A    between atoms: CCK_16  and  OAN_12 
REMARK    4  A    between atoms: CCL_17  and  OAO_13 
REMARK    5  A    between atoms: CCC_15  and  CCM_18 
REMARK       I    between atoms: NBR_27  and  CCC_15 
REMARK    6  A    between atoms: CBZ_20  and  CBG_22 
REMARK       I    between atoms: NBS_28  and  CBZ_20 
REMARK    7  A    between atoms: CBG_22  and  CAX_23 
REMARK    8  A    between atoms: CAX_23  and  CAU_24 
REMARK    9  A    between atoms: CAU_24  and  CAW_25 
REMARK   10  A    between atoms: CAW_25  and  CBD_26 
REMARK   11  A    between atoms: CBD_26  and  NBR_27 
REMARK   12  A    between atoms: CCI_29  and  NBS_28 
REMARK   13  A    between atoms: CCB_30  and  CCI_29 
REMARK   14  A    between atoms: CCI_29  and  CBJ_32 
REMARK       I    between atoms: NBQ_44  and  CCB_30 
REMARK   15  A    between atoms: CBJ_32  and  CAZ_33 
REMARK   16  A    between atoms: CAZ_33  and  CAS_34 
REMARK   17  A    between atoms: CAS_34  and  CAR_35 
REMARK   18  A    between atoms: CAR_35  and  NAC_36 
REMARK   19  A    between atoms: CBH_39  and  CCA_37 
REMARK       I    between atoms: CCA_37  and  NBT_45 
REMARK   20  A    between atoms: CAY_40  and  CBH_39 
REMARK   21  A    between atoms: CAT_41  and  CAY_40 
REMARK   22  A    between atoms: CAV_42  and  CAT_41 
REMARK   23  A    between atoms: CBC_43  and  CAV_42 
REMARK   24  A    between atoms: CBC_43  and  NBQ_44 
REMARK   25  A    between atoms: NBT_45  and  CCJ_46 
REMARK   26  A    between atoms: CCJ_46  and  CBK_47 
REMARK   27  A    between atoms: CCJ_46  and  CCD_54 
REMARK   28  A    between atoms: CBK_47  and  CBB_48 
REMARK   29  A    between atoms: CBB_48  and  CBF_49 
REMARK   30  A    between atoms: CBF_49  and  NBP_50 
REMARK       I    between atoms: NBP_50  and  CBX_51 
REMARK       I    between atoms: CBX_51  and  NAB_52 
REMARK       I    between atoms: CBX_51  and  NAE_53 
REMARK       I    between atoms: CCD_54  and  N_56 
REMARK   31  A    between atoms: N_56  and  CA_57 
REMARK   32  A    between atoms: CA_57  and  CB_58 
REMARK   33  A    between atoms: CA_57  and  C_65 
REMARK   34  A    between atoms: CB_58  and  CG_59 
REMARK   35  A    between atoms: CG_59  and  CD_60 
REMARK   36  A    between atoms: CD_60  and  NE_61 
REMARK       I    between atoms: NE_61  and  CZ_62 
REMARK       I    between atoms: CZ_62  and  NH1_63 
REMARK       I    between atoms: C_65  and  NAF_67 
ROOT
ATOM      1  CCB A02 d          18.733   9.482   1.608  0.00  0.00     0.240 C 
ATOM      2  OAK A02 d          19.603   8.730   1.185  0.00  0.00    -0.271 OA
ATOM      3  NBQ A02 d          18.182  10.456   0.886  0.00  0.00    -0.359 N 
ATOM      4  H45 A02 d          17.484  11.034   1.310  0.00  0.00     0.162 HD
ENDROOT
BRANCH   1   5
ATOM      5  CCI A02 d          18.232   9.362   3.068  0.00  0.00     0.089 C 
ATOM      6  H23 A02 d          17.841  10.349   3.355  0.00  0.00     0.087 H 
BRANCH   5   7
ATOM      7  NBS A02 d          19.359   9.050   3.984  0.00  0.00    -0.348 N 
ATOM      8  CBZ A02 d          19.567   9.748   5.112  0.00  0.00     0.218 C 
ATOM      9  OAI A02 d          18.889  10.721   5.464  0.00  0.00    -0.274 OA
ATOM     10  H22 A02 d          19.980   8.301   3.755  0.00  0.00     0.163 HD
BRANCH   8  11
ATOM     11  CBG A02 d          20.777   9.287   5.952  0.00  0.00     0.009 C 
ATOM     12  H11 A02 d          20.818   9.884   6.874  0.00  0.00     0.047 H 
ATOM     13  H12 A02 d          21.696   9.448   5.369  0.00  0.00     0.047 H 
BRANCH  11  14
ATOM     14  CAX A02 d          20.680   7.795   6.327  0.00  0.00    -0.057 C 
ATOM     15  H13 A02 d          21.693   7.405   6.509  0.00  0.00     0.033 H 
ATOM     16  H14 A02 d          20.219   7.244   5.493  0.00  0.00     0.033 H 
BRANCH  14  17
ATOM     17  CAU A02 d          19.833   7.593   7.588  0.00  0.00    -0.063 C 
ATOM     18  H15 A02 d          18.773   7.720   7.323  0.00  0.00     0.033 H 
ATOM     19  H16 A02 d          20.119   8.354   8.329  0.00  0.00     0.033 H 
BRANCH  17  20
ATOM     20  CAW A02 d          20.018   6.208   8.215  0.00  0.00    -0.050 C 
ATOM     21  H17 A02 d          19.509   6.165   9.189  0.00  0.00     0.035 H 
ATOM     22  H18 A02 d          21.089   5.998   8.352  0.00  0.00     0.035 H 
BRANCH  20  23
ATOM     23  CBD A02 d          19.403   5.184   7.259  0.00  0.00    -0.005 C 
ATOM     24  H19 A02 d          20.196   4.504   6.913  0.00  0.00     0.064 H 
ATOM     25  H20 A02 d          18.977   5.718   6.397  0.00  0.00     0.064 H 
BRANCH  23  26
ATOM     26  NBR A02 d          18.338   4.385   7.890  0.00  0.00    -0.359 N 
ATOM     27  CCC A02 d          17.603   3.472   7.255  0.00  0.00     0.249 C 
ATOM     28  OAL A02 d          17.678   3.232   6.041  0.00  0.00    -0.271 OA
ATOM     29  H21 A02 d          18.155   4.537   8.862  0.00  0.00     0.162 HD
BRANCH  27  30
ATOM     30  CCM A02 d          16.603   2.678   8.117  0.00  0.00     0.144 C 
ATOM     31  OBV A02 d          16.096   3.486   9.231  0.00  0.00    -0.346 OA
ATOM     32  CCN A02 d          14.739   3.921   8.925  0.00  0.00     0.140 C 
ATOM     33  CCL A02 d          14.532   3.575   7.438  0.00  0.00     0.105 C 
ATOM     34  H10 A02 d          14.022   3.352   9.536  0.00  0.00     0.123 H 
ATOM     35  CCK A02 d          15.377   2.324   7.276  0.00  0.00     0.098 C 
ATOM     36  H8  A02 d          14.869   4.388   6.778  0.00  0.00     0.093 H 
ATOM     37  H7  A02 d          15.628   2.119   6.225  0.00  0.00     0.091 H 
ATOM     38  H9  A02 d          17.089   1.767   8.497  0.00  0.00     0.102 H 
BRANCH  32  39
ATOM     39  N9  A02 d          14.543   5.403   9.224  0.00  0.00    -0.294 N 
ATOM     40  C4  A02 d          13.504   5.944   9.852  0.00  0.00     0.167 A 
ATOM     41  N3  A02 d          12.382   5.428  10.379  0.00  0.00    -0.222 NA
ATOM     42  C5  A02 d          13.719   7.314   9.903  0.00  0.00     0.149 A 
ATOM     43  C2  A02 d          11.488   6.218  10.960  0.00  0.00     0.091 A 
ATOM     44  N1  A02 d          11.673   7.543  11.032  0.00  0.00    -0.222 NA
ATOM     45  H1  A02 d          10.590   5.783  11.385  0.00  0.00     0.146 H 
ATOM     46  C6  A02 d          12.769   8.118  10.510  0.00  0.00     0.155 A 
ATOM     47  N7  A02 d          14.884   7.577   9.313  0.00  0.00    -0.236 NA
ATOM     48  C8  A02 d          15.383   6.403   8.913  0.00  0.00     0.071 A 
ATOM     49  H4  A02 d          16.339   6.276   8.406  0.00  0.00     0.144 H 
BRANCH  46  50
ATOM     50  N6  A02 d          12.947   9.433  10.570  0.00  0.00    -0.382 N 
ATOM     51  H2  A02 d          12.314  10.062  10.056  0.00  0.00     0.157 HD
ATOM     52  H3  A02 d          13.720   9.824  11.128  0.00  0.00     0.157 HD
ENDBRANCH  46  50
ENDBRANCH  32  39
BRANCH  33  53
ATOM     53  OAO A02 d          13.169   3.266   7.187  0.00  0.00    -0.388 OA
ATOM     54  H6  A02 d          12.616   3.927   7.588  0.00  0.00     0.210 HD
ENDBRANCH  33  53
BRANCH  35  55
ATOM     55  OAN A02 d          14.702   1.199   7.872  0.00  0.00    -0.390 OA
ATOM     56  H5  A02 d          14.786   0.443   7.303  0.00  0.00     0.210 HD
ENDBRANCH  35  55
ENDBRANCH  27  30
ENDBRANCH  23  26
ENDBRANCH  20  23
ENDBRANCH  17  20
ENDBRANCH  14  17
ENDBRANCH  11  14
ENDBRANCH   8  11
ENDBRANCH   5   7
BRANCH   5  57
ATOM     57  CBJ A02 d          17.069   8.357   3.228  0.00  0.00    -0.038 C 
ATOM     58  H24 A02 d          16.683   8.122   2.225  0.00  0.00     0.036 H 
ATOM     59  H25 A02 d          16.279   8.844   3.820  0.00  0.00     0.036 H 
BRANCH  57  60
ATOM     60  CAZ A02 d          17.432   7.038   3.918  0.00  0.00    -0.061 C 
ATOM     61  H26 A02 d          18.519   7.003   4.085  0.00  0.00     0.033 H 
ATOM     62  H27 A02 d          17.133   6.198   3.275  0.00  0.00     0.033 H 
BRANCH  60  63
ATOM     63  CAS A02 d          16.704   6.927   5.274  0.00  0.00    -0.043 C 
ATOM     64  H28 A02 d          16.314   7.917   5.554  0.00  0.00     0.035 H 
ATOM     65  H29 A02 d          17.418   6.584   6.038  0.00  0.00     0.035 H 
BRANCH  63  66
ATOM     66  CAR A02 d          15.536   5.932   5.196  0.00  0.00     0.080 C 
ATOM     67  H30 A02 d          14.617   6.470   4.917  0.00  0.00     0.075 H 
ATOM     68  H31 A02 d          15.398   5.456   6.178  0.00  0.00     0.075 H 
BRANCH  66  69
ATOM     69  NAC A02 d          15.822   4.897   4.187  0.00  0.00    -0.079 N 
ATOM     70  H32 A02 d          14.998   4.735   3.629  0.00  0.00     0.274 HD
ATOM     71  H33 A02 d          16.088   4.041   4.650  0.00  0.00     0.274 HD
ATOM     72  H34 A02 d          16.576   5.206   3.593  0.00  0.00     0.274 HD
ENDBRANCH  66  69
ENDBRANCH  63  66
ENDBRANCH  60  63
ENDBRANCH  57  60
ENDBRANCH   5  57
ENDBRANCH   1   5
BRANCH   3  73
ATOM     73  CBC A02 d          18.563  10.716  -0.521  0.00  0.00    -0.005 C 
ATOM     74  H43 A02 d          18.743  11.793  -0.654  0.00  0.00     0.064 H 
ATOM     75  H44 A02 d          19.482  10.159  -0.756  0.00  0.00     0.064 H 
BRANCH  73  76
ATOM     76  CAV A02 d          17.447  10.270  -1.472  0.00  0.00    -0.050 C 
ATOM     77  H41 A02 d          17.892   9.761  -2.340  0.00  0.00     0.035 H 
ATOM     78  H42 A02 d          16.777   9.576  -0.944  0.00  0.00     0.035 H 
BRANCH  76  79
ATOM     79  CAT A02 d          16.638  11.480  -1.957  0.00  0.00    -0.063 C 
ATOM     80  H39 A02 d          16.962  12.370  -1.400  0.00  0.00     0.033 H 
ATOM     81  H40 A02 d          16.830  11.629  -3.031  0.00  0.00     0.033 H 
BRANCH  79  82
ATOM     82  CAY A02 d          15.134  11.282  -1.745  0.00  0.00    -0.057 C 
ATOM     83  H37 A02 d          14.669  12.261  -1.555  0.00  0.00     0.033 H 
ATOM     84  H38 A02 d          14.701  10.841  -2.655  0.00  0.00     0.033 H 
BRANCH  82  85
ATOM     85  CBH A02 d          14.843  10.354  -0.554  0.00  0.00     0.009 C 
ATOM     86  H35 A02 d          14.967   9.310  -0.877  0.00  0.00     0.047 H 
ATOM     87  H36 A02 d          15.558  10.575   0.253  0.00  0.00     0.047 H 
BRANCH  85  88
ATOM     88  CCA A02 d          13.414  10.544  -0.020  0.00  0.00     0.218 C 
ATOM     89  OAJ A02 d          12.472  10.752  -0.792  0.00  0.00    -0.274 OA
ATOM     90  NBT A02 d          13.292  10.456   1.310  0.00  0.00    -0.348 N 
ATOM     91  H46 A02 d          14.112  10.274   1.852  0.00  0.00     0.163 HD
BRANCH  90  92
ATOM     92  CCJ A02 d          11.998  10.615   2.018  0.00  0.00     0.089 C 
ATOM     93  H47 A02 d          11.263  11.003   1.298  0.00  0.00     0.087 H 
BRANCH  92  94
ATOM     94  CBK A02 d          12.111  11.638   3.179  0.00  0.00    -0.036 C 
ATOM     95  H48 A02 d          11.104  12.023   3.398  0.00  0.00     0.036 H 
ATOM     96  H49 A02 d          12.756  12.465   2.848  0.00  0.00     0.036 H 
BRANCH  94  97
ATOM     97  CBB A02 d          12.698  11.063   4.480  0.00  0.00    -0.048 C 
ATOM     98  H50 A02 d          13.320  10.191   4.232  0.00  0.00     0.035 H 
ATOM     99  H51 A02 d          11.870  10.749   5.133  0.00  0.00     0.035 H 
BRANCH  97 100
ATOM    100  CBF A02 d          13.560  12.088   5.234  0.00  0.00     0.009 C 
ATOM    101  H52 A02 d          12.997  13.024   5.363  0.00  0.00     0.064 H 
ATOM    102  H53 A02 d          14.480  12.289   4.666  0.00  0.00     0.064 H 
BRANCH 100 103
ATOM    103  NBP A02 d          13.901  11.525   6.554  0.00  0.00    -0.227 N 
ATOM    104  CBX A02 d          15.047  10.884   6.824  0.00  0.00     0.665 C 
ATOM    105  NAB A02 d          16.000  10.711   5.909  0.00  0.00    -0.235 N 
ATOM    106  NAE A02 d          15.237  10.415   8.053  0.00  0.00    -0.235 N 
ATOM    107  H55 A02 d          16.867  10.212   6.157  0.00  0.00     0.174 HD
ATOM    108  H56 A02 d          15.870  11.075   4.955  0.00  0.00     0.174 HD
ATOM    109  H57 A02 d          14.508  10.542   8.771  0.00  0.00     0.174 HD
ATOM    110  H58 A02 d          16.112   9.926   8.289  0.00  0.00     0.174 HD
ATOM    111  H54 A02 d          13.217  11.631   7.316  0.00  0.00     0.177 HD
ENDBRANCH 100 103
ENDBRANCH  97 100
ENDBRANCH  94  97
ENDBRANCH  92  94
BRANCH  92 112
ATOM    112  CCD A02 d          11.488   9.245   2.529  0.00  0.00     0.241 C 
ATOM    113  OAM A02 d          12.237   8.472   3.126  0.00  0.00    -0.271 OA
ATOM    114  N   A02 d          10.206   8.979   2.268  0.00  0.00    -0.346 N 
ATOM    115  H59 A02 d           9.670   9.665   1.775  0.00  0.00     0.163 HD
BRANCH 114 116
ATOM    116  CA  A02 d           9.536   7.723   2.671  0.00  0.00     0.089 C 
ATOM    117  H60 A02 d           8.448   7.876   2.624  0.00  0.00     0.087 H 
BRANCH 116 118
ATOM    118  CB  A02 d           9.923   7.370   4.113  0.00  0.00    -0.036 C 
ATOM    119  H61 A02 d          10.957   7.697   4.296  0.00  0.00     0.036 H 
ATOM    120  H62 A02 d           9.854   6.280   4.246  0.00  0.00     0.036 H 
BRANCH 118 121
ATOM    121  CG  A02 d           9.000   8.055   5.124  0.00  0.00    -0.048 C 
ATOM    122  H63 A02 d           8.597   7.296   5.812  0.00  0.00     0.035 H 
ATOM    123  H64 A02 d           8.171   8.536   4.584  0.00  0.00     0.035 H 
BRANCH 121 124
ATOM    124  CD  A02 d           9.748   9.111   5.931  0.00  0.00     0.009 C 
ATOM    125  H65 A02 d           9.261  10.089   5.811  0.00  0.00     0.064 H 
ATOM    126  H66 A02 d          10.791   9.176   5.588  0.00  0.00     0.064 H 
BRANCH 124 127
ATOM    127  NE  A02 d           9.708   8.702   7.331  0.00  0.00    -0.227 N 
ATOM    128  CZ  A02 d           9.378   9.491   8.352  0.00  0.00     0.665 C 
ATOM    129  NH1 A02 d           9.002  10.760   8.195  0.00  0.00    -0.235 N 
ATOM    130  NH2 A02 d           9.415   8.953   9.563  0.00  0.00    -0.235 N 
ATOM    131  H68 A02 d           8.756  11.330   9.018  0.00  0.00     0.174 HD
ATOM    132  H69 A02 d           8.957  11.172   7.252  0.00  0.00     0.174 HD
ATOM    133  H70 A02 d           9.705   7.972   9.682  0.00  0.00     0.174 HD
ATOM    134  H71 A02 d           9.153   9.516  10.385  0.00  0.00     0.174 HD
ATOM    135  H67 A02 d           9.954   7.725   7.548  0.00  0.00     0.177 HD
ENDBRANCH 124 127
ENDBRANCH 121 124
ENDBRANCH 118 121
ENDBRANCH 116 118
BRANCH 116 136
ATOM    136  C   A02 d           9.906   6.555   1.728  0.00  0.00     0.238 C 
ATOM    137  O   A02 d           9.126   5.627   1.507  0.00  0.00    -0.271 OA
ATOM    138  NAF A02 d          11.110   6.652   1.168  0.00  0.00    -0.368 N 
ATOM    139  H72 A02 d          11.430   5.938   0.544  0.00  0.00     0.159 HD
ATOM    140  H73 A02 d          11.695   7.437   1.372  0.00  0.00     0.159 HD
ENDBRANCH 116 136
ENDBRANCH 114 116
ENDBRANCH  92 112
ENDBRANCH  90  92
ENDBRANCH  85  88
ENDBRANCH  82  85
ENDBRANCH  79  82
ENDBRANCH  76  79
ENDBRANCH  73  76
ENDBRANCH   3  73
TORSDOF 36
ENDMDL
MODEL 9
REMARK VINA RESULT:      -4.7      3.231      6.916
REMARK WARNING: 32 MAX_TORS EXCEEDED!!!
REMARK  36 active torsions:
REMARK  status: ('A' for Active; 'I' for Inactive)
REMARK    1  A    between atoms: C6_6  and  N6_7 
REMARK    2  A    between atoms: CCN_19  and  N9_10 
REMARK    3  A    between atoms: CCK_16  and  OAN_12 
REMARK    4  A    between atoms: CCL_17  and  OAO_13 
REMARK    5  A    between atoms: CCC_15  and  CCM_18 
REMARK       I    between atoms: NBR_27  and  CCC_15 
REMARK    6  A    between atoms: CBZ_20  and  CBG_22 
REMARK       I    between atoms: NBS_28  and  CBZ_20 
REMARK    7  A    between atoms: CBG_22  and  CAX_23 
REMARK    8  A    between atoms: CAX_23  and  CAU_24 
REMARK    9  A    between atoms: CAU_24  and  CAW_25 
REMARK   10  A    between atoms: CAW_25  and  CBD_26 
REMARK   11  A    between atoms: CBD_26  and  NBR_27 
REMARK   12  A    between atoms: CCI_29  and  NBS_28 
REMARK   13  A    between atoms: CCB_30  and  CCI_29 
REMARK   14  A    between atoms: CCI_29  and  CBJ_32 
REMARK       I    between atoms: NBQ_44  and  CCB_30 
REMARK   15  A    between atoms: CBJ_32  and  CAZ_33 
REMARK   16  A    between atoms: CAZ_33  and  CAS_34 
REMARK   17  A    between atoms: CAS_34  and  CAR_35 
REMARK   18  A    between atoms: CAR_35  and  NAC_36 
REMARK   19  A    between atoms: CBH_39  and  CCA_37 
REMARK       I    between atoms: CCA_37  and  NBT_45 
REMARK   20  A    between atoms: CAY_40  and  CBH_39 
REMARK   21  A    between atoms: CAT_41  and  CAY_40 
REMARK   22  A    between atoms: CAV_42  and  CAT_41 
REMARK   23  A    between atoms: CBC_43  and  CAV_42 
REMARK   24  A    between atoms: CBC_43  and  NBQ_44 
REMARK   25  A    between atoms: NBT_45  and  CCJ_46 
REMARK   26  A    between atoms: CCJ_46  and  CBK_47 
REMARK   27  A    between atoms: CCJ_46  and  CCD_54 
REMARK   28  A    between atoms: CBK_47  and  CBB_48 
REMARK   29  A    between atoms: CBB_48  and  CBF_49 
REMARK   30  A    between atoms: CBF_49  and  NBP_50 
REMARK       I    between atoms: NBP_50  and  CBX_51 
REMARK       I    between atoms: CBX_51  and  NAB_52 
REMARK       I    between atoms: CBX_51  and  NAE_53 
REMARK       I    between atoms: CCD_54  and  N_56 
REMARK   31  A    between atoms: N_56  and  CA_57 
REMARK   32  A    between atoms: CA_57  and  CB_58 
REMARK   33  A    between atoms: CA_57  and  C_65 
REMARK   34  A    between atoms: CB_58  and  CG_59 
REMARK   35  A    between atoms: CG_59  and  CD_60 
REMARK   36  A    between atoms: CD_60  and  NE_61 
REMARK       I    between atoms: NE_61  and  CZ_62 
REMARK       I    between atoms: CZ_62  and  NH1_63 
REMARK       I    between atoms: C_65  and  NAF_67 
ROOT
ATOM      1  CCB A02 d          20.105   8.200   0.667  0.00  0.00     0.240 C 
ATOM      2  OAK A02 d          21.162   7.768   0.222  0.00  0.00    -0.271 OA
ATOM      3  NBQ A02 d          19.546   9.342   0.270  0.00  0.00    -0.359 N 
ATOM      4  H45 A02 d          18.686   9.629   0.691  0.00  0.00     0.162 HD
ENDROOT
BRANCH   1   5
ATOM      5  CCI A02 d          19.350   7.433   1.780  0.00  0.00     0.089 C 
ATOM      6  H23 A02 d          18.595   8.122   2.187  0.00  0.00     0.087 H 
BRANCH   5   7
ATOM      7  NBS A02 d          20.271   7.081   2.891  0.00  0.00    -0.348 N 
ATOM      8  CBZ A02 d          20.148   7.628   4.112  0.00  0.00     0.218 C 
ATOM      9  OAI A02 d          19.311   8.489   4.408  0.00  0.00    -0.274 OA
ATOM     10  H22 A02 d          21.002   6.420   2.726  0.00  0.00     0.163 HD
BRANCH   8  11
ATOM     11  CBG A02 d          21.182   7.145   5.150  0.00  0.00     0.009 C 
ATOM     12  H11 A02 d          21.118   7.787   6.040  0.00  0.00     0.047 H 
ATOM     13  H12 A02 d          22.188   7.223   4.713  0.00  0.00     0.047 H 
BRANCH  11  14
ATOM     14  CAX A02 d          20.934   5.683   5.571  0.00  0.00    -0.057 C 
ATOM     15  H13 A02 d          21.637   5.417   6.374  0.00  0.00     0.033 H 
ATOM     16  H14 A02 d          21.101   5.027   4.704  0.00  0.00     0.033 H 
BRANCH  14  17
ATOM     17  CAU A02 d          19.500   5.486   6.077  0.00  0.00    -0.063 C 
ATOM     18  H15 A02 d          18.812   5.566   5.222  0.00  0.00     0.033 H 
ATOM     19  H16 A02 d          19.273   6.279   6.805  0.00  0.00     0.033 H 
BRANCH  17  20
ATOM     20  CAW A02 d          19.288   4.128   6.751  0.00  0.00    -0.050 C 
ATOM     21  H17 A02 d          19.060   4.269   7.818  0.00  0.00     0.035 H 
ATOM     22  H18 A02 d          20.194   3.512   6.648  0.00  0.00     0.035 H 
BRANCH  20  23
ATOM     23  CBD A02 d          18.110   3.446   6.051  0.00  0.00    -0.005 C 
ATOM     24  H19 A02 d          18.504   2.699   5.346  0.00  0.00     0.064 H 
ATOM     25  H20 A02 d          17.540   4.207   5.499  0.00  0.00     0.064 H 
BRANCH  23  26
ATOM     26  NBR A02 d          17.203   2.770   6.996  0.00  0.00    -0.359 N 
ATOM     27  CCC A02 d          16.026   2.239   6.661  0.00  0.00     0.249 C 
ATOM     28  OAL A02 d          15.521   2.308   5.531  0.00  0.00    -0.271 OA
ATOM     29  H21 A02 d          17.489   2.706   7.952  0.00  0.00     0.162 HD
BRANCH  27  30
ATOM     30  CCM A02 d          15.270   1.495   7.778  0.00  0.00     0.144 C 
ATOM     31  OBV A02 d          15.303   2.244   9.039  0.00  0.00    -0.346 OA
ATOM     32  CCN A02 d          14.007   2.876   9.252  0.00  0.00     0.140 C 
ATOM     33  CCL A02 d          13.256   2.711   7.917  0.00  0.00     0.105 C 
ATOM     34  H10 A02 d          13.462   2.344  10.046  0.00  0.00     0.123 H 
ATOM     35  CCK A02 d          13.791   1.387   7.405  0.00  0.00     0.098 C 
ATOM     36  H8  A02 d          13.469   3.538   7.223  0.00  0.00     0.093 H 
ATOM     37  H7  A02 d          13.636   1.259   6.324  0.00  0.00     0.091 H 
ATOM     38  H9  A02 d          15.709   0.496   7.917  0.00  0.00     0.102 H 
BRANCH  32  39
ATOM     39  N9  A02 d          14.155   4.334   9.675  0.00  0.00    -0.294 N 
ATOM     40  C4  A02 d          14.796   5.283   9.000  0.00  0.00     0.167 A 
ATOM     41  N3  A02 d          15.471   5.286   7.840  0.00  0.00    -0.222 NA
ATOM     42  C5  A02 d          14.698   6.454   9.740  0.00  0.00     0.149 A 
ATOM     43  C2  A02 d          16.029   6.402   7.390  0.00  0.00     0.091 A 
ATOM     44  N1  A02 d          15.943   7.548   8.078  0.00  0.00    -0.222 NA
ATOM     45  H1  A02 d          16.565   6.386   6.447  0.00  0.00     0.146 H 
ATOM     46  C6  A02 d          15.293   7.604   9.252  0.00  0.00     0.155 A 
ATOM     47  N7  A02 d          13.996   6.195  10.842  0.00  0.00    -0.236 NA
ATOM     48  C8  A02 d          13.659   4.902  10.786  0.00  0.00     0.071 A 
ATOM     49  H4  A02 d          13.067   4.382  11.537  0.00  0.00     0.144 H 
BRANCH  46  50
ATOM     50  N6  A02 d          15.219   8.738   9.941  0.00  0.00    -0.382 N 
ATOM     51  H2  A02 d          15.086   9.632   9.448  0.00  0.00     0.157 HD
ATOM     52  H3  A02 d          15.294   8.722  10.968  0.00  0.00     0.157 HD
ENDBRANCH  46  50
ENDBRANCH  32  39
BRANCH  33  53
ATOM     53  OAO A02 d          11.858   2.605   8.145  0.00  0.00    -0.388 OA
ATOM     54  H6  A02 d          11.480   3.475   8.202  0.00  0.00     0.210 HD
ENDBRANCH  33  53
BRANCH  35  55
ATOM     55  OAN A02 d          13.195   0.302   8.142  0.00  0.00    -0.390 OA
ATOM     56  H5  A02 d          12.531   0.647   8.729  0.00  0.00     0.210 HD
ENDBRANCH  35  55
ENDBRANCH  27  30
ENDBRANCH  23  26
ENDBRANCH  20  23
ENDBRANCH  17  20
ENDBRANCH  14  17
ENDBRANCH  11  14
ENDBRANCH   8  11
ENDBRANCH   5   7
BRANCH   5  57
ATOM     57  CBJ A02 d          18.587   6.196   1.254  0.00  0.00    -0.038 C 
ATOM     58  H24 A02 d          19.330   5.463   0.904  0.00  0.00     0.036 H 
ATOM     59  H25 A02 d          17.963   6.517   0.407  0.00  0.00     0.036 H 
BRANCH  57  60
ATOM     60  CAZ A02 d          17.680   5.503   2.275  0.00  0.00    -0.061 C 
ATOM     61  H26 A02 d          17.603   6.128   3.176  0.00  0.00     0.033 H 
ATOM     62  H27 A02 d          18.114   4.527   2.542  0.00  0.00     0.033 H 
BRANCH  60  63
ATOM     63  CAS A02 d          16.273   5.289   1.680  0.00  0.00    -0.043 C 
ATOM     64  H28 A02 d          16.177   4.244   1.349  0.00  0.00     0.035 H 
ATOM     65  H29 A02 d          16.142   5.960   0.818  0.00  0.00     0.035 H 
BRANCH  63  66
ATOM     66  CAR A02 d          15.180   5.588   2.718  0.00  0.00     0.080 C 
ATOM     67  H30 A02 d          14.253   5.071   2.429  0.00  0.00     0.075 H 
ATOM     68  H31 A02 d          15.000   6.673   2.756  0.00  0.00     0.075 H 
BRANCH  66  69
ATOM     69  NAC A02 d          15.607   5.118   4.048  0.00  0.00    -0.079 N 
ATOM     70  H32 A02 d          14.844   5.214   4.700  0.00  0.00     0.274 HD
ATOM     71  H33 A02 d          16.390   5.669   4.364  0.00  0.00     0.274 HD
ATOM     72  H34 A02 d          15.880   4.149   3.991  0.00  0.00     0.274 HD
ENDBRANCH  66  69
ENDBRANCH  63  66
ENDBRANCH  60  63
ENDBRANCH  57  60
ENDBRANCH   5  57
ENDBRANCH   1   5
BRANCH   3  73
ATOM     73  CBC A02 d          20.151  10.202  -0.773  0.00  0.00    -0.005 C 
ATOM     74  H43 A02 d          20.991  10.763  -0.337  0.00  0.00     0.064 H 
ATOM     75  H44 A02 d          20.519   9.571  -1.595  0.00  0.00     0.064 H 
BRANCH  73  76
ATOM     76  CAV A02 d          19.116  11.190  -1.322  0.00  0.00    -0.050 C 
ATOM     77  H41 A02 d          18.778  10.848  -2.312  0.00  0.00     0.035 H 
ATOM     78  H42 A02 d          18.257  11.232  -0.636  0.00  0.00     0.035 H 
BRANCH  76  79
ATOM     79  CAT A02 d          19.726  12.591  -1.453  0.00  0.00    -0.063 C 
ATOM     80  H39 A02 d          20.755  12.568  -1.068  0.00  0.00     0.033 H 
ATOM     81  H40 A02 d          19.738  12.876  -2.516  0.00  0.00     0.033 H 
BRANCH  79  82
ATOM     82  CAY A02 d          18.927  13.637  -0.670  0.00  0.00    -0.057 C 
ATOM     83  H37 A02 d          19.604  14.449  -0.365  0.00  0.00     0.033 H 
ATOM     84  H38 A02 d          18.137  14.042  -1.320  0.00  0.00     0.033 H 
BRANCH  82  85
ATOM     85  CBH A02 d          18.277  13.034   0.587  0.00  0.00     0.009 C 
ATOM     86  H35 A02 d          17.250  13.416   0.675  0.00  0.00     0.047 H 
ATOM     87  H36 A02 d          18.253  11.938   0.485  0.00  0.00     0.047 H 
BRANCH  85  88
ATOM     88  CCA A02 d          19.056  13.399   1.861  0.00  0.00     0.218 C 
ATOM     89  OAJ A02 d          20.221  13.021   2.021  0.00  0.00    -0.274 OA
ATOM     90  NBT A02 d          18.379  14.146   2.741  0.00  0.00    -0.348 N 
ATOM     91  H46 A02 d          17.441  14.413   2.518  0.00  0.00     0.163 HD
BRANCH  90  92
ATOM     92  CCJ A02 d          18.953  14.599   4.033  0.00  0.00     0.089 C 
ATOM     93  H47 A02 d          20.019  14.815   3.872  0.00  0.00     0.087 H 
BRANCH  92  94
ATOM     94  CBK A02 d          18.851  13.491   5.115  0.00  0.00    -0.036 C 
ATOM     95  H48 A02 d          19.050  13.949   6.096  0.00  0.00     0.036 H 
ATOM     96  H49 A02 d          19.616  12.731   4.903  0.00  0.00     0.036 H 
BRANCH  94  97
ATOM     97  CBB A02 d          17.483  12.790   5.182  0.00  0.00    -0.048 C 
ATOM     98  H50 A02 d          16.888  13.091   4.307  0.00  0.00     0.035 H 
ATOM     99  H51 A02 d          16.968  13.105   6.102  0.00  0.00     0.035 H 
BRANCH  97 100
ATOM    100  CBF A02 d          17.613  11.258   5.189  0.00  0.00     0.009 C 
ATOM    101  H52 A02 d          18.442  10.958   5.847  0.00  0.00     0.064 H 
ATOM    102  H53 A02 d          17.806  10.897   4.168  0.00  0.00     0.064 H 
BRANCH 100 103
ATOM    103  NBP A02 d          16.347  10.689   5.689  0.00  0.00    -0.227 N 
ATOM    104  CBX A02 d          15.749   9.611   5.163  0.00  0.00     0.665 C 
ATOM    105  NAB A02 d          16.264   8.941   4.134  0.00  0.00    -0.235 N 
ATOM    106  NAE A02 d          14.606   9.196   5.700  0.00  0.00    -0.235 N 
ATOM    107  H55 A02 d          15.772   8.116   3.758  0.00  0.00     0.174 HD
ATOM    108  H56 A02 d          17.152   9.246   3.713  0.00  0.00     0.174 HD
ATOM    109  H57 A02 d          14.196   9.704   6.497  0.00  0.00     0.174 HD
ATOM    110  H58 A02 d          14.129   8.365   5.320  0.00  0.00     0.174 HD
ATOM    111  H54 A02 d          15.896  11.147   6.493  0.00  0.00     0.177 HD
ENDBRANCH 100 103
ENDBRANCH  97 100
ENDBRANCH  94  97
ENDBRANCH  92  94
BRANCH  92 112
ATOM    112  CCD A02 d          18.267  15.904   4.503  0.00  0.00     0.241 C 
ATOM    113  OAM A02 d          18.716  16.550   5.450  0.00  0.00    -0.271 OA
ATOM    114  N   A02 d          17.176  16.256   3.818  0.00  0.00    -0.346 N 
ATOM    115  H59 A02 d          16.881  15.670   3.063  0.00  0.00     0.163 HD
BRANCH 114 116
ATOM    116  CA  A02 d          16.381  17.468   4.118  0.00  0.00     0.089 C 
ATOM    117  H60 A02 d          16.729  17.886   5.073  0.00  0.00     0.087 H 
BRANCH 116 118
ATOM    118  CB  A02 d          14.900  17.093   4.252  0.00  0.00    -0.036 C 
ATOM    119  H61 A02 d          14.496  16.870   3.253  0.00  0.00     0.036 H 
ATOM    120  H62 A02 d          14.353  17.944   4.686  0.00  0.00     0.036 H 
BRANCH 118 121
ATOM    121  CG  A02 d          14.710  15.870   5.150  0.00  0.00    -0.048 C 
ATOM    122  H63 A02 d          14.321  16.198   6.126  0.00  0.00     0.035 H 
ATOM    123  H64 A02 d          15.683  15.374   5.291  0.00  0.00     0.035 H 
BRANCH 121 124
ATOM    124  CD  A02 d          13.732  14.876   4.534  0.00  0.00     0.009 C 
ATOM    125  H65 A02 d          13.183  14.348   5.327  0.00  0.00     0.064 H 
ATOM    126  H66 A02 d          14.276  14.146   3.916  0.00  0.00     0.064 H 
BRANCH 124 127
ATOM    127  NE  A02 d          12.801  15.635   3.705  0.00  0.00    -0.227 N 
ATOM    128  CZ  A02 d          11.502  15.369   3.568  0.00  0.00     0.665 C 
ATOM    129  NH1 A02 d          10.892  14.380   4.221  0.00  0.00    -0.235 N 
ATOM    130  NH2 A02 d          10.811  16.155   2.754  0.00  0.00    -0.235 N 
ATOM    131  H68 A02 d           9.885  14.215   4.080  0.00  0.00     0.174 HD
ATOM    132  H69 A02 d          11.427  13.781   4.865  0.00  0.00     0.174 HD
ATOM    133  H70 A02 d          11.285  16.919   2.251  0.00  0.00     0.174 HD
ATOM    134  H71 A02 d           9.801  16.003   2.626  0.00  0.00     0.174 HD
ATOM    135  H67 A02 d          13.177  16.440   3.184  0.00  0.00     0.177 HD
ENDBRANCH 124 127
ENDBRANCH 121 124
ENDBRANCH 118 121
ENDBRANCH 116 118
BRANCH 116 136
ATOM    136  C   A02 d          16.554  18.544   3.022  0.00  0.00     0.238 C 
ATOM    137  O   A02 d          17.619  19.144   2.863  0.00  0.00    -0.271 OA
ATOM    138  NAF A02 d          15.478  18.746   2.264  0.00  0.00    -0.368 N 
ATOM    139  H72 A02 d          15.503  19.426   1.531  0.00  0.00     0.159 HD
ATOM    140  H73 A02 d          14.644  18.218   2.429  0.00  0.00     0.159 HD
ENDBRANCH 116 136
ENDBRANCH 114 116
ENDBRANCH  92 112
ENDBRANCH  90  92
ENDBRANCH  85  88
ENDBRANCH  82  85
ENDBRANCH  79  82
ENDBRANCH  76  79
ENDBRANCH  73  76
ENDBRANCH   3  73
TORSDOF 36
ENDMDL
MODEL 10
REMARK VINA RESULT:      -4.6      3.152     12.276
REMARK WARNING: 32 MAX_TORS EXCEEDED!!!
REMARK  36 active torsions:
REMARK  status: ('A' for Active; 'I' for Inactive)
REMARK    1  A    between atoms: C6_6  and  N6_7 
REMARK    2  A    between atoms: CCN_19  and  N9_10 
REMARK    3  A    between atoms: CCK_16  and  OAN_12 
REMARK    4  A    between atoms: CCL_17  and  OAO_13 
REMARK    5  A    between atoms: CCC_15  and  CCM_18 
REMARK       I    between atoms: NBR_27  and  CCC_15 
REMARK    6  A    between atoms: CBZ_20  and  CBG_22 
REMARK       I    between atoms: NBS_28  and  CBZ_20 
REMARK    7  A    between atoms: CBG_22  and  CAX_23 
REMARK    8  A    between atoms: CAX_23  and  CAU_24 
REMARK    9  A    between atoms: CAU_24  and  CAW_25 
REMARK   10  A    between atoms: CAW_25  and  CBD_26 
REMARK   11  A    between atoms: CBD_26  and  NBR_27 
REMARK   12  A    between atoms: CCI_29  and  NBS_28 
REMARK   13  A    between atoms: CCB_30  and  CCI_29 
REMARK   14  A    between atoms: CCI_29  and  CBJ_32 
REMARK       I    between atoms: NBQ_44  and  CCB_30 
REMARK   15  A    between atoms: CBJ_32  and  CAZ_33 
REMARK   16  A    between atoms: CAZ_33  and  CAS_34 
REMARK   17  A    between atoms: CAS_34  and  CAR_35 
REMARK   18  A    between atoms: CAR_35  and  NAC_36 
REMARK   19  A    between atoms: CBH_39  and  CCA_37 
REMARK       I    between atoms: CCA_37  and  NBT_45 
REMARK   20  A    between atoms: CAY_40  and  CBH_39 
REMARK   21  A    between atoms: CAT_41  and  CAY_40 
REMARK   22  A    between atoms: CAV_42  and  CAT_41 
REMARK   23  A    between atoms: CBC_43  and  CAV_42 
REMARK   24  A    between atoms: CBC_43  and  NBQ_44 
REMARK   25  A    between atoms: NBT_45  and  CCJ_46 
REMARK   26  A    between atoms: CCJ_46  and  CBK_47 
REMARK   27  A    between atoms: CCJ_46  and  CCD_54 
REMARK   28  A    between atoms: CBK_47  and  CBB_48 
REMARK   29  A    between atoms: CBB_48  and  CBF_49 
REMARK   30  A    between atoms: CBF_49  and  NBP_50 
REMARK       I    between atoms: NBP_50  and  CBX_51 
REMARK       I    between atoms: CBX_51  and  NAB_52 
REMARK       I    between atoms: CBX_51  and  NAE_53 
REMARK       I    between atoms: CCD_54  and  N_56 
REMARK   31  A    between atoms: N_56  and  CA_57 
REMARK   32  A    between atoms: CA_57  and  CB_58 
REMARK   33  A    between atoms: CA_57  and  C_65 
REMARK   34  A    between atoms: CB_58  and  CG_59 
REMARK   35  A    between atoms: CG_59  and  CD_60 
REMARK   36  A    between atoms: CD_60  and  NE_61 
REMARK       I    between atoms: NE_61  and  CZ_62 
REMARK       I    between atoms: CZ_62  and  NH1_63 
REMARK       I    between atoms: C_65  and  NAF_67 
ROOT
ATOM      1  CCB A02 d          12.678   8.793   3.619  0.00  0.00     0.240 C 
ATOM      2  OAK A02 d          12.407   8.100   2.646  0.00  0.00    -0.271 OA
ATOM      3  NBQ A02 d          11.896   8.903   4.691  0.00  0.00    -0.359 N 
ATOM      4  H45 A02 d          12.186   9.499   5.440  0.00  0.00     0.162 HD
ENDROOT
BRANCH   1   5
ATOM      5  CCI A02 d          13.975   9.639   3.644  0.00  0.00     0.089 C 
ATOM      6  H23 A02 d          14.223   9.815   4.701  0.00  0.00     0.087 H 
BRANCH   5   7
ATOM      7  NBS A02 d          13.747  10.967   3.018  0.00  0.00    -0.348 N 
ATOM      8  CBZ A02 d          13.279  12.010   3.722  0.00  0.00     0.218 C 
ATOM      9  OAI A02 d          12.957  11.956   4.915  0.00  0.00    -0.274 OA
ATOM     10  H22 A02 d          13.946  11.087   2.046  0.00  0.00     0.163 HD
BRANCH   8  11
ATOM     11  CBG A02 d          13.108  13.316   2.920  0.00  0.00     0.009 C 
ATOM     12  H11 A02 d          13.741  14.095   3.368  0.00  0.00     0.047 H 
ATOM     13  H12 A02 d          12.054  13.627   2.967  0.00  0.00     0.047 H 
BRANCH  11  14
ATOM     14  CAX A02 d          13.508  13.138   1.442  0.00  0.00    -0.057 C 
ATOM     15  H13 A02 d          12.614  12.874   0.857  0.00  0.00     0.033 H 
ATOM     16  H14 A02 d          14.249  12.328   1.365  0.00  0.00     0.033 H 
BRANCH  14  17
ATOM     17  CAU A02 d          14.115  14.425   0.872  0.00  0.00    -0.063 C 
ATOM     18  H15 A02 d          14.183  14.327  -0.222  0.00  0.00     0.033 H 
ATOM     19  H16 A02 d          15.124  14.554   1.292  0.00  0.00     0.033 H 
BRANCH  17  20
ATOM     20  CAW A02 d          13.286  15.670   1.200  0.00  0.00    -0.050 C 
ATOM     21  H17 A02 d          12.589  15.452   2.022  0.00  0.00     0.035 H 
ATOM     22  H18 A02 d          12.719  15.988   0.312  0.00  0.00     0.035 H 
BRANCH  20  23
ATOM     23  CBD A02 d          14.260  16.774   1.620  0.00  0.00    -0.005 C 
ATOM     24  H19 A02 d          13.710  17.725   1.675  0.00  0.00     0.064 H 
ATOM     25  H20 A02 d          15.052  16.852   0.862  0.00  0.00     0.064 H 
BRANCH  23  26
ATOM     26  NBR A02 d          14.884  16.513   2.929  0.00  0.00    -0.359 N 
ATOM     27  CCC A02 d          15.197  17.457   3.817  0.00  0.00     0.249 C 
ATOM     28  OAL A02 d          15.064  18.674   3.623  0.00  0.00    -0.271 OA
ATOM     29  H21 A02 d          15.086  15.563   3.168  0.00  0.00     0.162 HD
BRANCH  27  30
ATOM     30  CCM A02 d          15.758  16.968   5.166  0.00  0.00     0.144 C 
ATOM     31  OBV A02 d          16.450  15.683   5.025  0.00  0.00    -0.346 OA
ATOM     32  CCN A02 d          17.889  15.910   5.063  0.00  0.00     0.140 C 
ATOM     33  CCL A02 d          18.058  17.438   4.953  0.00  0.00     0.105 C 
ATOM     34  H10 A02 d          18.292  15.567   6.027  0.00  0.00     0.123 H 
ATOM     35  CCK A02 d          16.818  17.952   5.661  0.00  0.00     0.098 C 
ATOM     36  H8  A02 d          18.101  17.770   3.905  0.00  0.00     0.093 H 
ATOM     37  H7  A02 d          16.584  18.994   5.398  0.00  0.00     0.091 H 
ATOM     38  H9  A02 d          14.938  16.882   5.895  0.00  0.00     0.102 H 
BRANCH  32  39
ATOM     39  N9  A02 d          18.608  15.151   3.953  0.00  0.00    -0.294 N 
ATOM     40  C4  A02 d          18.539  15.417   2.652  0.00  0.00     0.167 A 
ATOM     41  N3  A02 d          17.877  16.342   1.940  0.00  0.00    -0.222 NA
ATOM     42  C5  A02 d          19.332  14.484   1.997  0.00  0.00     0.149 A 
ATOM     43  C2  A02 d          17.988  16.379   0.618  0.00  0.00     0.091 A 
ATOM     44  N1  A02 d          18.754  15.498  -0.040  0.00  0.00    -0.222 NA
ATOM     45  H1  A02 d          17.450  17.137   0.060  0.00  0.00     0.146 H 
ATOM     46  C6  A02 d          19.429  14.541   0.617  0.00  0.00     0.155 A 
ATOM     47  N7  A02 d          19.871  13.678   2.910  0.00  0.00    -0.236 NA
ATOM     48  C8  A02 d          19.432  14.101   4.101  0.00  0.00     0.071 A 
ATOM     49  H4  A02 d          19.705  13.656   5.056  0.00  0.00     0.144 H 
BRANCH  46  50
ATOM     50  N6  A02 d          20.178  13.659  -0.036  0.00  0.00    -0.382 N 
ATOM     51  H2  A02 d          20.190  12.673   0.263  0.00  0.00     0.157 HD
ATOM     52  H3  A02 d          20.747  13.960  -0.840  0.00  0.00     0.157 HD
ENDBRANCH  46  50
ENDBRANCH  32  39
BRANCH  33  53
ATOM     53  OAO A02 d          19.218  17.859   5.655  0.00  0.00    -0.388 OA
ATOM     54  H6  A02 d          19.986  17.700   5.119  0.00  0.00     0.210 HD
ENDBRANCH  33  53
BRANCH  35  55
ATOM     55  OAN A02 d          16.973  17.803   7.086  0.00  0.00    -0.390 OA
ATOM     56  H5  A02 d          17.753  18.267   7.368  0.00  0.00     0.210 HD
ENDBRANCH  35  55
ENDBRANCH  27  30
ENDBRANCH  23  26
ENDBRANCH  20  23
ENDBRANCH  17  20
ENDBRANCH  14  17
ENDBRANCH  11  14
ENDBRANCH   8  11
ENDBRANCH   5   7
BRANCH   5  57
ATOM     57  CBJ A02 d          15.186   8.911   3.017  0.00  0.00    -0.038 C 
ATOM     58  H24 A02 d          15.352   9.330   2.014  0.00  0.00     0.036 H 
ATOM     59  H25 A02 d          14.932   7.844   2.931  0.00  0.00     0.036 H 
BRANCH  57  60
ATOM     60  CAZ A02 d          16.497   9.024   3.802  0.00  0.00    -0.061 C 
ATOM     61  H26 A02 d          17.115   8.135   3.608  0.00  0.00     0.033 H 
ATOM     62  H27 A02 d          16.272   9.087   4.877  0.00  0.00     0.033 H 
BRANCH  60  63
ATOM     63  CAS A02 d          17.270  10.287   3.369  0.00  0.00    -0.043 C 
ATOM     64  H28 A02 d          16.667  11.177   3.607  0.00  0.00     0.035 H 
ATOM     65  H29 A02 d          17.449  10.244   2.284  0.00  0.00     0.035 H 
BRANCH  63  66
ATOM     66  CAR A02 d          18.620  10.388   4.095  0.00  0.00     0.080 C 
ATOM     67  H30 A02 d          18.774   9.484   4.704  0.00  0.00     0.075 H 
ATOM     68  H31 A02 d          18.618  11.274   4.746  0.00  0.00     0.075 H 
BRANCH  66  69
ATOM     69  NAC A02 d          19.713  10.506   3.113  0.00  0.00    -0.079 N 
ATOM     70  H32 A02 d          20.589  10.626   3.598  0.00  0.00     0.274 HD
ATOM     71  H33 A02 d          19.546  11.304   2.519  0.00  0.00     0.274 HD
ATOM     72  H34 A02 d          19.751   9.671   2.550  0.00  0.00     0.274 HD
ENDBRANCH  66  69
ENDBRANCH  63  66
ENDBRANCH  60  63
ENDBRANCH  57  60
ENDBRANCH   5  57
ENDBRANCH   1   5
BRANCH   3  73
ATOM     73  CBC A02 d          10.613   8.174   4.817  0.00  0.00    -0.005 C 
ATOM     74  H43 A02 d           9.901   8.792   5.384  0.00  0.00     0.064 H 
ATOM     75  H44 A02 d          10.209   7.976   3.814  0.00  0.00     0.064 H 
BRANCH  73  76
ATOM     76  CAV A02 d          10.819   6.843   5.549  0.00  0.00    -0.050 C 
ATOM     77  H41 A02 d           9.851   6.486   5.930  0.00  0.00     0.035 H 
ATOM     78  H42 A02 d          11.232   6.105   4.846  0.00  0.00     0.035 H 
BRANCH  76  79
ATOM     79  CAT A02 d          11.790   7.020   6.723  0.00  0.00    -0.063 C 
ATOM     80  H39 A02 d          12.088   8.076   6.782  0.00  0.00     0.033 H 
ATOM     81  H40 A02 d          11.279   6.731   7.654  0.00  0.00     0.033 H 
BRANCH  79  82
ATOM     82  CAY A02 d          13.046   6.159   6.560  0.00  0.00    -0.057 C 
ATOM     83  H37 A02 d          12.758   5.098   6.596  0.00  0.00     0.033 H 
ATOM     84  H38 A02 d          13.505   6.381   5.586  0.00  0.00     0.033 H 
BRANCH  82  85
ATOM     85  CBH A02 d          14.074   6.434   7.670  0.00  0.00     0.009 C 
ATOM     86  H35 A02 d          13.953   7.470   8.018  0.00  0.00     0.047 H 
ATOM     87  H36 A02 d          13.889   5.742   8.506  0.00  0.00     0.047 H 
BRANCH  85  88
ATOM     88  CCA A02 d          15.516   6.241   7.171  0.00  0.00     0.218 C 
ATOM     89  OAJ A02 d          16.475   6.630   7.844  0.00  0.00    -0.274 OA
ATOM     90  NBT A02 d          15.625   5.624   5.989  0.00  0.00    -0.348 N 
ATOM     91  H46 A02 d          14.789   5.335   5.522  0.00  0.00     0.163 HD
BRANCH  90  92
ATOM     92  CCJ A02 d          16.929   5.349   5.335  0.00  0.00     0.089 C 
ATOM     93  H47 A02 d          17.601   6.192   5.551  0.00  0.00     0.087 H 
BRANCH  92  94
ATOM     94  CBK A02 d          16.778   5.245   3.794  0.00  0.00    -0.036 C 
ATOM     95  H48 A02 d          16.212   6.121   3.444  0.00  0.00     0.036 H 
ATOM     96  H49 A02 d          16.215   4.329   3.564  0.00  0.00     0.036 H 
BRANCH  94  97
ATOM     97  CBB A02 d          18.110   5.196   3.025  0.00  0.00    -0.048 C 
ATOM     98  H50 A02 d          18.180   4.232   2.500  0.00  0.00     0.035 H 
ATOM     99  H51 A02 d          18.937   5.282   3.745  0.00  0.00     0.035 H 
BRANCH  97 100
ATOM    100  CBF A02 d          18.230   6.330   1.995  0.00  0.00     0.009 C 
ATOM    101  H52 A02 d          19.019   7.031   2.304  0.00  0.00     0.064 H 
ATOM    102  H53 A02 d          17.273   6.866   1.918  0.00  0.00     0.064 H 
BRANCH 100 103
ATOM    103  NBP A02 d          18.575   5.735   0.690  0.00  0.00    -0.227 N 
ATOM    104  CBX A02 d          17.695   5.537  -0.302  0.00  0.00     0.665 C 
ATOM    105  NAB A02 d          16.413   5.882  -0.197  0.00  0.00    -0.235 N 
ATOM    106  NAE A02 d          18.127   4.986  -1.432  0.00  0.00    -0.235 N 
ATOM    107  H55 A02 d          15.768   5.713  -0.982  0.00  0.00     0.174 HD
ATOM    108  H56 A02 d          16.066   6.318   0.670  0.00  0.00     0.174 HD
ATOM    109  H57 A02 d          19.116   4.714  -1.528  0.00  0.00     0.174 HD
ATOM    110  H58 A02 d          17.473   4.831  -2.212  0.00  0.00     0.174 HD
ATOM    111  H54 A02 d          19.553   5.453   0.531  0.00  0.00     0.177 HD
ENDBRANCH 100 103
ENDBRANCH  97 100
ENDBRANCH  94  97
ENDBRANCH  92  94
BRANCH  92 112
ATOM    112  CCD A02 d          17.568   4.066   5.921  0.00  0.00     0.241 C 
ATOM    113  OAM A02 d          17.289   2.956   5.470  0.00  0.00    -0.271 OA
ATOM    114  N   A02 d          18.419   4.262   6.932  0.00  0.00    -0.346 N 
ATOM    115  H59 A02 d          18.586   5.201   7.236  0.00  0.00     0.163 HD
BRANCH 114 116
ATOM    116  CA  A02 d          19.127   3.164   7.625  0.00  0.00     0.089 C 
ATOM    117  H60 A02 d          19.128   2.280   6.970  0.00  0.00     0.087 H 
BRANCH 116 118
ATOM    118  CB  A02 d          18.393   2.815   8.926  0.00  0.00    -0.036 C 
ATOM    119  H61 A02 d          17.881   3.714   9.299  0.00  0.00     0.036 H 
ATOM    120  H62 A02 d          19.127   2.475   9.671  0.00  0.00     0.036 H 
BRANCH 118 121
ATOM    121  CG  A02 d          17.358   1.709   8.705  0.00  0.00    -0.048 C 
ATOM    122  H63 A02 d          17.434   0.980   9.526  0.00  0.00     0.035 H 
ATOM    123  H64 A02 d          17.568   1.208   7.749  0.00  0.00     0.035 H 
BRANCH 121 124
ATOM    124  CD  A02 d          15.942   2.274   8.671  0.00  0.00     0.009 C 
ATOM    125  H65 A02 d          15.230   1.526   9.049  0.00  0.00     0.064 H 
ATOM    126  H66 A02 d          15.673   2.549   7.640  0.00  0.00     0.064 H 
BRANCH 124 127
ATOM    127  NE  A02 d          15.922   3.458   9.524  0.00  0.00    -0.227 N 
ATOM    128  CZ  A02 d          14.851   3.922  10.168  0.00  0.00     0.665 C 
ATOM    129  NH1 A02 d          13.664   3.317  10.131  0.00  0.00    -0.235 N 
ATOM    130  NH2 A02 d          15.014   5.025  10.885  0.00  0.00    -0.235 N 
ATOM    131  H68 A02 d          12.867   3.716  10.646  0.00  0.00     0.174 HD
ATOM    132  H69 A02 d          13.544   2.450   9.587  0.00  0.00     0.174 HD
ATOM    133  H70 A02 d          15.932   5.491  10.912  0.00  0.00     0.174 HD
ATOM    134  H71 A02 d          14.221   5.416  11.415  0.00  0.00     0.174 HD
ATOM    135  H67 A02 d          16.805   3.976   9.639  0.00  0.00     0.177 HD
ENDBRANCH 124 127
ENDBRANCH 121 124
ENDBRANCH 118 121
ENDBRANCH 116 118
BRANCH 116 136
ATOM    136  C   A02 d          20.594   3.542   7.936  0.00  0.00     0.238 C 
ATOM    137  O   A02 d          21.481   3.456   7.084  0.00  0.00    -0.271 OA
ATOM    138  NAF A02 d          20.806   3.982   9.174  0.00  0.00    -0.368 N 
ATOM    139  H72 A02 d          21.726   4.249   9.460  0.00  0.00     0.159 HD
ATOM    140  H73 A02 d          20.044   4.046   9.820  0.00  0.00     0.159 HD
ENDBRANCH 116 136
ENDBRANCH 114 116
ENDBRANCH  92 112
ENDBRANCH  90  92
ENDBRANCH  85  88
ENDBRANCH  82  85
ENDBRANCH  79  82
ENDBRANCH  76  79
ENDBRANCH  73  76
ENDBRANCH   3  73
TORSDOF 36
ENDMDL
