MODEL 1
REMARK VINA RESULT:      -7.8      0.000      0.000
REMARK  11 active torsions:
REMARK  status: ('A' for Active; 'I' for Inactive)
REMARK    1  A    between atoms: C2_1  and  C1_2 
REMARK    2  A    between atoms: C1_2  and  C3_3 
REMARK    3  A    between atoms: C3_3  and  C4_4 
REMARK       I    between atoms: C4_4  and  N1_6 
REMARK    4  A    between atoms: N1_6  and  C5_7 
REMARK    5  A    between atoms: C6_8  and  O2_9 
REMARK    6  A    between atoms: C7_10  and  O3_11 
REMARK    7  A    between atoms: C8_12  and  C9_13 
REMARK    8  A    between atoms: C9_13  and  O4_14 
REMARK    9  A    between atoms: N2_17  and  O6_18 
REMARK   10  A    between atoms: O6_18  and  C11_19 
REMARK       I    between atoms: C11_19  and  N3_21 
REMARK   11  A    between atoms: N3_21  and  C12_22 
ROOT
ATOM      1  C5  NP6 d          -8.140 -12.309   8.038  0.00  0.00     0.105 C 
ATOM      2  C6  NP6 d          -8.921 -11.919   9.306  0.00  0.00     0.089 C 
ATOM      3  C7  NP6 d          -8.048 -11.114  10.255  0.00  0.00     0.090 C 
ATOM      4  C8  NP6 d          -7.652  -9.819   9.550  0.00  0.00     0.094 C 
ATOM      5  O5  NP6 d          -6.891 -10.099   8.383  0.00  0.00    -0.324 OA
ATOM      6  C10 NP6 d          -6.967 -11.336   7.791  0.00  0.00     0.194 C 
ATOM      7  N2  NP6 d          -5.954 -11.685   6.999  0.00  0.00    -0.100 NA
ATOM      8  H9  NP6 d          -7.703 -13.303   8.214  0.00  0.00     0.090 H 
ATOM      9  H10 NP6 d          -9.785 -11.305   9.015  0.00  0.00     0.090 H 
ATOM     10  H12 NP6 d          -7.154 -11.694  10.527  0.00  0.00     0.091 H 
ATOM     11  H14 NP6 d          -8.586  -9.322   9.252  0.00  0.00     0.091 H 
ENDROOT
BRANCH   1  12
ATOM     12  N1  NP6 d          -9.046 -12.434   6.857  0.00  0.00    -0.346 N 
ATOM     13  C4  NP6 d          -9.937 -13.414   6.651  0.00  0.00     0.218 C 
ATOM     14  O1  NP6 d         -10.132 -14.359   7.422  0.00  0.00    -0.274 OA
ATOM     15  H8  NP6 d          -8.982 -11.724   6.157  0.00  0.00     0.163 HD
BRANCH  13  16
ATOM     16  C3  NP6 d         -10.729 -13.300   5.329  0.00  0.00     0.009 C 
ATOM     17  H6  NP6 d         -10.248 -13.917   4.556  0.00  0.00     0.047 H 
ATOM     18  H7  NP6 d         -11.761 -13.648   5.486  0.00  0.00     0.047 H 
BRANCH  16  19
ATOM     19  C1  NP6 d         -10.744 -11.846   4.886  0.00  0.00    -0.061 C 
ATOM     20  H4  NP6 d         -11.061 -11.222   5.735  0.00  0.00     0.033 H 
ATOM     21  H5  NP6 d          -9.726 -11.560   4.581  0.00  0.00     0.033 H 
BRANCH  19  22
ATOM     22  C2  NP6 d         -11.691 -11.600   3.718  0.00  0.00    -0.076 C 
ATOM     23  H1  NP6 d         -11.596 -10.556   3.383  0.00  0.00     0.027 H 
ATOM     24  H2  NP6 d         -12.726 -11.789   4.039  0.00  0.00     0.027 H 
ATOM     25  H3  NP6 d         -11.434 -12.275   2.889  0.00  0.00     0.027 H 
ENDBRANCH  19  22
ENDBRANCH  16  19
ENDBRANCH  13  16
ENDBRANCH   1  12
BRANCH   7  26
ATOM     26  O6  NP6 d          -4.899 -10.816   6.838  0.00  0.00    -0.153 OA
BRANCH  26  27
ATOM     27  C11 NP6 d          -3.884 -10.987   7.762  0.00  0.00     0.389 C 
ATOM     28  O7  NP6 d          -3.160 -11.988   7.699  0.00  0.00    -0.236 OA
ATOM     29  N3  NP6 d          -3.724 -10.017   8.695  0.00  0.00    -0.301 N 
ATOM     30  H18 NP6 d          -4.316  -9.219   8.582  0.00  0.00     0.171 HD
BRANCH  29  31
ATOM     31  C12 NP6 d          -2.883  -9.962   9.758  0.00  0.00     0.036 A 
ATOM     32  C13 NP6 d          -3.443 -10.010  11.040  0.00  0.00    -0.057 A 
ATOM     33  C14 NP6 d          -2.644  -9.982  12.188  0.00  0.00    -0.081 A 
ATOM     34  H19 NP6 d          -4.520 -10.070  11.145  0.00  0.00     0.086 H 
ATOM     35  C15 NP6 d          -1.251  -9.914  12.065  0.00  0.00    -0.083 A 
ATOM     36  H20 NP6 d          -3.101 -10.012  13.170  0.00  0.00     0.083 H 
ATOM     37  C16 NP6 d          -0.677  -9.889  10.792  0.00  0.00    -0.081 A 
ATOM     38  H21 NP6 d          -0.625  -9.880  12.949  0.00  0.00     0.083 H 
ATOM     39  C17 NP6 d          -1.486  -9.914   9.648  0.00  0.00    -0.057 A 
ATOM     40  H22 NP6 d           0.401  -9.850  10.689  0.00  0.00     0.083 H 
ATOM     41  H23 NP6 d          -1.026  -9.896   8.666  0.00  0.00     0.086 H 
ENDBRANCH  29  31
ENDBRANCH  26  27
ENDBRANCH   7  26
BRANCH   2  42
ATOM     42  O2  NP6 d          -9.384 -13.092   9.954  0.00  0.00    -0.390 OA
ATOM     43  H11 NP6 d          -9.003 -13.855   9.537  0.00  0.00     0.210 HD
ENDBRANCH   2  42
BRANCH   4  44
ATOM     44  C9  NP6 d          -6.825  -8.805  10.379  0.00  0.00     0.044 C 
ATOM     45  H15 NP6 d          -6.442  -8.020   9.711  0.00  0.00     0.078 H 
ATOM     46  H16 NP6 d          -5.982  -9.329  10.851  0.00  0.00     0.078 H 
BRANCH  44  47
ATOM     47  O4  NP6 d          -7.626  -8.206  11.390  0.00  0.00    -0.398 OA
ATOM     48  H17 NP6 d          -8.271  -7.636  10.986  0.00  0.00     0.209 HD
ENDBRANCH  44  47
ENDBRANCH   4  44
BRANCH   3  49
ATOM     49  O3  NP6 d          -8.783 -10.763  11.436  0.00  0.00    -0.390 OA
ATOM     50  H13 NP6 d          -9.345 -11.487  11.685  0.00  0.00     0.210 HD
ENDBRANCH   3  49
TORSDOF 11
ENDMDL
MODEL 2
REMARK VINA RESULT:      -7.3      1.848      1.931
REMARK  11 active torsions:
REMARK  status: ('A' for Active; 'I' for Inactive)
REMARK    1  A    between atoms: C2_1  and  C1_2 
REMARK    2  A    between atoms: C1_2  and  C3_3 
REMARK    3  A    between atoms: C3_3  and  C4_4 
REMARK       I    between atoms: C4_4  and  N1_6 
REMARK    4  A    between atoms: N1_6  and  C5_7 
REMARK    5  A    between atoms: C6_8  and  O2_9 
REMARK    6  A    between atoms: C7_10  and  O3_11 
REMARK    7  A    between atoms: C8_12  and  C9_13 
REMARK    8  A    between atoms: C9_13  and  O4_14 
REMARK    9  A    between atoms: N2_17  and  O6_18 
REMARK   10  A    between atoms: O6_18  and  C11_19 
REMARK       I    between atoms: C11_19  and  N3_21 
REMARK   11  A    between atoms: N3_21  and  C12_22 
ROOT
ATOM      1  C5  NP6 d          -8.277 -11.190   8.254  0.00  0.00     0.105 C 
ATOM      2  C6  NP6 d          -8.694 -10.445   9.534  0.00  0.00     0.089 C 
ATOM      3  C7  NP6 d          -7.495 -10.198  10.435  0.00  0.00     0.090 C 
ATOM      4  C8  NP6 d          -6.517  -9.298   9.684  0.00  0.00     0.094 C 
ATOM      5  O5  NP6 d          -6.056  -9.938   8.502  0.00  0.00    -0.324 OA
ATOM      6  C10 NP6 d          -6.781 -10.963   7.946  0.00  0.00     0.194 C 
ATOM      7  N2  NP6 d          -6.125 -11.789   7.132  0.00  0.00    -0.100 NA
ATOM      8  H9  NP6 d          -8.408 -12.266   8.443  0.00  0.00     0.090 H 
ATOM      9  H10 NP6 d          -9.130  -9.475   9.254  0.00  0.00     0.090 H 
ATOM     10  H12 NP6 d          -7.017 -11.154  10.695  0.00  0.00     0.091 H 
ATOM     11  H14 NP6 d          -7.073  -8.392   9.402  0.00  0.00     0.091 H 
ENDROOT
BRANCH   1  12
ATOM     12  N1  NP6 d          -9.165 -10.839   7.105  0.00  0.00    -0.346 N 
ATOM     13  C4  NP6 d          -9.601 -11.685   6.162  0.00  0.00     0.218 C 
ATOM     14  O1  NP6 d          -9.323 -12.887   6.116  0.00  0.00    -0.274 OA
ATOM     15  H8  NP6 d          -9.460  -9.886   7.033  0.00  0.00     0.163 HD
BRANCH  13  16
ATOM     16  C3  NP6 d         -10.495 -11.040   5.079  0.00  0.00     0.009 C 
ATOM     17  H6  NP6 d         -11.204 -10.345   5.551  0.00  0.00     0.047 H 
ATOM     18  H7  NP6 d          -9.868 -10.492   4.361  0.00  0.00     0.047 H 
BRANCH  16  19
ATOM     19  C1  NP6 d         -11.260 -12.136   4.354  0.00  0.00    -0.061 C 
ATOM     20  H4  NP6 d         -10.538 -12.836   3.909  0.00  0.00     0.033 H 
ATOM     21  H5  NP6 d         -11.886 -12.671   5.085  0.00  0.00     0.033 H 
BRANCH  19  22
ATOM     22  C2  NP6 d         -12.157 -11.591   3.250  0.00  0.00    -0.076 C 
ATOM     23  H1  NP6 d         -12.749 -10.749   3.640  0.00  0.00     0.027 H 
ATOM     24  H2  NP6 d         -12.834 -12.384   2.901  0.00  0.00     0.027 H 
ATOM     25  H3  NP6 d         -11.536 -11.244   2.411  0.00  0.00     0.027 H 
ENDBRANCH  19  22
ENDBRANCH  16  19
ENDBRANCH  13  16
ENDBRANCH   1  12
BRANCH   7  26
ATOM     26  O6  NP6 d          -4.781 -11.589   6.916  0.00  0.00    -0.153 OA
BRANCH  26  27
ATOM     27  C11 NP6 d          -3.961 -12.329   7.750  0.00  0.00     0.389 C 
ATOM     28  O7  NP6 d          -3.646 -13.483   7.433  0.00  0.00    -0.236 OA
ATOM     29  N3  NP6 d          -3.524 -11.728   8.883  0.00  0.00    -0.301 N 
ATOM     30  H18 NP6 d          -3.778 -10.765   8.978  0.00  0.00     0.171 HD
BRANCH  29  31
ATOM     31  C12 NP6 d          -2.794 -12.233   9.909  0.00  0.00     0.036 A 
ATOM     32  C13 NP6 d          -3.482 -12.840  10.966  0.00  0.00    -0.057 A 
ATOM     33  C14 NP6 d          -2.802 -13.405  12.052  0.00  0.00    -0.081 A 
ATOM     34  H19 NP6 d          -4.565 -12.873  10.944  0.00  0.00     0.086 H 
ATOM     35  C15 NP6 d          -1.404 -13.377  12.087  0.00  0.00    -0.083 A 
ATOM     36  H20 NP6 d          -3.358 -13.863  12.862  0.00  0.00     0.083 H 
ATOM     37  C16 NP6 d          -0.703 -12.795  11.029  0.00  0.00    -0.081 A 
ATOM     38  H21 NP6 d          -0.869 -13.803  12.929  0.00  0.00     0.083 H 
ATOM     39  C17 NP6 d          -1.393 -12.229   9.948  0.00  0.00    -0.057 A 
ATOM     40  H22 NP6 d           0.380 -12.782  11.043  0.00  0.00     0.083 H 
ATOM     41  H23 NP6 d          -0.835 -11.782   9.132  0.00  0.00     0.086 H 
ENDBRANCH  29  31
ENDBRANCH  26  27
ENDBRANCH   7  26
BRANCH   2  42
ATOM     42  O2  NP6 d          -9.669 -11.207  10.228  0.00  0.00    -0.390 OA
ATOM     43  H11 NP6 d          -9.655 -10.974  11.148  0.00  0.00     0.210 HD
ENDBRANCH   2  42
BRANCH   4  44
ATOM     44  C9  NP6 d          -5.255  -8.849  10.460  0.00  0.00     0.044 C 
ATOM     45  H15 NP6 d          -5.399  -7.820  10.821  0.00  0.00     0.078 H 
ATOM     46  H16 NP6 d          -4.386  -8.882   9.787  0.00  0.00     0.078 H 
BRANCH  44  47
ATOM     47  O4  NP6 d          -5.014  -9.702  11.573  0.00  0.00    -0.398 OA
ATOM     48  H17 NP6 d          -4.219  -9.426  12.016  0.00  0.00     0.209 HD
ENDBRANCH  44  47
ENDBRANCH   4  44
BRANCH   3  49
ATOM     49  O3  NP6 d          -7.896  -9.511  11.629  0.00  0.00    -0.390 OA
ATOM     50  H13 NP6 d          -8.840  -9.403  11.628  0.00  0.00     0.210 HD
ENDBRANCH   3  49
TORSDOF 11
ENDMDL
MODEL 3
REMARK VINA RESULT:      -7.1      1.771      7.403
REMARK  11 active torsions:
REMARK  status: ('A' for Active; 'I' for Inactive)
REMARK    1  A    between atoms: C2_1  and  C1_2 
REMARK    2  A    between atoms: C1_2  and  C3_3 
REMARK    3  A    between atoms: C3_3  and  C4_4 
REMARK       I    between atoms: C4_4  and  N1_6 
REMARK    4  A    between atoms: N1_6  and  C5_7 
REMARK    5  A    between atoms: C6_8  and  O2_9 
REMARK    6  A    between atoms: C7_10  and  O3_11 
REMARK    7  A    between atoms: C8_12  and  C9_13 
REMARK    8  A    between atoms: C9_13  and  O4_14 
REMARK    9  A    between atoms: N2_17  and  O6_18 
REMARK   10  A    between atoms: O6_18  and  C11_19 
REMARK       I    between atoms: C11_19  and  N3_21 
REMARK   11  A    between atoms: N3_21  and  C12_22 
ROOT
ATOM      1  C5  NP6 d          -4.879 -10.015   9.573  0.00  0.00     0.105 C 
ATOM      2  C6  NP6 d          -5.806  -9.037  10.316  0.00  0.00     0.089 C 
ATOM      3  C7  NP6 d          -7.256  -9.485  10.224  0.00  0.00     0.090 C 
ATOM      4  C8  NP6 d          -7.376 -10.840  10.917  0.00  0.00     0.094 C 
ATOM      5  O5  NP6 d          -6.572 -11.810  10.260  0.00  0.00    -0.324 OA
ATOM      6  C10 NP6 d          -5.524 -11.414   9.466  0.00  0.00     0.194 C 
ATOM      7  N2  NP6 d          -5.093 -12.291   8.561  0.00  0.00    -0.100 NA
ATOM      8  H9  NP6 d          -4.758  -9.637   8.547  0.00  0.00     0.090 H 
ATOM      9  H10 NP6 d          -5.513  -9.006  11.376  0.00  0.00     0.090 H 
ATOM     10  H12 NP6 d          -7.559  -9.563   9.170  0.00  0.00     0.091 H 
ATOM     11  H14 NP6 d          -7.002 -10.707  11.942  0.00  0.00     0.091 H 
ENDROOT
BRANCH   1  12
ATOM     12  N1  NP6 d          -3.518 -10.051  10.189  0.00  0.00    -0.346 N 
ATOM     13  C4  NP6 d          -2.356 -10.076   9.523  0.00  0.00     0.218 C 
ATOM     14  O1  NP6 d          -2.252 -10.073   8.293  0.00  0.00    -0.274 OA
ATOM     15  H8  NP6 d          -3.471 -10.056  11.187  0.00  0.00     0.163 HD
BRANCH  13  16
ATOM     16  C3  NP6 d          -1.099 -10.130  10.420  0.00  0.00     0.009 C 
ATOM     17  H6  NP6 d          -0.976 -11.146  10.823  0.00  0.00     0.047 H 
ATOM     18  H7  NP6 d          -0.212  -9.860   9.829  0.00  0.00     0.047 H 
BRANCH  16  19
ATOM     19  C1  NP6 d          -1.267  -9.145  11.566  0.00  0.00    -0.061 C 
ATOM     20  H4  NP6 d          -2.112  -8.478  11.337  0.00  0.00     0.033 H 
ATOM     21  H5  NP6 d          -1.483  -9.708  12.486  0.00  0.00     0.033 H 
BRANCH  19  22
ATOM     22  C2  NP6 d          -0.023  -8.295  11.794  0.00  0.00    -0.076 C 
ATOM     23  H1  NP6 d           0.463  -8.602  12.732  0.00  0.00     0.027 H 
ATOM     24  H2  NP6 d          -0.309  -7.235  11.858  0.00  0.00     0.027 H 
ATOM     25  H3  NP6 d           0.676  -8.436  10.956  0.00  0.00     0.027 H 
ENDBRANCH  19  22
ENDBRANCH  16  19
ENDBRANCH  13  16
ENDBRANCH   1  12
BRANCH   7  26
ATOM     26  O6  NP6 d          -5.721 -13.510   8.457  0.00  0.00    -0.153 OA
BRANCH  26  27
ATOM     27  C11 NP6 d          -6.673 -13.569   7.454  0.00  0.00     0.389 C 
ATOM     28  O7  NP6 d          -6.492 -14.309   6.480  0.00  0.00    -0.236 OA
ATOM     29  N3  NP6 d          -7.784 -12.809   7.609  0.00  0.00    -0.301 N 
ATOM     30  H18 NP6 d          -7.849 -12.324   8.481  0.00  0.00     0.171 HD
BRANCH  29  31
ATOM     31  C12 NP6 d          -8.823 -12.604   6.760  0.00  0.00     0.036 A 
ATOM     32  C13 NP6 d          -9.090 -11.292   6.355  0.00  0.00    -0.057 A 
ATOM     33  C14 NP6 d         -10.128 -10.998   5.464  0.00  0.00    -0.081 A 
ATOM     34  H19 NP6 d          -8.478 -10.483   6.739  0.00  0.00     0.086 H 
ATOM     35  C15 NP6 d         -10.920 -12.033   4.953  0.00  0.00    -0.083 A 
ATOM     36  H20 NP6 d         -10.320  -9.973   5.171  0.00  0.00     0.083 H 
ATOM     37  C16 NP6 d         -10.651 -13.350   5.331  0.00  0.00    -0.081 A 
ATOM     38  H21 NP6 d         -11.733 -11.815   4.271  0.00  0.00     0.083 H 
ATOM     39  C17 NP6 d          -9.610 -13.634   6.227  0.00  0.00    -0.057 A 
ATOM     40  H22 NP6 d         -11.251 -14.159   4.930  0.00  0.00     0.083 H 
ATOM     41  H23 NP6 d          -9.413 -14.662   6.509  0.00  0.00     0.086 H 
ENDBRANCH  29  31
ENDBRANCH  26  27
ENDBRANCH   7  26
BRANCH   2  42
ATOM     42  O2  NP6 d          -5.667  -7.739   9.761  0.00  0.00    -0.390 OA
ATOM     43  H11 NP6 d          -5.978  -7.745   8.864  0.00  0.00     0.210 HD
ENDBRANCH   2  42
BRANCH   4  44
ATOM     44  C9  NP6 d          -8.799 -11.443  11.014  0.00  0.00     0.044 C 
ATOM     45  H15 NP6 d          -9.307 -11.030  11.898  0.00  0.00     0.078 H 
ATOM     46  H16 NP6 d          -8.722 -12.535  11.114  0.00  0.00     0.078 H 
BRANCH  44  47
ATOM     47  O4  NP6 d          -9.561 -11.134   9.854  0.00  0.00    -0.398 OA
ATOM     48  H17 NP6 d          -9.832 -10.223   9.887  0.00  0.00     0.209 HD
ENDBRANCH  44  47
ENDBRANCH   4  44
BRANCH   3  49
ATOM     49  O3  NP6 d          -8.111  -8.562  10.913  0.00  0.00    -0.390 OA
ATOM     50  H13 NP6 d          -8.621  -8.071  10.280  0.00  0.00     0.210 HD
ENDBRANCH   3  49
TORSDOF 11
ENDMDL
MODEL 4
REMARK VINA RESULT:      -6.9      2.389      7.511
REMARK  11 active torsions:
REMARK  status: ('A' for Active; 'I' for Inactive)
REMARK    1  A    between atoms: C2_1  and  C1_2 
REMARK    2  A    between atoms: C1_2  and  C3_3 
REMARK    3  A    between atoms: C3_3  and  C4_4 
REMARK       I    between atoms: C4_4  and  N1_6 
REMARK    4  A    between atoms: N1_6  and  C5_7 
REMARK    5  A    between atoms: C6_8  and  O2_9 
REMARK    6  A    between atoms: C7_10  and  O3_11 
REMARK    7  A    between atoms: C8_12  and  C9_13 
REMARK    8  A    between atoms: C9_13  and  O4_14 
REMARK    9  A    between atoms: N2_17  and  O6_18 
REMARK   10  A    between atoms: O6_18  and  C11_19 
REMARK       I    between atoms: C11_19  and  N3_21 
REMARK   11  A    between atoms: N3_21  and  C12_22 
ROOT
ATOM      1  C5  NP6 d          -4.253 -11.441   9.230  0.00  0.00     0.105 C 
ATOM      2  C6  NP6 d          -2.924 -11.204   8.492  0.00  0.00     0.089 C 
ATOM      3  C7  NP6 d          -2.458 -12.470   7.791  0.00  0.00     0.090 C 
ATOM      4  C8  NP6 d          -3.502 -12.839   6.740  0.00  0.00     0.094 C 
ATOM      5  O5  NP6 d          -4.754 -13.111   7.353  0.00  0.00    -0.324 OA
ATOM      6  C10 NP6 d          -5.027 -12.623   8.608  0.00  0.00     0.194 C 
ATOM      7  N2  NP6 d          -5.989 -13.239   9.294  0.00  0.00    -0.100 NA
ATOM      8  H9  NP6 d          -4.009 -11.724  10.264  0.00  0.00     0.090 H 
ATOM      9  H10 NP6 d          -3.073 -10.417   7.738  0.00  0.00     0.090 H 
ATOM     10  H12 NP6 d          -2.343 -13.283   8.522  0.00  0.00     0.091 H 
ATOM     11  H14 NP6 d          -3.612 -11.965   6.082  0.00  0.00     0.091 H 
ENDROOT
BRANCH   1  12
ATOM     12  N1  NP6 d          -5.067 -10.190   9.302  0.00  0.00    -0.346 N 
ATOM     13  C4  NP6 d          -4.979  -9.249  10.252  0.00  0.00     0.218 C 
ATOM     14  O1  NP6 d          -4.201  -9.291  11.210  0.00  0.00    -0.274 OA
ATOM     15  H8  NP6 d          -5.738 -10.042   8.576  0.00  0.00     0.163 HD
BRANCH  13  16
ATOM     16  C3  NP6 d          -5.960  -8.067  10.085  0.00  0.00     0.009 C 
ATOM     17  H6  NP6 d          -6.042  -7.518  11.034  0.00  0.00     0.047 H 
ATOM     18  H7  NP6 d          -5.592  -7.390   9.300  0.00  0.00     0.047 H 
BRANCH  16  19
ATOM     19  C1  NP6 d          -7.324  -8.610   9.690  0.00  0.00    -0.061 C 
ATOM     20  H4  NP6 d          -7.908  -7.798   9.232  0.00  0.00     0.033 H 
ATOM     21  H5  NP6 d          -7.183  -9.418   8.957  0.00  0.00     0.033 H 
BRANCH  19  22
ATOM     22  C2  NP6 d          -8.101  -9.160  10.879  0.00  0.00    -0.076 C 
ATOM     23  H1  NP6 d          -7.430  -9.764  11.508  0.00  0.00     0.027 H 
ATOM     24  H2  NP6 d          -8.930  -9.787  10.518  0.00  0.00     0.027 H 
ATOM     25  H3  NP6 d          -8.505  -8.325  11.471  0.00  0.00     0.027 H 
ENDBRANCH  19  22
ENDBRANCH  16  19
ENDBRANCH  13  16
ENDBRANCH   1  12
BRANCH   7  26
ATOM     26  O6  NP6 d          -6.626 -14.320   8.731  0.00  0.00    -0.153 OA
BRANCH  26  27
ATOM     27  C11 NP6 d          -7.870 -14.027   8.200  0.00  0.00     0.389 C 
ATOM     28  O7  NP6 d          -8.884 -14.528   8.701  0.00  0.00    -0.236 OA
ATOM     29  N3  NP6 d          -7.910 -13.173   7.148  0.00  0.00    -0.301 N 
ATOM     30  H18 NP6 d          -7.030 -12.770   6.896  0.00  0.00     0.171 HD
BRANCH  29  31
ATOM     31  C12 NP6 d          -8.961 -12.782   6.385  0.00  0.00     0.036 A 
ATOM     32  C13 NP6 d          -9.278 -11.419   6.356  0.00  0.00    -0.057 A 
ATOM     33  C14 NP6 d         -10.332 -10.930   5.577  0.00  0.00    -0.081 A 
ATOM     34  H19 NP6 d          -8.693 -10.726   6.951  0.00  0.00     0.086 H 
ATOM     35  C15 NP6 d         -11.089 -11.813   4.798  0.00  0.00    -0.083 A 
ATOM     36  H20 NP6 d         -10.563  -9.871   5.578  0.00  0.00     0.083 H 
ATOM     37  C16 NP6 d         -10.770 -13.172   4.800  0.00  0.00    -0.081 A 
ATOM     38  H21 NP6 d         -11.915 -11.445   4.200  0.00  0.00     0.083 H 
ATOM     39  C17 NP6 d          -9.714 -13.653   5.586  0.00  0.00    -0.057 A 
ATOM     40  H22 NP6 d         -11.343 -13.860   4.189  0.00  0.00     0.083 H 
ATOM     41  H23 NP6 d          -9.477 -14.711   5.575  0.00  0.00     0.086 H 
ENDBRANCH  29  31
ENDBRANCH  26  27
ENDBRANCH   7  26
BRANCH   2  42
ATOM     42  O2  NP6 d          -1.939 -10.775   9.419  0.00  0.00    -0.390 OA
ATOM     43  H11 NP6 d          -2.012  -9.837   9.545  0.00  0.00     0.210 HD
ENDBRANCH   2  42
BRANCH   4  44
ATOM     44  C9  NP6 d          -3.178 -14.060   5.844  0.00  0.00     0.044 C 
ATOM     45  H15 NP6 d          -2.734 -14.854   6.463  0.00  0.00     0.078 H 
ATOM     46  H16 NP6 d          -2.462 -13.758   5.067  0.00  0.00     0.078 H 
BRANCH  44  47
ATOM     47  O4  NP6 d          -4.356 -14.560   5.223  0.00  0.00    -0.398 OA
ATOM     48  H17 NP6 d          -4.863 -13.833   4.877  0.00  0.00     0.209 HD
ENDBRANCH  44  47
ENDBRANCH   4  44
BRANCH   3  49
ATOM     49  O3  NP6 d          -1.215 -12.240   7.114  0.00  0.00    -0.390 OA
ATOM     50  H13 NP6 d          -0.666 -13.012   7.189  0.00  0.00     0.210 HD
ENDBRANCH   3  49
TORSDOF 11
ENDMDL
MODEL 5
REMARK VINA RESULT:      -6.8      2.179      7.353
REMARK  11 active torsions:
REMARK  status: ('A' for Active; 'I' for Inactive)
REMARK    1  A    between atoms: C2_1  and  C1_2 
REMARK    2  A    between atoms: C1_2  and  C3_3 
REMARK    3  A    between atoms: C3_3  and  C4_4 
REMARK       I    between atoms: C4_4  and  N1_6 
REMARK    4  A    between atoms: N1_6  and  C5_7 
REMARK    5  A    between atoms: C6_8  and  O2_9 
REMARK    6  A    between atoms: C7_10  and  O3_11 
REMARK    7  A    between atoms: C8_12  and  C9_13 
REMARK    8  A    between atoms: C9_13  and  O4_14 
REMARK    9  A    between atoms: N2_17  and  O6_18 
REMARK   10  A    between atoms: O6_18  and  C11_19 
REMARK       I    between atoms: C11_19  and  N3_21 
REMARK   11  A    between atoms: N3_21  and  C12_22 
ROOT
ATOM      1  C5  NP6 d          -4.649 -11.652   9.026  0.00  0.00     0.105 C 
ATOM      2  C6  NP6 d          -4.548 -10.143   9.315  0.00  0.00     0.089 C 
ATOM      3  C7  NP6 d          -5.929  -9.517   9.423  0.00  0.00     0.090 C 
ATOM      4  C8  NP6 d          -6.647 -10.159  10.608  0.00  0.00     0.094 C 
ATOM      5  O5  NP6 d          -6.812 -11.554  10.395  0.00  0.00    -0.324 OA
ATOM      6  C10 NP6 d          -6.006 -12.215   9.501  0.00  0.00     0.194 C 
ATOM      7  N2  NP6 d          -6.462 -13.374   9.027  0.00  0.00    -0.100 NA
ATOM      8  H9  NP6 d          -4.611 -11.780   7.934  0.00  0.00     0.090 H 
ATOM      9  H10 NP6 d          -4.019 -10.000  10.269  0.00  0.00     0.090 H 
ATOM     10  H12 NP6 d          -6.492  -9.685   8.494  0.00  0.00     0.091 H 
ATOM     11  H14 NP6 d          -6.005 -10.009  11.488  0.00  0.00     0.091 H 
ENDROOT
BRANCH   1  12
ATOM     12  N1  NP6 d          -3.484 -12.395   9.594  0.00  0.00    -0.346 N 
ATOM     13  C4  NP6 d          -2.682 -13.231   8.920  0.00  0.00     0.218 C 
ATOM     14  O1  NP6 d          -2.801 -13.503   7.721  0.00  0.00    -0.274 OA
ATOM     15  H8  NP6 d          -3.284 -12.255  10.563  0.00  0.00     0.163 HD
BRANCH  13  16
ATOM     16  C3  NP6 d          -1.563 -13.877   9.768  0.00  0.00     0.009 C 
ATOM     17  H6  NP6 d          -1.490 -14.948   9.528  0.00  0.00     0.047 H 
ATOM     18  H7  NP6 d          -0.604 -13.386   9.549  0.00  0.00     0.047 H 
BRANCH  16  19
ATOM     19  C1  NP6 d          -1.899 -13.706  11.241  0.00  0.00    -0.061 C 
ATOM     20  H4  NP6 d          -0.979 -13.445  11.784  0.00  0.00     0.033 H 
ATOM     21  H5  NP6 d          -2.629 -12.889  11.343  0.00  0.00     0.033 H 
BRANCH  19  22
ATOM     22  C2  NP6 d          -2.489 -14.968  11.856  0.00  0.00    -0.076 C 
ATOM     23  H1  NP6 d          -1.751 -15.783  11.800  0.00  0.00     0.027 H 
ATOM     24  H2  NP6 d          -3.396 -15.256  11.305  0.00  0.00     0.027 H 
ATOM     25  H3  NP6 d          -2.745 -14.778  12.909  0.00  0.00     0.027 H 
ENDBRANCH  19  22
ENDBRANCH  16  19
ENDBRANCH  13  16
ENDBRANCH   1  12
BRANCH   7  26
ATOM     26  O6  NP6 d          -7.696 -13.824   9.432  0.00  0.00    -0.153 OA
BRANCH  26  27
ATOM     27  C11 NP6 d          -8.748 -13.348   8.668  0.00  0.00     0.389 C 
ATOM     28  O7  NP6 d          -9.880 -13.277   9.160  0.00  0.00    -0.236 OA
ATOM     29  N3  NP6 d          -8.467 -12.960   7.400  0.00  0.00    -0.301 N 
ATOM     30  H18 NP6 d          -7.498 -12.984   7.153  0.00  0.00     0.171 HD
BRANCH  29  31
ATOM     31  C12 NP6 d          -9.299 -12.542   6.414  0.00  0.00     0.036 A 
ATOM     32  C13 NP6 d          -9.917 -13.517   5.621  0.00  0.00    -0.057 A 
ATOM     33  C14 NP6 d         -10.807 -13.171   4.598  0.00  0.00    -0.081 A 
ATOM     34  H19 NP6 d          -9.700 -14.564   5.804  0.00  0.00     0.086 H 
ATOM     35  C15 NP6 d         -11.101 -11.824   4.358  0.00  0.00    -0.083 A 
ATOM     36  H20 NP6 d         -11.266 -13.944   3.992  0.00  0.00     0.083 H 
ATOM     37  C16 NP6 d         -10.510 -10.842   5.156  0.00  0.00    -0.081 A 
ATOM     38  H21 NP6 d         -11.781 -11.546   3.561  0.00  0.00     0.083 H 
ATOM     39  C17 NP6 d          -9.618 -11.198   6.176  0.00  0.00    -0.057 A 
ATOM     40  H22 NP6 d         -10.744  -9.797   4.985  0.00  0.00     0.083 H 
ATOM     41  H23 NP6 d          -9.168 -10.424   6.788  0.00  0.00     0.086 H 
ENDBRANCH  29  31
ENDBRANCH  26  27
ENDBRANCH   7  26
BRANCH   2  42
ATOM     42  O2  NP6 d          -3.812  -9.513   8.279  0.00  0.00    -0.390 OA
ATOM     43  H11 NP6 d          -2.961  -9.926   8.200  0.00  0.00     0.210 HD
ENDBRANCH   2  42
BRANCH   4  44
ATOM     44  C9  NP6 d          -8.050  -9.599  10.951  0.00  0.00     0.044 C 
ATOM     45  H15 NP6 d          -8.556  -9.299  10.022  0.00  0.00     0.078 H 
ATOM     46  H16 NP6 d          -7.937  -8.723  11.606  0.00  0.00     0.078 H 
BRANCH  44  47
ATOM     47  O4  NP6 d          -8.838 -10.579  11.616  0.00  0.00    -0.398 OA
ATOM     48  H17 NP6 d          -9.685 -10.644  11.190  0.00  0.00     0.209 HD
ENDBRANCH  44  47
ENDBRANCH   4  44
BRANCH   3  49
ATOM     49  O3  NP6 d          -5.822  -8.110   9.684  0.00  0.00    -0.390 OA
ATOM     50  H13 NP6 d          -4.969  -7.801   9.405  0.00  0.00     0.210 HD
ENDBRANCH   3  49
TORSDOF 11
ENDMDL
MODEL 6
REMARK VINA RESULT:      -6.7      2.148      2.759
REMARK  11 active torsions:
REMARK  status: ('A' for Active; 'I' for Inactive)
REMARK    1  A    between atoms: C2_1  and  C1_2 
REMARK    2  A    between atoms: C1_2  and  C3_3 
REMARK    3  A    between atoms: C3_3  and  C4_4 
REMARK       I    between atoms: C4_4  and  N1_6 
REMARK    4  A    between atoms: N1_6  and  C5_7 
REMARK    5  A    between atoms: C6_8  and  O2_9 
REMARK    6  A    between atoms: C7_10  and  O3_11 
REMARK    7  A    between atoms: C8_12  and  C9_13 
REMARK    8  A    between atoms: C9_13  and  O4_14 
REMARK    9  A    between atoms: N2_17  and  O6_18 
REMARK   10  A    between atoms: O6_18  and  C11_19 
REMARK       I    between atoms: C11_19  and  N3_21 
REMARK   11  A    between atoms: N3_21  and  C12_22 
ROOT
ATOM      1  C5  NP6 d          -8.136 -12.419   8.848  0.00  0.00     0.105 C 
ATOM      2  C6  NP6 d          -8.532 -11.123   9.579  0.00  0.00     0.089 C 
ATOM      3  C7  NP6 d          -7.515 -10.773  10.654  0.00  0.00     0.090 C 
ATOM      4  C8  NP6 d          -6.175 -10.516   9.969  0.00  0.00     0.094 C 
ATOM      5  O5  NP6 d          -5.723 -11.686   9.300  0.00  0.00    -0.324 OA
ATOM      6  C10 NP6 d          -6.617 -12.671   8.956  0.00  0.00     0.194 C 
ATOM      7  N2  NP6 d          -6.115 -13.886   8.738  0.00  0.00    -0.100 NA
ATOM      8  H9  NP6 d          -8.639 -13.252   9.361  0.00  0.00     0.090 H 
ATOM      9  H10 NP6 d          -8.571 -10.302   8.849  0.00  0.00     0.090 H 
ATOM     10  H12 NP6 d          -7.429 -11.600  11.373  0.00  0.00     0.091 H 
ATOM     11  H14 NP6 d          -6.345  -9.726   9.223  0.00  0.00     0.091 H 
ENDROOT
BRANCH   1  12
ATOM     12  N1  NP6 d          -8.625 -12.418   7.436  0.00  0.00    -0.346 N 
ATOM     13  C4  NP6 d          -9.561 -13.232   6.929  0.00  0.00     0.218 C 
ATOM     14  O1  NP6 d         -10.154 -14.104   7.570  0.00  0.00    -0.274 OA
ATOM     15  H8  NP6 d          -8.216 -11.751   6.814  0.00  0.00     0.163 HD
BRANCH  13  16
ATOM     16  C3  NP6 d          -9.855 -13.021   5.427  0.00  0.00     0.009 C 
ATOM     17  H6  NP6 d          -8.912 -13.027   4.861  0.00  0.00     0.047 H 
ATOM     18  H7  NP6 d         -10.508 -13.827   5.062  0.00  0.00     0.047 H 
BRANCH  16  19
ATOM     19  C1  NP6 d         -10.551 -11.681   5.244  0.00  0.00    -0.061 C 
ATOM     20  H4  NP6 d         -11.142 -11.464   6.146  0.00  0.00     0.033 H 
ATOM     21  H5  NP6 d          -9.785 -10.902   5.112  0.00  0.00     0.033 H 
BRANCH  19  22
ATOM     22  C2  NP6 d         -11.479 -11.664   4.036  0.00  0.00    -0.076 C 
ATOM     23  H1  NP6 d         -11.056 -11.011   3.258  0.00  0.00     0.027 H 
ATOM     24  H2  NP6 d         -12.466 -11.283   4.337  0.00  0.00     0.027 H 
ATOM     25  H3  NP6 d         -11.585 -12.685   3.640  0.00  0.00     0.027 H 
ENDBRANCH  19  22
ENDBRANCH  16  19
ENDBRANCH  13  16
ENDBRANCH   1  12
BRANCH   7  26
ATOM     26  O6  NP6 d          -4.763 -14.089   8.890  0.00  0.00    -0.153 OA
BRANCH  26  27
ATOM     27  C11 NP6 d          -3.989 -13.478   7.920  0.00  0.00     0.389 C 
ATOM     28  O7  NP6 d          -4.267 -13.637   6.725  0.00  0.00    -0.236 OA
ATOM     29  N3  NP6 d          -2.958 -12.707   8.343  0.00  0.00    -0.301 N 
ATOM     30  H18 NP6 d          -2.895 -12.590   9.334  0.00  0.00     0.171 HD
BRANCH  29  31
ATOM     31  C12 NP6 d          -1.998 -12.070   7.627  0.00  0.00     0.036 A 
ATOM     32  C13 NP6 d          -2.011 -10.671   7.614  0.00  0.00    -0.057 A 
ATOM     33  C14 NP6 d          -1.042  -9.937   6.919  0.00  0.00    -0.081 A 
ATOM     34  H19 NP6 d          -2.789 -10.142   8.154  0.00  0.00     0.086 H 
ATOM     35  C15 NP6 d          -0.028 -10.607   6.226  0.00  0.00    -0.083 A 
ATOM     36  H20 NP6 d          -1.078  -8.854   6.917  0.00  0.00     0.083 H 
ATOM     37  C16 NP6 d           0.011 -12.003   6.249  0.00  0.00    -0.081 A 
ATOM     38  H21 NP6 d           0.720 -10.048   5.675  0.00  0.00     0.083 H 
ATOM     39  C17 NP6 d          -0.965 -12.729   6.945  0.00  0.00    -0.057 A 
ATOM     40  H22 NP6 d           0.801 -12.528   5.725  0.00  0.00     0.083 H 
ATOM     41  H23 NP6 d          -0.921 -13.812   6.956  0.00  0.00     0.086 H 
ENDBRANCH  29  31
ENDBRANCH  26  27
ENDBRANCH   7  26
BRANCH   2  42
ATOM     42  O2  NP6 d          -9.815 -11.284  10.164  0.00  0.00    -0.390 OA
ATOM     43  H11 NP6 d         -10.470 -11.330   9.478  0.00  0.00     0.210 HD
ENDBRANCH   2  42
BRANCH   4  44
ATOM     44  C9  NP6 d          -5.010 -10.056  10.881  0.00  0.00     0.044 C 
ATOM     45  H15 NP6 d          -4.059 -10.183  10.343  0.00  0.00     0.078 H 
ATOM     46  H16 NP6 d          -5.001 -10.671  11.792  0.00  0.00     0.078 H 
BRANCH  44  47
ATOM     47  O4  NP6 d          -5.161  -8.689  11.243  0.00  0.00    -0.398 OA
ATOM     48  H17 NP6 d          -6.069  -8.520  11.468  0.00  0.00     0.209 HD
ENDBRANCH  44  47
ENDBRANCH   4  44
BRANCH   3  49
ATOM     49  O3  NP6 d          -7.898  -9.569  11.334  0.00  0.00    -0.390 OA
ATOM     50  H13 NP6 d          -7.120  -9.123  11.648  0.00  0.00     0.210 HD
ENDBRANCH   3  49
TORSDOF 11
ENDMDL
MODEL 7
REMARK VINA RESULT:      -6.3      2.742      7.647
REMARK  11 active torsions:
REMARK  status: ('A' for Active; 'I' for Inactive)
REMARK    1  A    between atoms: C2_1  and  C1_2 
REMARK    2  A    between atoms: C1_2  and  C3_3 
REMARK    3  A    between atoms: C3_3  and  C4_4 
REMARK       I    between atoms: C4_4  and  N1_6 
REMARK    4  A    between atoms: N1_6  and  C5_7 
REMARK    5  A    between atoms: C6_8  and  O2_9 
REMARK    6  A    between atoms: C7_10  and  O3_11 
REMARK    7  A    between atoms: C8_12  and  C9_13 
REMARK    8  A    between atoms: C9_13  and  O4_14 
REMARK    9  A    between atoms: N2_17  and  O6_18 
REMARK   10  A    between atoms: O6_18  and  C11_19 
REMARK       I    between atoms: C11_19  and  N3_21 
REMARK   11  A    between atoms: N3_21  and  C12_22 
ROOT
ATOM      1  C5  NP6 d          -3.974 -13.572   9.160  0.00  0.00     0.105 C 
ATOM      2  C6  NP6 d          -2.709 -13.625   8.285  0.00  0.00     0.089 C 
ATOM      3  C7  NP6 d          -2.778 -14.781   7.299  0.00  0.00     0.090 C 
ATOM      4  C8  NP6 d          -3.964 -14.538   6.368  0.00  0.00     0.094 C 
ATOM      5  O5  NP6 d          -5.179 -14.513   7.104  0.00  0.00    -0.324 OA
ATOM      6  C10 NP6 d          -5.163 -14.260   8.454  0.00  0.00     0.194 C 
ATOM      7  N2  NP6 d          -6.224 -14.664   9.152  0.00  0.00    -0.100 NA
ATOM      8  H9  NP6 d          -3.765 -14.147  10.074  0.00  0.00     0.090 H 
ATOM      9  H10 NP6 d          -2.628 -12.685   7.720  0.00  0.00     0.090 H 
ATOM     10  H12 NP6 d          -2.902 -15.730   7.840  0.00  0.00     0.091 H 
ATOM     11  H14 NP6 d          -3.809 -13.551   5.908  0.00  0.00     0.091 H 
ENDROOT
BRANCH   1  12
ATOM     12  N1  NP6 d          -4.284 -12.174   9.585  0.00  0.00    -0.346 N 
ATOM     13  C4  NP6 d          -4.844 -11.226   8.820  0.00  0.00     0.218 C 
ATOM     14  O1  NP6 d          -5.183 -11.384   7.644  0.00  0.00    -0.274 OA
ATOM     15  H8  NP6 d          -4.053 -11.923  10.525  0.00  0.00     0.163 HD
BRANCH  13  16
ATOM     16  C3  NP6 d          -5.031  -9.861   9.518  0.00  0.00     0.009 C 
ATOM     17  H6  NP6 d          -4.863  -9.972  10.599  0.00  0.00     0.047 H 
ATOM     18  H7  NP6 d          -4.314  -9.135   9.108  0.00  0.00     0.047 H 
BRANCH  16  19
ATOM     19  C1  NP6 d          -6.449  -9.371   9.270  0.00  0.00    -0.061 C 
ATOM     20  H4  NP6 d          -6.406  -8.464   8.649  0.00  0.00     0.033 H 
ATOM     21  H5  NP6 d          -7.005 -10.155   8.736  0.00  0.00     0.033 H 
BRANCH  19  22
ATOM     22  C2  NP6 d          -7.188  -9.043  10.562  0.00  0.00    -0.076 C 
ATOM     23  H1  NP6 d          -6.832  -8.078  10.954  0.00  0.00     0.027 H 
ATOM     24  H2  NP6 d          -6.999  -9.833  11.304  0.00  0.00     0.027 H 
ATOM     25  H3  NP6 d          -8.268  -8.980  10.361  0.00  0.00     0.027 H 
ENDBRANCH  19  22
ENDBRANCH  16  19
ENDBRANCH  13  16
ENDBRANCH   1  12
BRANCH   7  26
ATOM     26  O6  NP6 d          -7.244 -15.318   8.503  0.00  0.00    -0.153 OA
BRANCH  26  27
ATOM     27  C11 NP6 d          -8.282 -14.491   8.110  0.00  0.00     0.389 C 
ATOM     28  O7  NP6 d          -9.271 -14.358   8.841  0.00  0.00    -0.236 OA
ATOM     29  N3  NP6 d          -8.146 -13.844   6.927  0.00  0.00    -0.301 N 
ATOM     30  H18 NP6 d          -7.263 -13.968   6.475  0.00  0.00     0.171 HD
BRANCH  29  31
ATOM     31  C12 NP6 d          -9.025 -13.053   6.262  0.00  0.00     0.036 A 
ATOM     32  C13 NP6 d         -10.000 -13.676   5.473  0.00  0.00    -0.057 A 
ATOM     33  C14 NP6 d         -10.958 -12.934   4.773  0.00  0.00    -0.081 A 
ATOM     34  H19 NP6 d         -10.013 -14.758   5.403  0.00  0.00     0.086 H 
ATOM     35  C15 NP6 d         -10.957 -11.537   4.863  0.00  0.00    -0.083 A 
ATOM     36  H20 NP6 d         -11.698 -13.439   4.164  0.00  0.00     0.083 H 
ATOM     37  C16 NP6 d         -10.005 -10.903   5.664  0.00  0.00    -0.081 A 
ATOM     38  H21 NP6 d         -11.689 -10.954   4.316  0.00  0.00     0.083 H 
ATOM     39  C17 NP6 d          -9.047 -11.655   6.358  0.00  0.00    -0.057 A 
ATOM     40  H22 NP6 d         -10.007  -9.823   5.749  0.00  0.00     0.083 H 
ATOM     41  H23 NP6 d          -8.316 -11.149   6.978  0.00  0.00     0.086 H 
ENDBRANCH  29  31
ENDBRANCH  26  27
ENDBRANCH   7  26
BRANCH   2  42
ATOM     42  O2  NP6 d          -1.567 -13.767   9.114  0.00  0.00    -0.390 OA
ATOM     43  H11 NP6 d          -1.633 -14.576   9.607  0.00  0.00     0.210 HD
ENDBRANCH   2  42
BRANCH   4  44
ATOM     44  C9  NP6 d          -4.165 -15.561   5.223  0.00  0.00     0.044 C 
ATOM     45  H15 NP6 d          -3.914 -16.567   5.590  0.00  0.00     0.078 H 
ATOM     46  H16 NP6 d          -3.502 -15.300   4.386  0.00  0.00     0.078 H 
BRANCH  44  47
ATOM     47  O4  NP6 d          -5.513 -15.554   4.769  0.00  0.00    -0.398 OA
ATOM     48  H17 NP6 d          -5.883 -16.424   4.865  0.00  0.00     0.209 HD
ENDBRANCH  44  47
ENDBRANCH   4  44
BRANCH   3  49
ATOM     49  O3  NP6 d          -1.591 -14.826   6.494  0.00  0.00    -0.390 OA
ATOM     50  H13 NP6 d          -1.116 -15.628   6.678  0.00  0.00     0.210 HD
ENDBRANCH   3  49
TORSDOF 11
ENDMDL
MODEL 8
REMARK VINA RESULT:      -5.9      2.950      4.376
REMARK  11 active torsions:
REMARK  status: ('A' for Active; 'I' for Inactive)
REMARK    1  A    between atoms: C2_1  and  C1_2 
REMARK    2  A    between atoms: C1_2  and  C3_3 
REMARK    3  A    between atoms: C3_3  and  C4_4 
REMARK       I    between atoms: C4_4  and  N1_6 
REMARK    4  A    between atoms: N1_6  and  C5_7 
REMARK    5  A    between atoms: C6_8  and  O2_9 
REMARK    6  A    between atoms: C7_10  and  O3_11 
REMARK    7  A    between atoms: C8_12  and  C9_13 
REMARK    8  A    between atoms: C9_13  and  O4_14 
REMARK    9  A    between atoms: N2_17  and  O6_18 
REMARK   10  A    between atoms: O6_18  and  C11_19 
REMARK       I    between atoms: C11_19  and  N3_21 
REMARK   11  A    between atoms: N3_21  and  C12_22 
ROOT
ATOM      1  C5  NP6 d          -8.471 -12.456   9.004  0.00  0.00     0.105 C 
ATOM      2  C6  NP6 d          -8.156 -11.203   9.841  0.00  0.00     0.089 C 
ATOM      3  C7  NP6 d          -6.904 -11.410  10.678  0.00  0.00     0.090 C 
ATOM      4  C8  NP6 d          -5.730 -11.627   9.727  0.00  0.00     0.094 C 
ATOM      5  O5  NP6 d          -5.932 -12.794   8.942  0.00  0.00    -0.324 OA
ATOM      6  C10 NP6 d          -7.198 -13.298   8.771  0.00  0.00     0.194 C 
ATOM      7  N2  NP6 d          -7.290 -14.579   8.414  0.00  0.00    -0.100 NA
ATOM      8  H9  NP6 d          -9.166 -13.075   9.589  0.00  0.00     0.090 H 
ATOM      9  H10 NP6 d          -7.989 -10.355   9.161  0.00  0.00     0.090 H 
ATOM     10  H12 NP6 d          -7.032 -12.281  11.338  0.00  0.00     0.091 H 
ATOM     11  H14 NP6 d          -5.696 -10.754   9.059  0.00  0.00     0.091 H 
ENDROOT
BRANCH   1  12
ATOM     12  N1  NP6 d          -9.170 -12.099   7.732  0.00  0.00    -0.346 N 
ATOM     13  C4  NP6 d          -8.754 -11.196   6.834  0.00  0.00     0.218 C 
ATOM     14  O1  NP6 d          -7.721 -10.527   6.938  0.00  0.00    -0.274 OA
ATOM     15  H8  NP6 d         -10.025 -12.578   7.534  0.00  0.00     0.163 HD
BRANCH  13  16
ATOM     16  C3  NP6 d          -9.688 -11.018   5.616  0.00  0.00     0.009 C 
ATOM     17  H6  NP6 d         -10.189 -10.040   5.675  0.00  0.00     0.047 H 
ATOM     18  H7  NP6 d          -9.101 -11.074   4.688  0.00  0.00     0.047 H 
BRANCH  16  19
ATOM     19  C1  NP6 d         -10.730 -12.126   5.627  0.00  0.00    -0.061 C 
ATOM     20  H4  NP6 d         -10.860 -12.477   6.661  0.00  0.00     0.033 H 
ATOM     21  H5  NP6 d         -11.681 -11.718   5.255  0.00  0.00     0.033 H 
BRANCH  19  22
ATOM     22  C2  NP6 d         -10.332 -13.311   4.755  0.00  0.00    -0.076 C 
ATOM     23  H1  NP6 d         -10.684 -13.143   3.726  0.00  0.00     0.027 H 
ATOM     24  H2  NP6 d         -10.788 -14.229   5.154  0.00  0.00     0.027 H 
ATOM     25  H3  NP6 d          -9.237 -13.415   4.755  0.00  0.00     0.027 H 
ENDBRANCH  19  22
ENDBRANCH  16  19
ENDBRANCH  13  16
ENDBRANCH   1  12
BRANCH   7  26
ATOM     26  O6  NP6 d          -6.139 -15.317   8.263  0.00  0.00    -0.153 OA
BRANCH  26  27
ATOM     27  C11 NP6 d          -5.377 -14.952   7.167  0.00  0.00     0.389 C 
ATOM     28  O7  NP6 d          -5.905 -14.881   6.050  0.00  0.00    -0.236 OA
ATOM     29  N3  NP6 d          -4.070 -14.669   7.386  0.00  0.00    -0.301 N 
ATOM     30  H18 NP6 d          -3.790 -14.678   8.346  0.00  0.00     0.171 HD
BRANCH  29  31
ATOM     31  C12 NP6 d          -3.084 -14.375   6.502  0.00  0.00     0.036 A 
ATOM     32  C13 NP6 d          -2.202 -13.338   6.826  0.00  0.00    -0.057 A 
ATOM     33  C14 NP6 d          -1.144 -12.987   5.979  0.00  0.00    -0.081 A 
ATOM     34  H19 NP6 d          -2.341 -12.793   7.753  0.00  0.00     0.086 H 
ATOM     35  C15 NP6 d          -0.948 -13.687   4.784  0.00  0.00    -0.083 A 
ATOM     36  H20 NP6 d          -0.479 -12.174   6.248  0.00  0.00     0.083 H 
ATOM     37  C16 NP6 d          -1.807 -14.740   4.459  0.00  0.00    -0.081 A 
ATOM     38  H21 NP6 d          -0.138 -13.416   4.117  0.00  0.00     0.083 H 
ATOM     39  C17 NP6 d          -2.865 -15.082   5.312  0.00  0.00    -0.057 A 
ATOM     40  H22 NP6 d          -1.653 -15.296   3.541  0.00  0.00     0.083 H 
ATOM     41  H23 NP6 d          -3.522 -15.903   5.047  0.00  0.00     0.086 H 
ENDBRANCH  29  31
ENDBRANCH  26  27
ENDBRANCH   7  26
BRANCH   2  42
ATOM     42  O2  NP6 d          -9.257 -10.910  10.685  0.00  0.00    -0.390 OA
ATOM     43  H11 NP6 d          -9.814 -11.676  10.754  0.00  0.00     0.210 HD
ENDBRANCH   2  42
BRANCH   4  44
ATOM     44  C9  NP6 d          -4.332 -11.773  10.377  0.00  0.00     0.044 C 
ATOM     45  H15 NP6 d          -4.438 -11.753  11.471  0.00  0.00     0.078 H 
ATOM     46  H16 NP6 d          -3.696 -10.936  10.055  0.00  0.00     0.078 H 
BRANCH  44  47
ATOM     47  O4  NP6 d          -3.719 -12.997   9.991  0.00  0.00    -0.398 OA
ATOM     48  H17 NP6 d          -2.944 -13.143  10.522  0.00  0.00     0.209 HD
ENDBRANCH  44  47
ENDBRANCH   4  44
BRANCH   3  49
ATOM     49  O3  NP6 d          -6.624 -10.240  11.460  0.00  0.00    -0.390 OA
ATOM     50  H13 NP6 d          -5.905 -10.421  12.053  0.00  0.00     0.210 HD
ENDBRANCH   3  49
TORSDOF 11
ENDMDL
MODEL 9
REMARK VINA RESULT:      -5.8      1.427      2.002
REMARK  11 active torsions:
REMARK  status: ('A' for Active; 'I' for Inactive)
REMARK    1  A    between atoms: C2_1  and  C1_2 
REMARK    2  A    between atoms: C1_2  and  C3_3 
REMARK    3  A    between atoms: C3_3  and  C4_4 
REMARK       I    between atoms: C4_4  and  N1_6 
REMARK    4  A    between atoms: N1_6  and  C5_7 
REMARK    5  A    between atoms: C6_8  and  O2_9 
REMARK    6  A    between atoms: C7_10  and  O3_11 
REMARK    7  A    between atoms: C8_12  and  C9_13 
REMARK    8  A    between atoms: C9_13  and  O4_14 
REMARK    9  A    between atoms: N2_17  and  O6_18 
REMARK   10  A    between atoms: O6_18  and  C11_19 
REMARK       I    between atoms: C11_19  and  N3_21 
REMARK   11  A    between atoms: N3_21  and  C12_22 
ROOT
ATOM      1  C5  NP6 d          -7.886 -12.190   9.402  0.00  0.00     0.105 C 
ATOM      2  C6  NP6 d          -8.325 -11.165  10.463  0.00  0.00     0.089 C 
ATOM      3  C7  NP6 d          -7.303 -10.047  10.596  0.00  0.00     0.090 C 
ATOM      4  C8  NP6 d          -7.228  -9.314   9.258  0.00  0.00     0.094 C 
ATOM      5  O5  NP6 d          -6.790 -10.192   8.231  0.00  0.00    -0.324 OA
ATOM      6  C10 NP6 d          -6.914 -11.551   8.386  0.00  0.00     0.194 C 
ATOM      7  N2  NP6 d          -6.127 -12.315   7.630  0.00  0.00    -0.100 NA
ATOM      8  H9  NP6 d          -7.331 -12.984   9.923  0.00  0.00     0.090 H 
ATOM      9  H10 NP6 d          -9.287 -10.728  10.157  0.00  0.00     0.090 H 
ATOM     10  H12 NP6 d          -6.321 -10.466  10.861  0.00  0.00     0.091 H 
ATOM     11  H14 NP6 d          -8.248  -8.977   9.024  0.00  0.00     0.091 H 
ENDROOT
BRANCH   1  12
ATOM     12  N1  NP6 d          -9.063 -12.837   8.749  0.00  0.00    -0.346 N 
ATOM     13  C4  NP6 d          -9.112 -14.093   8.285  0.00  0.00     0.218 C 
ATOM     14  O1  NP6 d          -8.176 -14.897   8.337  0.00  0.00    -0.274 OA
ATOM     15  H8  NP6 d          -9.889 -12.282   8.648  0.00  0.00     0.163 HD
BRANCH  13  16
ATOM     16  C3  NP6 d         -10.458 -14.491   7.638  0.00  0.00     0.009 C 
ATOM     17  H6  NP6 d         -10.440 -15.559   7.376  0.00  0.00     0.047 H 
ATOM     18  H7  NP6 d         -11.278 -14.300   8.345  0.00  0.00     0.047 H 
BRANCH  16  19
ATOM     19  C1  NP6 d         -10.665 -13.661   6.381  0.00  0.00    -0.061 C 
ATOM     20  H4  NP6 d         -11.320 -14.218   5.695  0.00  0.00     0.033 H 
ATOM     21  H5  NP6 d         -11.148 -12.713   6.660  0.00  0.00     0.033 H 
BRANCH  19  22
ATOM     22  C2  NP6 d          -9.358 -13.350   5.663  0.00  0.00    -0.076 C 
ATOM     23  H1  NP6 d          -9.563 -12.722   4.783  0.00  0.00     0.027 H 
ATOM     24  H2  NP6 d          -8.883 -14.289   5.341  0.00  0.00     0.027 H 
ATOM     25  H3  NP6 d          -8.683 -12.814   6.346  0.00  0.00     0.027 H 
ENDBRANCH  19  22
ENDBRANCH  16  19
ENDBRANCH  13  16
ENDBRANCH   1  12
BRANCH   7  26
ATOM     26  O6  NP6 d          -5.236 -11.715   6.771  0.00  0.00    -0.153 OA
BRANCH  26  27
ATOM     27  C11 NP6 d          -3.952 -11.606   7.276  0.00  0.00     0.389 C 
ATOM     28  O7  NP6 d          -3.128 -12.500   7.053  0.00  0.00    -0.236 OA
ATOM     29  N3  NP6 d          -3.659 -10.491   7.988  0.00  0.00    -0.301 N 
ATOM     30  H18 NP6 d          -4.386  -9.805   8.021  0.00  0.00     0.171 HD
BRANCH  29  31
ATOM     31  C12 NP6 d          -2.529 -10.163   8.664  0.00  0.00     0.036 A 
ATOM     32  C13 NP6 d          -1.362  -9.945   7.922  0.00  0.00    -0.057 A 
ATOM     33  C14 NP6 d          -0.160  -9.581   8.540  0.00  0.00    -0.081 A 
ATOM     34  H19 NP6 d          -1.390 -10.061   6.844  0.00  0.00     0.086 H 
ATOM     35  C15 NP6 d          -0.114  -9.419   9.929  0.00  0.00    -0.083 A 
ATOM     36  H20 NP6 d           0.732  -9.426   7.944  0.00  0.00     0.083 H 
ATOM     37  C16 NP6 d          -1.276  -9.611  10.679  0.00  0.00    -0.081 A 
ATOM     38  H21 NP6 d           0.815  -9.148  10.418  0.00  0.00     0.083 H 
ATOM     39  C17 NP6 d          -2.474  -9.979  10.052  0.00  0.00    -0.057 A 
ATOM     40  H22 NP6 d          -1.251  -9.475  11.755  0.00  0.00     0.083 H 
ATOM     41  H23 NP6 d          -3.368 -10.122  10.648  0.00  0.00     0.086 H 
ENDBRANCH  29  31
ENDBRANCH  26  27
ENDBRANCH   7  26
BRANCH   2  42
ATOM     42  O2  NP6 d          -8.490 -11.818  11.711  0.00  0.00    -0.390 OA
ATOM     43  H11 NP6 d          -9.137 -12.507  11.623  0.00  0.00     0.210 HD
ENDBRANCH   2  42
BRANCH   4  44
ATOM     44  C9  NP6 d          -6.301  -8.075   9.201  0.00  0.00     0.044 C 
ATOM     45  H15 NP6 d          -6.917  -7.163   9.193  0.00  0.00     0.078 H 
ATOM     46  H16 NP6 d          -5.700  -8.117   8.281  0.00  0.00     0.078 H 
BRANCH  44  47
ATOM     47  O4  NP6 d          -5.432  -8.039  10.325  0.00  0.00    -0.398 OA
ATOM     48  H17 NP6 d          -5.935  -8.187  11.118  0.00  0.00     0.209 HD
ENDBRANCH  44  47
ENDBRANCH   4  44
BRANCH   3  49
ATOM     49  O3  NP6 d          -7.718  -9.102  11.592  0.00  0.00    -0.390 OA
ATOM     50  H13 NP6 d          -7.091  -9.099  12.305  0.00  0.00     0.210 HD
ENDBRANCH   3  49
TORSDOF 11
ENDMDL
MODEL 10
REMARK VINA RESULT:      -5.8      2.653      7.481
REMARK  11 active torsions:
REMARK  status: ('A' for Active; 'I' for Inactive)
REMARK    1  A    between atoms: C2_1  and  C1_2 
REMARK    2  A    between atoms: C1_2  and  C3_3 
REMARK    3  A    between atoms: C3_3  and  C4_4 
REMARK       I    between atoms: C4_4  and  N1_6 
REMARK    4  A    between atoms: N1_6  and  C5_7 
REMARK    5  A    between atoms: C6_8  and  O2_9 
REMARK    6  A    between atoms: C7_10  and  O3_11 
REMARK    7  A    between atoms: C8_12  and  C9_13 
REMARK    8  A    between atoms: C9_13  and  O4_14 
REMARK    9  A    between atoms: N2_17  and  O6_18 
REMARK   10  A    between atoms: O6_18  and  C11_19 
REMARK       I    between atoms: C11_19  and  N3_21 
REMARK   11  A    between atoms: N3_21  and  C12_22 
ROOT
ATOM      1  C5  NP6 d          -3.545 -11.710  10.659  0.00  0.00     0.105 C 
ATOM      2  C6  NP6 d          -2.013 -11.737  10.802  0.00  0.00     0.089 C 
ATOM      3  C7  NP6 d          -1.458 -13.109  10.452  0.00  0.00     0.090 C 
ATOM      4  C8  NP6 d          -1.783 -13.390   8.986  0.00  0.00     0.094 C 
ATOM      5  O5  NP6 d          -3.189 -13.418   8.783  0.00  0.00    -0.324 OA
ATOM      6  C10 NP6 d          -4.027 -12.801   9.679  0.00  0.00     0.194 C 
ATOM      7  N2  NP6 d          -5.296 -13.208   9.691  0.00  0.00    -0.100 NA
ATOM      8  H9  NP6 d          -3.970 -11.951  11.645  0.00  0.00     0.090 H 
ATOM      9  H10 NP6 d          -1.579 -10.996  10.115  0.00  0.00     0.090 H 
ATOM     10  H12 NP6 d          -1.910 -13.874  11.100  0.00  0.00     0.091 H 
ATOM     11  H14 NP6 d          -1.358 -12.560   8.403  0.00  0.00     0.091 H 
ENDROOT
BRANCH   1  12
ATOM     12  N1  NP6 d          -4.034 -10.347  10.294  0.00  0.00    -0.346 N 
ATOM     13  C4  NP6 d          -5.225  -9.827  10.619  0.00  0.00     0.218 C 
ATOM     14  O1  NP6 d          -6.092 -10.414  11.274  0.00  0.00    -0.274 OA
ATOM     15  H8  NP6 d          -3.417  -9.771   9.759  0.00  0.00     0.163 HD
BRANCH  13  16
ATOM     16  C3  NP6 d          -5.472  -8.396  10.090  0.00  0.00     0.009 C 
ATOM     17  H6  NP6 d          -5.155  -7.663  10.846  0.00  0.00     0.047 H 
ATOM     18  H7  NP6 d          -4.897  -8.240   9.165  0.00  0.00     0.047 H 
BRANCH  16  19
ATOM     19  C1  NP6 d          -6.955  -8.225   9.803  0.00  0.00    -0.061 C 
ATOM     20  H4  NP6 d          -7.070  -7.646   8.875  0.00  0.00     0.033 H 
ATOM     21  H5  NP6 d          -7.406  -9.220   9.672  0.00  0.00     0.033 H 
BRANCH  19  22
ATOM     22  C2  NP6 d          -7.688  -7.500  10.925  0.00  0.00    -0.076 C 
ATOM     23  H1  NP6 d          -8.327  -8.214  11.466  0.00  0.00     0.027 H 
ATOM     24  H2  NP6 d          -8.311  -6.699  10.499  0.00  0.00     0.027 H 
ATOM     25  H3  NP6 d          -6.956  -7.064  11.620  0.00  0.00     0.027 H 
ENDBRANCH  19  22
ENDBRANCH  16  19
ENDBRANCH  13  16
ENDBRANCH   1  12
BRANCH   7  26
ATOM     26  O6  NP6 d          -5.684 -14.217   8.840  0.00  0.00    -0.153 OA
BRANCH  26  27
ATOM     27  C11 NP6 d          -6.391 -13.779   7.733  0.00  0.00     0.389 C 
ATOM     28  O7  NP6 d          -5.853 -13.786   6.620  0.00  0.00    -0.236 OA
ATOM     29  N3  NP6 d          -7.669 -13.375   7.934  0.00  0.00    -0.301 N 
ATOM     30  H18 NP6 d          -8.013 -13.502   8.865  0.00  0.00     0.171 HD
BRANCH  29  31
ATOM     31  C12 NP6 d          -8.554 -12.825   7.066  0.00  0.00     0.036 A 
ATOM     32  C13 NP6 d          -9.322 -13.690   6.277  0.00  0.00    -0.057 A 
ATOM     33  C14 NP6 d         -10.273 -13.204   5.372  0.00  0.00    -0.081 A 
ATOM     34  H19 NP6 d          -9.176 -14.761   6.369  0.00  0.00     0.086 H 
ATOM     35  C15 NP6 d         -10.476 -11.825   5.252  0.00  0.00    -0.083 A 
ATOM     36  H20 NP6 d         -10.850 -13.893   4.767  0.00  0.00     0.083 H 
ATOM     37  C16 NP6 d          -9.733 -10.951   6.048  0.00  0.00    -0.081 A 
ATOM     38  H21 NP6 d         -11.203 -11.438   4.546  0.00  0.00     0.083 H 
ATOM     39  C17 NP6 d          -8.781 -11.447   6.949  0.00  0.00    -0.057 A 
ATOM     40  H22 NP6 d          -9.895  -9.882   5.970  0.00  0.00     0.083 H 
ATOM     41  H23 NP6 d          -8.214 -10.756   7.563  0.00  0.00     0.086 H 
ENDBRANCH  29  31
ENDBRANCH  26  27
ENDBRANCH   7  26
BRANCH   2  42
ATOM     42  O2  NP6 d          -1.656 -11.399  12.132  0.00  0.00    -0.390 OA
ATOM     43  H11 NP6 d          -2.027 -10.553  12.353  0.00  0.00     0.210 HD
ENDBRANCH   2  42
BRANCH   4  44
ATOM     44  C9  NP6 d          -1.228 -14.709   8.396  0.00  0.00     0.044 C 
ATOM     45  H15 NP6 d          -1.787 -14.959   7.482  0.00  0.00     0.078 H 
ATOM     46  H16 NP6 d          -1.354 -15.515   9.133  0.00  0.00     0.078 H 
BRANCH  44  47
ATOM     47  O4  NP6 d           0.152 -14.581   8.077  0.00  0.00    -0.398 OA
ATOM     48  H17 NP6 d           0.290 -14.826   7.169  0.00  0.00     0.209 HD
ENDBRANCH  44  47
ENDBRANCH   4  44
BRANCH   3  49
ATOM     49  O3  NP6 d          -0.031 -13.125  10.595  0.00  0.00    -0.390 OA
ATOM     50  H13 NP6 d           0.306 -12.243  10.499  0.00  0.00     0.210 HD
ENDBRANCH   3  49
TORSDOF 11
ENDMDL
