MODEL 1
REMARK VINA RESULT:      -8.0      0.000      0.000
REMARK  16 active torsions:
REMARK  status: ('A' for Active; 'I' for Inactive)
REMARK    1  A    between atoms: S8_1  and  C35_3 
REMARK    2  A    between atoms: N11_14  and  S8_1 
REMARK    3  A    between atoms: O9_5  and  C10_4 
REMARK    4  A    between atoms: C5_6  and  O9_5 
REMARK    5  A    between atoms: C45_25  and  C13_13 
REMARK       I    between atoms: C13_13  and  N15_30 
REMARK    6  A    between atoms: C45_25  and  N11_14 
REMARK    7  A    between atoms: C15_16  and  C31_17 
REMARK    8  A    between atoms: N14_29  and  C15_16 
REMARK    9  A    between atoms: C12_26  and  C45_25 
REMARK   10  A    between atoms: C46_27  and  C12_26 
REMARK       I    between atoms: C46_27  and  N14_29 
REMARK   11  A    between atoms: C16_31  and  C17_32 
REMARK       I    between atoms: C17_32  and  N19_37 
REMARK   12  A    between atoms: N19_37  and  C20_38 
REMARK   13  A    between atoms: C20_38  and  C21_39 
REMARK   14  A    between atoms: C24_42  and  C27_43 
REMARK   15  A    between atoms: C27_43  and  N29_44 
REMARK   16  A    between atoms: C27_43  and  N28_45 
ROOT
ATOM      1  C31 MOL d          21.066 -17.151  22.781  0.00  0.00    -0.040 A 
ATOM      2  C32 MOL d          21.924 -16.431  23.486  0.00  0.00    -0.074 A 
ATOM      3  C33 MOL d          22.206 -16.839  24.724  0.00  0.00    -0.062 A 
ATOM      4  C44 MOL d          21.651 -17.914  25.331  0.00  0.00     0.044 A 
ATOM      5  C8  MOL d          20.761 -18.669  24.613  0.00  0.00    -0.062 A 
ATOM      6  C9  MOL d          20.495 -18.188  23.423  0.00  0.00    -0.074 A 
ATOM      7  C40 MOL d          22.013 -18.206  26.448  0.00  0.00     0.099 C 
ATOM      8  N63 MOL d          22.418 -18.567  27.409  0.00  0.00    -0.191 NA
ATOM      9  H10 MOL d          22.381 -15.540  23.071  0.00  0.00     0.084 H 
ATOM     10  H11 MOL d          22.934 -16.267  25.287  0.00  0.00     0.085 H 
ATOM     11  H12 MOL d          20.317 -19.580  24.995  0.00  0.00     0.085 H 
ATOM     12  H13 MOL d          19.706 -18.696  22.879  0.00  0.00     0.084 H 
ENDROOT
BRANCH   1  13
ATOM     13  C15 MOL d          20.729 -16.763  21.447  0.00  0.00     0.019 C 
ATOM     14  H8  MOL d          20.362 -17.657  20.921  0.00  0.00     0.071 H 
ATOM     15  H9  MOL d          21.647 -16.403  20.962  0.00  0.00     0.071 H 
BRANCH  13  16
ATOM     16  N14 MOL d          19.689 -15.693  21.307  0.00  0.00    -0.357 N 
ATOM     17  C46 MOL d          19.829 -14.386  21.152  0.00  0.00     0.220 C 
ATOM     18  O22 MOL d          20.819 -13.824  21.201  0.00  0.00    -0.274 OA
ATOM     19  H17 MOL d          18.743 -16.016  21.335  0.00  0.00     0.162 HD
BRANCH  17  20
ATOM     20  C12 MOL d          18.543 -13.491  21.053  0.00  0.00     0.037 C 
ATOM     21  H15 MOL d          18.212 -13.252  22.074  0.00  0.00     0.051 H 
ATOM     22  H16 MOL d          18.813 -12.562  20.528  0.00  0.00     0.051 H 
BRANCH  20  23
ATOM     23  C45 MOL d          17.309 -14.167  20.271  0.00  0.00     0.105 C 
ATOM     24  H14 MOL d          17.687 -14.961  19.610  0.00  0.00     0.089 H 
BRANCH  23  25
ATOM     25  C13 MOL d          16.411 -14.778  21.413  0.00  0.00     0.244 C 
ATOM     26  O14 MOL d          16.499 -14.261  22.474  0.00  0.00    -0.271 OA
ATOM     27  N15 MOL d          15.678 -15.771  21.097  0.00  0.00    -0.337 N 
ATOM     28  C16 MOL d          15.078 -16.527  22.109  0.00  0.00     0.091 C 
ATOM     29  C2  MOL d          15.619 -16.452  19.806  0.00  0.00    -0.001 C 
ATOM     30  C34 MOL d          14.518 -17.766  21.431  0.00  0.00    -0.036 C 
ATOM     31  H18 MOL d          14.336 -15.965  22.692  0.00  0.00     0.087 H 
ATOM     32  C1  MOL d          14.724 -17.609  19.960  0.00  0.00    -0.048 C 
ATOM     33  H19 MOL d          13.445 -17.861  21.652  0.00  0.00     0.036 H 
ATOM     34  H20 MOL d          15.047 -18.661  21.791  0.00  0.00     0.036 H 
ATOM     35  H21 MOL d          13.764 -17.422  19.456  0.00  0.00     0.035 H 
ATOM     36  H22 MOL d          15.189 -18.513  19.539  0.00  0.00     0.035 H 
ATOM     37  H23 MOL d          16.623 -16.790  19.514  0.00  0.00     0.064 H 
ATOM     38  H24 MOL d          15.224 -15.770  19.039  0.00  0.00     0.064 H 
BRANCH  28  39
ATOM     39  C17 MOL d          16.267 -17.101  22.969  0.00  0.00     0.240 C 
ATOM     40  O18 MOL d          17.079 -17.852  22.560  0.00  0.00    -0.271 OA
ATOM     41  N19 MOL d          16.241 -16.757  24.294  0.00  0.00    -0.355 N 
ATOM     42  H25 MOL d          15.483 -16.191  24.615  0.00  0.00     0.162 HD
BRANCH  41  43
ATOM     43  C20 MOL d          17.226 -17.156  25.244  0.00  0.00     0.019 C 
ATOM     44  H26 MOL d          17.740 -18.063  24.895  0.00  0.00     0.071 H 
ATOM     45  H27 MOL d          16.752 -17.353  26.217  0.00  0.00     0.071 H 
BRANCH  43  46
ATOM     46  C21 MOL d          18.200 -16.031  25.369  0.00  0.00    -0.040 A 
ATOM     47  C26 MOL d          18.989 -15.831  26.461  0.00  0.00    -0.074 A 
ATOM     48  C25 MOL d          19.829 -14.852  26.591  0.00  0.00    -0.069 A 
ATOM     49  H28 MOL d          18.909 -16.538  27.278  0.00  0.00     0.084 H 
ATOM     50  C24 MOL d          19.998 -13.915  25.679  0.00  0.00     0.007 A 
ATOM     51  H29 MOL d          20.422 -14.801  27.496  0.00  0.00     0.085 H 
ATOM     52  C23 MOL d          19.210 -14.030  24.603  0.00  0.00    -0.069 A 
ATOM     53  C22 MOL d          18.364 -15.062  24.491  0.00  0.00    -0.074 A 
ATOM     54  H34 MOL d          19.258 -13.283  23.819  0.00  0.00     0.085 H 
ATOM     55  H35 MOL d          17.758 -15.105  23.594  0.00  0.00     0.084 H 
BRANCH  50  56
ATOM     56  C27 MOL d          20.921 -12.830  25.795  0.00  0.00     0.102 C 
BRANCH  56  57
ATOM     57  N29 MOL d          20.828 -12.054  26.673  0.00  0.00    -0.385 N 
ATOM     58  H30 MOL d          21.545 -12.024  27.412  0.00  0.00     0.157 HD
ATOM     59  H31 MOL d          20.030 -11.403  26.704  0.00  0.00     0.157 HD
ENDBRANCH  56  57
BRANCH  56  60
ATOM     60  N28 MOL d          21.896 -12.713  24.980  0.00  0.00    -0.385 N 
ATOM     61  H32 MOL d          22.351 -13.554  24.597  0.00  0.00     0.157 HD
ATOM     62  H33 MOL d          22.228 -11.778  24.704  0.00  0.00     0.157 HD
ENDBRANCH  56  60
ENDBRANCH  50  56
ENDBRANCH  43  46
ENDBRANCH  41  43
ENDBRANCH  28  39
ENDBRANCH  23  25
BRANCH  23  63
ATOM     63  N11 MOL d          16.576 -13.313  19.533  0.00  0.00    -0.301 N 
ATOM     64  H7  MOL d          15.951 -13.664  18.836  0.00  0.00     0.173 HD
BRANCH  63  65
ATOM     65  S8  MOL d          16.702 -11.763  19.769  0.00  0.00     0.259 S 
ATOM     66  O1  MOL d          16.482 -11.410  18.642  0.00  0.00    -0.201 OA
ATOM     67  O10 MOL d          17.578 -11.458  20.424  0.00  0.00    -0.201 OA
BRANCH  65  68
ATOM     68  C35 MOL d          15.250 -11.275  20.569  0.00  0.00     0.081 A 
ATOM     69  C7  MOL d          14.797  -9.982  20.575  0.00  0.00    -0.058 A 
ATOM     70  C6  MOL d          13.596  -9.623  21.192  0.00  0.00    -0.048 A 
ATOM     71  H4  MOL d          15.389  -9.215  20.088  0.00  0.00     0.086 H 
ATOM     72  C5  MOL d          12.807 -10.605  21.742  0.00  0.00     0.089 A 
ATOM     73  H6  MOL d          13.289  -8.584  21.235  0.00  0.00     0.087 H 
ATOM     74  C4  MOL d          13.253 -11.871  21.654  0.00  0.00     0.068 A 
ATOM     75 CL   MOL d          12.194 -13.125  22.288  0.00  0.00    -0.081 Cl
ATOM     76  C3  MOL d          14.385 -12.239  21.125  0.00  0.00    -0.037 A 
ATOM     77  H5  MOL d          14.662 -13.287  21.113  0.00  0.00     0.088 H 
BRANCH  72  78
ATOM     78  O9  MOL d          11.683 -10.316  22.415  0.00  0.00    -0.354 OA
BRANCH  78  79
ATOM     79  C10 MOL d          11.734  -9.470  23.470  0.00  0.00     0.010 C 
ATOM     80  H1  MOL d          10.983  -8.676  23.340  0.00  0.00     0.066 H 
ATOM     81  H2  MOL d          12.737  -9.020  23.532  0.00  0.00     0.066 H 
ATOM     82  H3  MOL d          11.523 -10.024  24.397  0.00  0.00     0.066 H 
ENDBRANCH  78  79
ENDBRANCH  72  78
ENDBRANCH  65  68
ENDBRANCH  63  65
ENDBRANCH  23  63
ENDBRANCH  20  23
ENDBRANCH  17  20
ENDBRANCH  13  16
ENDBRANCH   1  13
TORSDOF 16
ENDMDL
MODEL 2
REMARK VINA RESULT:      -7.1      3.108      7.663
REMARK  16 active torsions:
REMARK  status: ('A' for Active; 'I' for Inactive)
REMARK    1  A    between atoms: S8_1  and  C35_3 
REMARK    2  A    between atoms: N11_14  and  S8_1 
REMARK    3  A    between atoms: O9_5  and  C10_4 
REMARK    4  A    between atoms: C5_6  and  O9_5 
REMARK    5  A    between atoms: C45_25  and  C13_13 
REMARK       I    between atoms: C13_13  and  N15_30 
REMARK    6  A    between atoms: C45_25  and  N11_14 
REMARK    7  A    between atoms: C15_16  and  C31_17 
REMARK    8  A    between atoms: N14_29  and  C15_16 
REMARK    9  A    between atoms: C12_26  and  C45_25 
REMARK   10  A    between atoms: C46_27  and  C12_26 
REMARK       I    between atoms: C46_27  and  N14_29 
REMARK   11  A    between atoms: C16_31  and  C17_32 
REMARK       I    between atoms: C17_32  and  N19_37 
REMARK   12  A    between atoms: N19_37  and  C20_38 
REMARK   13  A    between atoms: C20_38  and  C21_39 
REMARK   14  A    between atoms: C24_42  and  C27_43 
REMARK   15  A    between atoms: C27_43  and  N29_44 
REMARK   16  A    between atoms: C27_43  and  N28_45 
ROOT
ATOM      1  C31 MOL d          13.687 -11.788  20.896  0.00  0.00    -0.040 A 
ATOM      2  C32 MOL d          13.902 -10.488  21.020  0.00  0.00    -0.074 A 
ATOM      3  C33 MOL d          13.161  -9.818  21.904  0.00  0.00    -0.062 A 
ATOM      4  C44 MOL d          12.176 -10.359  22.658  0.00  0.00     0.044 A 
ATOM      5  C8  MOL d          11.941 -11.704  22.539  0.00  0.00    -0.062 A 
ATOM      6  C9  MOL d          12.672 -12.292  21.623  0.00  0.00    -0.074 A 
ATOM      7  C40 MOL d          11.594  -9.656  23.451  0.00  0.00     0.099 C 
ATOM      8  N63 MOL d          11.140  -9.070  24.270  0.00  0.00    -0.191 NA
ATOM      9  H10 MOL d          14.655  -9.985  20.424  0.00  0.00     0.084 H 
ATOM     10  H11 MOL d          13.363  -8.760  22.028  0.00  0.00     0.085 H 
ATOM     11  H12 MOL d          11.218 -12.233  23.146  0.00  0.00     0.085 H 
ATOM     12  H13 MOL d          12.425 -13.329  21.423  0.00  0.00     0.084 H 
ENDROOT
BRANCH   1  13
ATOM     13  C15 MOL d          14.454 -12.556  19.967  0.00  0.00     0.019 C 
ATOM     14  H8  MOL d          15.006 -11.853  19.326  0.00  0.00     0.071 H 
ATOM     15  H9  MOL d          13.751 -13.137  19.352  0.00  0.00     0.071 H 
BRANCH  13  16
ATOM     16  N14 MOL d          15.447 -13.514  20.554  0.00  0.00    -0.357 N 
ATOM     17  C46 MOL d          16.178 -14.448  19.966  0.00  0.00     0.220 C 
ATOM     18  O22 MOL d          16.091 -14.754  18.872  0.00  0.00    -0.274 OA
ATOM     19  H17 MOL d          15.577 -13.436  21.542  0.00  0.00     0.162 HD
BRANCH  17  20
ATOM     20  C12 MOL d          17.132 -15.331  20.845  0.00  0.00     0.037 C 
ATOM     21  H15 MOL d          17.514 -16.150  20.219  0.00  0.00     0.051 H 
ATOM     22  H16 MOL d          17.970 -14.702  21.179  0.00  0.00     0.051 H 
BRANCH  20  23
ATOM     23  C45 MOL d          16.442 -15.977  22.148  0.00  0.00     0.105 C 
ATOM     24  H14 MOL d          15.382 -15.687  22.183  0.00  0.00     0.089 H 
BRANCH  23  25
ATOM     25  C13 MOL d          16.583 -17.533  21.934  0.00  0.00     0.244 C 
ATOM     26  O14 MOL d          17.540 -18.037  22.413  0.00  0.00    -0.271 OA
ATOM     27  N15 MOL d          15.662 -18.105  21.264  0.00  0.00    -0.337 N 
ATOM     28  C16 MOL d          15.863 -19.410  20.802  0.00  0.00     0.091 C 
ATOM     29  C2  MOL d          14.516 -17.473  20.615  0.00  0.00    -0.001 C 
ATOM     30  C34 MOL d          14.729 -19.691  19.832  0.00  0.00    -0.036 C 
ATOM     31  H18 MOL d          15.951 -20.150  21.611  0.00  0.00     0.087 H 
ATOM     32  C1  MOL d          13.805 -18.518  19.864  0.00  0.00    -0.048 C 
ATOM     33  H19 MOL d          14.191 -20.601  20.136  0.00  0.00     0.036 H 
ATOM     34  H20 MOL d          15.130 -19.825  18.816  0.00  0.00     0.036 H 
ATOM     35  H21 MOL d          12.866 -18.783  20.371  0.00  0.00     0.035 H 
ATOM     36  H22 MOL d          13.585 -18.174  18.842  0.00  0.00     0.035 H 
ATOM     37  H23 MOL d          14.860 -16.685  19.930  0.00  0.00     0.064 H 
ATOM     38  H24 MOL d          13.850 -17.034  21.373  0.00  0.00     0.064 H 
BRANCH  28  39
ATOM     39  C17 MOL d          17.125 -19.336  19.862  0.00  0.00     0.240 C 
ATOM     40  O18 MOL d          17.148 -18.775  18.826  0.00  0.00    -0.271 OA
ATOM     41  N19 MOL d          18.197 -20.081  20.274  0.00  0.00    -0.355 N 
ATOM     42  H25 MOL d          18.101 -20.614  21.114  0.00  0.00     0.162 HD
BRANCH  41  43
ATOM     43  C20 MOL d          19.441 -20.146  19.580  0.00  0.00     0.019 C 
ATOM     44  H26 MOL d          19.396 -19.532  18.669  0.00  0.00     0.071 H 
ATOM     45  H27 MOL d          19.668 -21.188  19.310  0.00  0.00     0.071 H 
BRANCH  43  46
ATOM     46  C21 MOL d          20.489 -19.617  20.503  0.00  0.00    -0.040 A 
ATOM     47  C26 MOL d          21.722 -19.208  20.093  0.00  0.00    -0.074 A 
ATOM     48  C25 MOL d          22.647 -18.761  20.882  0.00  0.00    -0.069 A 
ATOM     49  H28 MOL d          21.945 -19.261  19.034  0.00  0.00     0.084 H 
ATOM     50  C24 MOL d          22.506 -18.672  22.190  0.00  0.00     0.007 A 
ATOM     51  H29 MOL d          23.586 -18.443  20.445  0.00  0.00     0.085 H 
ATOM     52  C23 MOL d          21.331 -19.110  22.659  0.00  0.00    -0.069 A 
ATOM     53  C22 MOL d          20.388 -19.551  21.815  0.00  0.00    -0.074 A 
ATOM     54  H34 MOL d          21.142 -19.107  23.726  0.00  0.00     0.085 H 
ATOM     55  H35 MOL d          19.455 -19.886  22.253  0.00  0.00     0.084 H 
BRANCH  50  56
ATOM     56  C27 MOL d          23.508 -18.177  23.081  0.00  0.00     0.102 C 
BRANCH  56  57
ATOM     57  N29 MOL d          23.731 -18.724  24.097  0.00  0.00    -0.385 N 
ATOM     58  H30 MOL d          23.390 -19.683  24.252  0.00  0.00     0.157 HD
ATOM     59  H31 MOL d          24.269 -18.243  24.833  0.00  0.00     0.157 HD
ENDBRANCH  56  57
BRANCH  56  60
ATOM     60  N28 MOL d          24.217 -17.164  22.766  0.00  0.00    -0.385 N 
ATOM     61  H32 MOL d          25.126 -17.296  22.300  0.00  0.00     0.157 HD
ATOM     62  H33 MOL d          23.881 -16.214  22.978  0.00  0.00     0.157 HD
ENDBRANCH  56  60
ENDBRANCH  50  56
ENDBRANCH  43  46
ENDBRANCH  41  43
ENDBRANCH  28  39
ENDBRANCH  23  25
BRANCH  23  63
ATOM     63  N11 MOL d          17.016 -15.634  23.316  0.00  0.00    -0.301 N 
ATOM     64  H7  MOL d          17.108 -16.311  24.046  0.00  0.00     0.173 HD
BRANCH  63  65
ATOM     65  S8  MOL d          17.540 -14.167  23.531  0.00  0.00     0.259 S 
ATOM     66  O1  MOL d          17.292 -14.077  24.704  0.00  0.00    -0.201 OA
ATOM     67  O10 MOL d          17.247 -13.438  22.711  0.00  0.00    -0.201 OA
BRANCH  65  68
ATOM     68  C35 MOL d          19.265 -14.267  23.556  0.00  0.00     0.081 A 
ATOM     69  C7  MOL d          20.074 -13.451  22.811  0.00  0.00    -0.058 A 
ATOM     70  C6  MOL d          21.467 -13.524  22.885  0.00  0.00    -0.048 A 
ATOM     71  H4  MOL d          19.619 -12.727  22.144  0.00  0.00     0.086 H 
ATOM     72  C5  MOL d          22.045 -14.387  23.785  0.00  0.00     0.089 A 
ATOM     73  H6  MOL d          22.085 -12.908  22.241  0.00  0.00     0.087 H 
ATOM     74  C4  MOL d          21.216 -15.121  24.549  0.00  0.00     0.068 A 
ATOM     75 CL   MOL d          21.969 -16.159  25.754  0.00  0.00    -0.081 Cl
ATOM     76  C3  MOL d          19.916 -15.111  24.480  0.00  0.00    -0.037 A 
ATOM     77  H5  MOL d          19.333 -15.752  25.132  0.00  0.00     0.088 H 
BRANCH  72  78
ATOM     78  O9  MOL d          23.374 -14.559  23.849  0.00  0.00    -0.354 OA
BRANCH  78  79
ATOM     79  C10 MOL d          24.174 -13.497  24.102  0.00  0.00     0.010 C 
ATOM     80  H1  MOL d          25.102 -13.590  23.519  0.00  0.00     0.066 H 
ATOM     81  H2  MOL d          24.417 -13.469  25.175  0.00  0.00     0.066 H 
ATOM     82  H3  MOL d          23.655 -12.570  23.819  0.00  0.00     0.066 H 
ENDBRANCH  78  79
ENDBRANCH  72  78
ENDBRANCH  65  68
ENDBRANCH  63  65
ENDBRANCH  23  63
ENDBRANCH  20  23
ENDBRANCH  17  20
ENDBRANCH  13  16
ENDBRANCH   1  13
TORSDOF 16
ENDMDL
MODEL 3
REMARK VINA RESULT:      -5.4      1.868      2.272
REMARK  16 active torsions:
REMARK  status: ('A' for Active; 'I' for Inactive)
REMARK    1  A    between atoms: S8_1  and  C35_3 
REMARK    2  A    between atoms: N11_14  and  S8_1 
REMARK    3  A    between atoms: O9_5  and  C10_4 
REMARK    4  A    between atoms: C5_6  and  O9_5 
REMARK    5  A    between atoms: C45_25  and  C13_13 
REMARK       I    between atoms: C13_13  and  N15_30 
REMARK    6  A    between atoms: C45_25  and  N11_14 
REMARK    7  A    between atoms: C15_16  and  C31_17 
REMARK    8  A    between atoms: N14_29  and  C15_16 
REMARK    9  A    between atoms: C12_26  and  C45_25 
REMARK   10  A    between atoms: C46_27  and  C12_26 
REMARK       I    between atoms: C46_27  and  N14_29 
REMARK   11  A    between atoms: C16_31  and  C17_32 
REMARK       I    between atoms: C17_32  and  N19_37 
REMARK   12  A    between atoms: N19_37  and  C20_38 
REMARK   13  A    between atoms: C20_38  and  C21_39 
REMARK   14  A    between atoms: C24_42  and  C27_43 
REMARK   15  A    between atoms: C27_43  and  N29_44 
REMARK   16  A    between atoms: C27_43  and  N28_45 
ROOT
ATOM      1  C31 MOL d          20.519 -19.800  22.465  0.00  0.00    -0.040 A 
ATOM      2  C32 MOL d          21.786 -19.899  22.097  0.00  0.00    -0.074 A 
ATOM      3  C33 MOL d          22.702 -20.043  23.057  0.00  0.00    -0.062 A 
ATOM      4  C44 MOL d          22.438 -20.057  24.384  0.00  0.00     0.044 A 
ATOM      5  C8  MOL d          21.130 -19.956  24.780  0.00  0.00    -0.062 A 
ATOM      6  C9  MOL d          20.288 -19.772  23.792  0.00  0.00    -0.074 A 
ATOM      7  C40 MOL d          23.350 -20.229  25.160  0.00  0.00     0.099 C 
ATOM      8  N63 MOL d          24.140 -20.513  25.876  0.00  0.00    -0.191 NA
ATOM      9  H10 MOL d          22.070 -19.863  21.052  0.00  0.00     0.084 H 
ATOM     10  H11 MOL d          23.735 -20.157  22.750  0.00  0.00     0.085 H 
ATOM     11  H12 MOL d          20.819 -20.021  25.815  0.00  0.00     0.085 H 
ATOM     12  H13 MOL d          19.264 -19.569  24.082  0.00  0.00     0.084 H 
ENDROOT
BRANCH   1  13
ATOM     13  C15 MOL d          19.495 -19.648  21.480  0.00  0.00     0.019 C 
ATOM     14  H8  MOL d          18.732 -20.417  21.669  0.00  0.00     0.071 H 
ATOM     15  H9  MOL d          19.951 -19.819  20.494  0.00  0.00     0.071 H 
BRANCH  13  16
ATOM     16  N14 MOL d          18.803 -18.318  21.438  0.00  0.00    -0.357 N 
ATOM     17  C46 MOL d          19.301 -17.106  21.256  0.00  0.00     0.220 C 
ATOM     18  O22 MOL d          20.411 -16.857  21.195  0.00  0.00    -0.274 OA
ATOM     19  H17 MOL d          17.812 -18.353  21.568  0.00  0.00     0.162 HD
BRANCH  17  20
ATOM     20  C12 MOL d          18.328 -15.874  21.281  0.00  0.00     0.037 C 
ATOM     21  H15 MOL d          18.272 -15.504  22.315  0.00  0.00     0.051 H 
ATOM     22  H16 MOL d          18.751 -15.091  20.633  0.00  0.00     0.051 H 
BRANCH  20  23
ATOM     23  C45 MOL d          16.831 -16.186  20.778  0.00  0.00     0.105 C 
ATOM     24  H14 MOL d          16.851 -17.027  20.071  0.00  0.00     0.089 H 
BRANCH  23  25
ATOM     25  C13 MOL d          16.054 -16.585  22.091  0.00  0.00     0.244 C 
ATOM     26  O14 MOL d          16.284 -15.929  23.048  0.00  0.00    -0.271 OA
ATOM     27  N15 MOL d          15.256 -17.574  22.005  0.00  0.00    -0.337 N 
ATOM     28  C16 MOL d          14.755 -18.151  23.177  0.00  0.00     0.091 C 
ATOM     29  C2  MOL d          15.023 -18.426  20.842  0.00  0.00    -0.001 C 
ATOM     30  C34 MOL d          14.078 -19.443  22.753  0.00  0.00    -0.036 C 
ATOM     31  H18 MOL d          14.106 -17.476  23.752  0.00  0.00     0.087 H 
ATOM     32  C1  MOL d          14.114 -19.504  21.261  0.00  0.00    -0.048 C 
ATOM     33  H19 MOL d          13.036 -19.452  23.104  0.00  0.00     0.036 H 
ATOM     34  H20 MOL d          14.615 -20.304  23.177  0.00  0.00     0.036 H 
ATOM     35  H21 MOL d          13.109 -19.342  20.846  0.00  0.00     0.035 H 
ATOM     36  H22 MOL d          14.496 -20.481  20.926  0.00  0.00     0.035 H 
ATOM     37  H23 MOL d          15.974 -18.852  20.491  0.00  0.00     0.064 H 
ATOM     38  H24 MOL d          14.563 -17.840  20.033  0.00  0.00     0.064 H 
BRANCH  28  39
ATOM     39  C17 MOL d          16.018 -18.657  23.973  0.00  0.00     0.240 C 
ATOM     40  O18 MOL d          16.658 -19.599  23.670  0.00  0.00    -0.271 OA
ATOM     41  N19 MOL d          16.272 -17.988  25.140  0.00  0.00    -0.355 N 
ATOM     42  H25 MOL d          15.648 -17.252  25.403  0.00  0.00     0.162 HD
BRANCH  41  43
ATOM     43  C20 MOL d          17.369 -18.273  26.003  0.00  0.00     0.019 C 
ATOM     44  H26 MOL d          17.884 -19.186  25.669  0.00  0.00     0.071 H 
ATOM     45  H27 MOL d          17.011 -18.411  27.034  0.00  0.00     0.071 H 
BRANCH  43  46
ATOM     46  C21 MOL d          18.299 -17.107  25.936  0.00  0.00    -0.040 A 
ATOM     47  C26 MOL d          18.251 -16.050  26.794  0.00  0.00    -0.074 A 
ATOM     48  C25 MOL d          19.041 -15.024  26.740  0.00  0.00    -0.069 A 
ATOM     49  H28 MOL d          17.501 -16.068  27.576  0.00  0.00     0.084 H 
ATOM     50  C24 MOL d          19.976 -14.875  25.823  0.00  0.00     0.007 A 
ATOM     51  H29 MOL d          18.927 -14.248  27.488  0.00  0.00     0.085 H 
ATOM     52  C23 MOL d          20.036 -15.859  24.918  0.00  0.00    -0.069 A 
ATOM     53  C22 MOL d          19.217 -16.915  25.010  0.00  0.00    -0.074 A 
ATOM     54  H34 MOL d          20.752 -15.801  24.106  0.00  0.00     0.085 H 
ATOM     55  H35 MOL d          19.318 -17.683  24.253  0.00  0.00     0.084 H 
BRANCH  50  56
ATOM     56  C27 MOL d          20.863 -13.757  25.745  0.00  0.00     0.102 C 
BRANCH  56  57
ATOM     57  N29 MOL d          22.027 -13.915  25.706  0.00  0.00    -0.385 N 
ATOM     58  H30 MOL d          22.651 -13.276  26.219  0.00  0.00     0.157 HD
ATOM     59  H31 MOL d          22.423 -14.692  25.158  0.00  0.00     0.157 HD
ENDBRANCH  56  57
BRANCH  56  60
ATOM     60  N28 MOL d          20.407 -12.568  25.660  0.00  0.00    -0.385 N 
ATOM     61  H32 MOL d          19.697 -12.337  24.950  0.00  0.00     0.157 HD
ATOM     62  H33 MOL d          20.748 -11.838  26.303  0.00  0.00     0.157 HD
ENDBRANCH  56  60
ENDBRANCH  50  56
ENDBRANCH  43  46
ENDBRANCH  41  43
ENDBRANCH  28  39
ENDBRANCH  23  25
BRANCH  23  63
ATOM     63  N11 MOL d          16.210 -15.149  20.188  0.00  0.00    -0.301 N 
ATOM     64  H7  MOL d          15.440 -15.312  19.570  0.00  0.00     0.173 HD
BRANCH  63  65
ATOM     65  S8  MOL d          16.694 -13.679  20.471  0.00  0.00     0.259 S 
ATOM     66  O1  MOL d          16.865 -13.343  19.329  0.00  0.00    -0.201 OA
ATOM     67  O10 MOL d          17.429 -13.584  21.330  0.00  0.00    -0.201 OA
BRANCH  65  68
ATOM     68  C35 MOL d          15.281 -12.774  20.883  0.00  0.00     0.081 A 
ATOM     69  C7  MOL d          14.243 -13.294  21.608  0.00  0.00    -0.058 A 
ATOM     70  C6  MOL d          13.132 -12.525  21.966  0.00  0.00    -0.048 A 
ATOM     71  H4  MOL d          14.284 -14.333  21.914  0.00  0.00     0.086 H 
ATOM     72  C5  MOL d          13.112 -11.189  21.645  0.00  0.00     0.089 A 
ATOM     73  H6  MOL d          12.297 -12.977  22.489  0.00  0.00     0.087 H 
ATOM     74  C4  MOL d          14.182 -10.700  20.993  0.00  0.00     0.068 A 
ATOM     75 CL   MOL d          14.180  -8.971  20.664  0.00  0.00    -0.081 Cl
ATOM     76  C3  MOL d          15.215 -11.392  20.607  0.00  0.00    -0.037 A 
ATOM     77  H5  MOL d          16.025 -10.907  20.075  0.00  0.00     0.088 H 
BRANCH  72  78
ATOM     78  O9  MOL d          12.043 -10.417  21.891  0.00  0.00    -0.354 OA
BRANCH  78  79
ATOM     79  C10 MOL d          11.994  -9.685  23.029  0.00  0.00     0.010 C 
ATOM     80  H1  MOL d          11.138  -8.996  22.985  0.00  0.00     0.066 H 
ATOM     81  H2  MOL d          12.925  -9.108  23.135  0.00  0.00     0.066 H 
ATOM     82  H3  MOL d          11.879 -10.357  23.893  0.00  0.00     0.066 H 
ENDBRANCH  78  79
ENDBRANCH  72  78
ENDBRANCH  65  68
ENDBRANCH  63  65
ENDBRANCH  23  63
ENDBRANCH  20  23
ENDBRANCH  17  20
ENDBRANCH  13  16
ENDBRANCH   1  13
TORSDOF 16
ENDMDL
MODEL 4
REMARK VINA RESULT:      -5.4      3.359      8.249
REMARK  16 active torsions:
REMARK  status: ('A' for Active; 'I' for Inactive)
REMARK    1  A    between atoms: S8_1  and  C35_3 
REMARK    2  A    between atoms: N11_14  and  S8_1 
REMARK    3  A    between atoms: O9_5  and  C10_4 
REMARK    4  A    between atoms: C5_6  and  O9_5 
REMARK    5  A    between atoms: C45_25  and  C13_13 
REMARK       I    between atoms: C13_13  and  N15_30 
REMARK    6  A    between atoms: C45_25  and  N11_14 
REMARK    7  A    between atoms: C15_16  and  C31_17 
REMARK    8  A    between atoms: N14_29  and  C15_16 
REMARK    9  A    between atoms: C12_26  and  C45_25 
REMARK   10  A    between atoms: C46_27  and  C12_26 
REMARK       I    between atoms: C46_27  and  N14_29 
REMARK   11  A    between atoms: C16_31  and  C17_32 
REMARK       I    between atoms: C17_32  and  N19_37 
REMARK   12  A    between atoms: N19_37  and  C20_38 
REMARK   13  A    between atoms: C20_38  and  C21_39 
REMARK   14  A    between atoms: C24_42  and  C27_43 
REMARK   15  A    between atoms: C27_43  and  N29_44 
REMARK   16  A    between atoms: C27_43  and  N28_45 
ROOT
ATOM      1  C31 MOL d          14.163 -12.402  21.194  0.00  0.00    -0.040 A 
ATOM      2  C32 MOL d          14.388 -11.103  21.083  0.00  0.00    -0.074 A 
ATOM      3  C33 MOL d          13.546 -10.271  21.700  0.00  0.00    -0.062 A 
ATOM      4  C44 MOL d          12.454 -10.655  22.401  0.00  0.00     0.044 A 
ATOM      5  C8  MOL d          12.208 -11.998  22.525  0.00  0.00    -0.062 A 
ATOM      6  C9  MOL d          13.046 -12.755  21.859  0.00  0.00    -0.074 A 
ATOM      7  C40 MOL d          11.783  -9.809  22.947  0.00  0.00     0.099 C 
ATOM      8  N63 MOL d          11.233  -9.072  23.558  0.00  0.00    -0.191 NA
ATOM      9  H10 MOL d          15.227 -10.726  20.510  0.00  0.00     0.084 H 
ATOM     10  H11 MOL d          13.752  -9.210  21.635  0.00  0.00     0.085 H 
ATOM     11  H12 MOL d          11.396 -12.397  23.119  0.00  0.00     0.085 H 
ATOM     12  H13 MOL d          12.806 -13.812  21.839  0.00  0.00     0.084 H 
ENDROOT
BRANCH   1  13
ATOM     13  C15 MOL d          15.034 -13.338  20.557  0.00  0.00     0.019 C 
ATOM     14  H8  MOL d          15.781 -12.766  19.987  0.00  0.00     0.071 H 
ATOM     15  H9  MOL d          14.429 -13.941  19.865  0.00  0.00     0.071 H 
BRANCH  13  16
ATOM     16  N14 MOL d          15.773 -14.282  21.458  0.00  0.00    -0.357 N 
ATOM     17  C46 MOL d          16.823 -15.047  21.211  0.00  0.00     0.220 C 
ATOM     18  O22 MOL d          17.301 -15.192  20.186  0.00  0.00    -0.274 OA
ATOM     19  H17 MOL d          15.417 -14.342  22.391  0.00  0.00     0.162 HD
BRANCH  17  20
ATOM     20  C12 MOL d          17.382 -15.965  22.356  0.00  0.00     0.037 C 
ATOM     21  H15 MOL d          17.985 -16.760  21.893  0.00  0.00     0.051 H 
ATOM     22  H16 MOL d          18.021 -15.350  23.006  0.00  0.00     0.051 H 
BRANCH  20  23
ATOM     23  C45 MOL d          16.256 -16.659  23.273  0.00  0.00     0.105 C 
ATOM     24  H14 MOL d          15.306 -16.118  23.158  0.00  0.00     0.089 H 
BRANCH  23  25
ATOM     25  C13 MOL d          16.132 -18.123  22.699  0.00  0.00     0.244 C 
ATOM     26  O14 MOL d          17.085 -18.812  22.830  0.00  0.00    -0.271 OA
ATOM     27  N15 MOL d          15.027 -18.429  22.145  0.00  0.00    -0.337 N 
ATOM     28  C16 MOL d          14.948 -19.596  21.377  0.00  0.00     0.091 C 
ATOM     29  C2  MOL d          13.876 -17.558  21.923  0.00  0.00    -0.001 C 
ATOM     30  C34 MOL d          13.617 -19.529  20.648  0.00  0.00    -0.036 C 
ATOM     31  H18 MOL d          15.089 -20.514  21.965  0.00  0.00     0.087 H 
ATOM     32  C1  MOL d          12.890 -18.321  21.141  0.00  0.00    -0.048 C 
ATOM     33  H19 MOL d          13.028 -20.434  20.860  0.00  0.00     0.036 H 
ATOM     34  H20 MOL d          13.787 -19.448  19.565  0.00  0.00     0.036 H 
ATOM     35  H21 MOL d          12.042 -18.616  21.776  0.00  0.00     0.035 H 
ATOM     36  H22 MOL d          12.525 -17.721  20.295  0.00  0.00     0.035 H 
ATOM     37  H23 MOL d          14.185 -16.662  21.366  0.00  0.00     0.064 H 
ATOM     38  H24 MOL d          13.440 -17.258  22.887  0.00  0.00     0.064 H 
BRANCH  28  39
ATOM     39  C17 MOL d          15.997 -19.410  20.217  0.00  0.00     0.240 C 
ATOM     40  O18 MOL d          15.882 -18.635  19.337  0.00  0.00    -0.271 OA
ATOM     41  N19 MOL d          17.031 -20.308  20.223  0.00  0.00    -0.355 N 
ATOM     42  H25 MOL d          17.040 -21.006  20.939  0.00  0.00     0.162 HD
BRANCH  41  43
ATOM     43  C20 MOL d          18.095 -20.311  19.275  0.00  0.00     0.019 C 
ATOM     44  H26 MOL d          17.852 -19.645  18.434  0.00  0.00     0.071 H 
ATOM     45  H27 MOL d          18.262 -21.331  18.899  0.00  0.00     0.071 H 
BRANCH  43  46
ATOM     46  C21 MOL d          19.316 -19.819  19.980  0.00  0.00    -0.040 A 
ATOM     47  C26 MOL d          19.360 -18.667  20.705  0.00  0.00    -0.074 A 
ATOM     48  C25 MOL d          20.415 -18.219  21.310  0.00  0.00    -0.069 A 
ATOM     49  H28 MOL d          18.449 -18.084  20.781  0.00  0.00     0.084 H 
ATOM     50  C24 MOL d          21.585 -18.824  21.271  0.00  0.00     0.007 A 
ATOM     51  H29 MOL d          20.330 -17.300  21.877  0.00  0.00     0.085 H 
ATOM     52  C23 MOL d          21.618 -19.937  20.529  0.00  0.00    -0.069 A 
ATOM     53  C22 MOL d          20.506 -20.383  19.929  0.00  0.00    -0.074 A 
ATOM     54  H34 MOL d          22.549 -20.480  20.412  0.00  0.00     0.085 H 
ATOM     55  H35 MOL d          20.593 -21.294  19.347  0.00  0.00     0.084 H 
BRANCH  50  56
ATOM     56  C27 MOL d          22.761 -18.355  21.934  0.00  0.00     0.102 C 
BRANCH  56  57
ATOM     57  N29 MOL d          23.786 -18.916  21.809  0.00  0.00    -0.385 N 
ATOM     58  H30 MOL d          24.668 -18.437  22.039  0.00  0.00     0.157 HD
ATOM     59  H31 MOL d          23.803 -19.888  21.468  0.00  0.00     0.157 HD
ENDBRANCH  56  57
BRANCH  56  60
ATOM     60  N28 MOL d          22.734 -17.286  22.631  0.00  0.00    -0.385 N 
ATOM     61  H32 MOL d          23.607 -16.773  22.822  0.00  0.00     0.157 HD
ATOM     62  H33 MOL d          21.840 -16.936  23.004  0.00  0.00     0.157 HD
ENDBRANCH  56  60
ENDBRANCH  50  56
ENDBRANCH  43  46
ENDBRANCH  41  43
ENDBRANCH  28  39
ENDBRANCH  23  25
BRANCH  23  63
ATOM     63  N11 MOL d          16.556 -16.716  24.583  0.00  0.00    -0.301 N 
ATOM     64  H7  MOL d          16.109 -17.392  25.170  0.00  0.00     0.173 HD
BRANCH  63  65
ATOM     65  S8  MOL d          17.611 -15.721  25.191  0.00  0.00     0.259 S 
ATOM     66  O1  MOL d          17.110 -15.598  26.277  0.00  0.00    -0.201 OA
ATOM     67  O10 MOL d          17.933 -14.891  24.488  0.00  0.00    -0.201 OA
BRANCH  65  68
ATOM     68  C35 MOL d          19.009 -16.666  25.567  0.00  0.00     0.081 A 
ATOM     69  C7  MOL d          18.992 -18.033  25.636  0.00  0.00    -0.058 A 
ATOM     70  C6  MOL d          20.148 -18.774  25.898  0.00  0.00    -0.048 A 
ATOM     71  H4  MOL d          18.055 -18.556  25.483  0.00  0.00     0.086 H 
ATOM     72  C5  MOL d          21.350 -18.119  26.016  0.00  0.00     0.089 A 
ATOM     73  H6  MOL d          20.097 -19.852  26.006  0.00  0.00     0.087 H 
ATOM     74  C4  MOL d          21.336 -16.781  25.873  0.00  0.00     0.068 A 
ATOM     75 CL   MOL d          22.893 -15.965  25.944  0.00  0.00    -0.081 Cl
ATOM     76  C3  MOL d          20.275 -16.053  25.671  0.00  0.00    -0.037 A 
ATOM     77  H5  MOL d          20.365 -14.977  25.581  0.00  0.00     0.088 H 
BRANCH  72  78
ATOM     78  O9  MOL d          22.479 -18.764  26.344  0.00  0.00    -0.354 OA
BRANCH  78  79
ATOM     79  C10 MOL d          23.075 -19.573  25.437  0.00  0.00     0.010 C 
ATOM     80  H1  MOL d          22.317 -20.218  24.967  0.00  0.00     0.066 H 
ATOM     81  H2  MOL d          23.827 -20.198  25.940  0.00  0.00     0.066 H 
ATOM     82  H3  MOL d          23.564 -18.961  24.664  0.00  0.00     0.066 H 
ENDBRANCH  78  79
ENDBRANCH  72  78
ENDBRANCH  65  68
ENDBRANCH  63  65
ENDBRANCH  23  63
ENDBRANCH  20  23
ENDBRANCH  17  20
ENDBRANCH  13  16
ENDBRANCH   1  13
TORSDOF 16
ENDMDL
