MODEL 1
REMARK VINA RESULT:      -5.6      0.000      0.000
REMARK  2 active torsions:
REMARK  status: ('A' for Active; 'I' for Inactive)
REMARK    1  A    between atoms: C7_4  and  N6_8 
REMARK    2  A    between atoms: N6_8  and  C5_9 
ROOT
ATOM      1  O13 GZ2 d          -8.240  54.018  13.421  0.00  0.00    -0.293 OA
ATOM      2  C11 GZ2 d          -7.728  53.180  12.694  0.00  0.00     0.151 C 
ATOM      3  C12 GZ2 d          -6.321  52.784  12.924  0.00  0.00    -0.017 C 
ATOM      4  C7  GZ2 d          -5.740  51.825  12.179  0.00  0.00     0.030 C 
ATOM      5  C8  GZ2 d          -6.502  51.086  11.100  0.00  0.00    -0.026 C 
ATOM      6  C9  GZ2 d          -8.021  51.160  11.240  0.00  0.00    -0.054 C 
ATOM      7  C10 GZ2 d          -8.529  52.555  11.570  0.00  0.00    -0.006 C 
ATOM      8  H1  GZ2 d          -5.746  53.275  13.708  0.00  0.00     0.092 H 
ATOM      9  H2  GZ2 d          -6.205  50.028  11.132  0.00  0.00     0.042 H 
ATOM     10  H3  GZ2 d          -6.224  51.517  10.126  0.00  0.00     0.042 H 
ATOM     11  H4  GZ2 d          -8.331  50.476  12.045  0.00  0.00     0.034 H 
ATOM     12  H5  GZ2 d          -8.474  50.839  10.291  0.00  0.00     0.034 H 
ATOM     13  H6  GZ2 d          -8.445  53.188  10.675  0.00  0.00     0.044 H 
ATOM     14  H7  GZ2 d          -9.583  52.489  11.876  0.00  0.00     0.044 H 
ENDROOT
BRANCH   4  15
ATOM     15  N6  GZ2 d          -4.460  51.444  12.289  0.00  0.00    -0.192 N 
ATOM     16  H8  GZ2 d          -4.299  50.450  12.506  0.00  0.00     0.184 HD
BRANCH  15  17
ATOM     17  C5  GZ2 d          -3.345  52.220  12.146  0.00  0.00     0.732 A 
ATOM     18  N4  GZ2 d          -2.479  52.493  13.131  0.00  0.00    -0.115 N 
ATOM     19  N3  GZ2 d          -1.516  53.318  12.524  0.00  0.00     0.008 NA
ATOM     20  H9  GZ2 d          -2.511  52.172  14.108  0.00  0.00     0.203 HD
ATOM     21  N2  GZ2 d          -1.866  53.477  11.170  0.00  0.00     0.033 NA
ATOM     22  N1  GZ2 d          -3.043  52.763  10.947  0.00  0.00     0.030 NA
ENDBRANCH  15  17
ENDBRANCH   4  15
TORSDOF 2
ENDMDL
MODEL 2
REMARK VINA RESULT:      -5.0      3.290      5.330
REMARK  2 active torsions:
REMARK  status: ('A' for Active; 'I' for Inactive)
REMARK    1  A    between atoms: C7_4  and  N6_8 
REMARK    2  A    between atoms: N6_8  and  C5_9 
ROOT
ATOM      1  O13 GZ2 d          -2.256  50.938  10.060  0.00  0.00    -0.293 OA
ATOM      2  C11 GZ2 d          -2.543  51.770  10.908  0.00  0.00     0.151 C 
ATOM      3  C12 GZ2 d          -3.758  51.578  11.729  0.00  0.00    -0.017 C 
ATOM      4  C7  GZ2 d          -4.076  52.444  12.709  0.00  0.00     0.030 C 
ATOM      5  C8  GZ2 d          -3.195  53.628  13.040  0.00  0.00    -0.026 C 
ATOM      6  C9  GZ2 d          -1.759  53.503  12.540  0.00  0.00    -0.054 C 
ATOM      7  C10 GZ2 d          -1.660  52.984  11.114  0.00  0.00    -0.006 C 
ATOM      8  H1  GZ2 d          -4.406  50.723  11.538  0.00  0.00     0.092 H 
ATOM      9  H2  GZ2 d          -3.170  53.744  14.134  0.00  0.00     0.042 H 
ATOM     10  H3  GZ2 d          -3.641  54.527  12.587  0.00  0.00     0.042 H 
ATOM     11  H4  GZ2 d          -1.218  52.809  13.202  0.00  0.00     0.034 H 
ATOM     12  H5  GZ2 d          -1.286  54.495  12.584  0.00  0.00     0.034 H 
ATOM     13  H6  GZ2 d          -1.974  53.778  10.421  0.00  0.00     0.044 H 
ATOM     14  H7  GZ2 d          -0.616  52.707  10.905  0.00  0.00     0.044 H 
ENDROOT
BRANCH   4  15
ATOM     15  N6  GZ2 d          -5.182  52.370  13.463  0.00  0.00    -0.192 N 
ATOM     16  H8  GZ2 d          -5.098  51.843  14.344  0.00  0.00     0.184 HD
BRANCH  15  17
ATOM     17  C5  GZ2 d          -6.408  52.913  13.199  0.00  0.00     0.732 A 
ATOM     18  N4  GZ2 d          -7.300  52.395  12.345  0.00  0.00    -0.115 N 
ATOM     19  N3  GZ2 d          -8.385  53.286  12.397  0.00  0.00     0.008 NA
ATOM     20  H9  GZ2 d          -7.210  51.540  11.779  0.00  0.00     0.203 HD
ATOM     21  N2  GZ2 d          -8.075  54.301  13.322  0.00  0.00     0.033 NA
ATOM     22  N1  GZ2 d          -6.801  54.042  13.826  0.00  0.00     0.030 NA
ENDBRANCH  15  17
ENDBRANCH   4  15
TORSDOF 2
ENDMDL
MODEL 3
REMARK VINA RESULT:      -4.9      3.184      5.032
REMARK  2 active torsions:
REMARK  status: ('A' for Active; 'I' for Inactive)
REMARK    1  A    between atoms: C7_4  and  N6_8 
REMARK    2  A    between atoms: N6_8  and  C5_9 
ROOT
ATOM      1  O13 GZ2 d          -1.514  53.561  13.304  0.00  0.00    -0.293 OA
ATOM      2  C11 GZ2 d          -2.247  52.875  12.608  0.00  0.00     0.151 C 
ATOM      3  C12 GZ2 d          -3.661  52.694  13.005  0.00  0.00    -0.017 C 
ATOM      4  C7  GZ2 d          -4.512  51.991  12.235  0.00  0.00     0.030 C 
ATOM      5  C8  GZ2 d          -4.078  51.385  10.919  0.00  0.00    -0.026 C 
ATOM      6  C9  GZ2 d          -2.815  52.006  10.327  0.00  0.00    -0.054 C 
ATOM      7  C10 GZ2 d          -1.711  52.219  11.352  0.00  0.00    -0.006 C 
ATOM      8  H1  GZ2 d          -4.018  53.136  13.934  0.00  0.00     0.092 H 
ATOM      9  H2  GZ2 d          -4.896  51.513  10.194  0.00  0.00     0.042 H 
ATOM     10  H3  GZ2 d          -3.893  50.312  11.078  0.00  0.00     0.042 H 
ATOM     11  H4  GZ2 d          -3.076  52.980   9.889  0.00  0.00     0.034 H 
ATOM     12  H5  GZ2 d          -2.435  51.339   9.539  0.00  0.00     0.034 H 
ATOM     13  H6  GZ2 d          -1.273  51.246  11.615  0.00  0.00     0.044 H 
ATOM     14  H7  GZ2 d          -0.935  52.864  10.915  0.00  0.00     0.044 H 
ENDROOT
BRANCH   4  15
ATOM     15  N6  GZ2 d          -5.791  51.738  12.547  0.00  0.00    -0.192 N 
ATOM     16  H8  GZ2 d          -6.008  50.771  12.828  0.00  0.00     0.184 HD
BRANCH  15  17
ATOM     17  C5  GZ2 d          -6.839  52.614  12.535  0.00  0.00     0.732 A 
ATOM     18  N4  GZ2 d          -7.649  52.815  11.486  0.00  0.00    -0.115 N 
ATOM     19  N3  GZ2 d          -8.555  53.792  11.933  0.00  0.00     0.008 NA
ATOM     20  H9  GZ2 d          -7.615  52.359  10.564  0.00  0.00     0.203 HD
ATOM     21  N2  GZ2 d          -8.235  54.110  13.267  0.00  0.00     0.033 NA
ATOM     22  N1  GZ2 d          -7.131  53.342  13.634  0.00  0.00     0.030 NA
ENDBRANCH  15  17
ENDBRANCH   4  15
TORSDOF 2
ENDMDL
MODEL 4
REMARK VINA RESULT:      -4.7      3.563      5.083
REMARK  2 active torsions:
REMARK  status: ('A' for Active; 'I' for Inactive)
REMARK    1  A    between atoms: C7_4  and  N6_8 
REMARK    2  A    between atoms: N6_8  and  C5_9 
ROOT
ATOM      1  O13 GZ2 d          -1.514  53.478  12.998  0.00  0.00    -0.293 OA
ATOM      2  C11 GZ2 d          -2.624  52.975  12.904  0.00  0.00     0.151 C 
ATOM      3  C12 GZ2 d          -3.815  53.851  12.872  0.00  0.00    -0.017 C 
ATOM      4  C7  GZ2 d          -5.049  53.338  12.714  0.00  0.00     0.030 C 
ATOM      5  C8  GZ2 d          -5.274  51.853  12.526  0.00  0.00    -0.026 C 
ATOM      6  C9  GZ2 d          -4.038  51.083  12.068  0.00  0.00    -0.054 C 
ATOM      7  C10 GZ2 d          -2.774  51.470  12.819  0.00  0.00    -0.006 C 
ATOM      8  H1  GZ2 d          -3.692  54.928  12.979  0.00  0.00     0.092 H 
ATOM      9  H2  GZ2 d          -6.064  51.717  11.773  0.00  0.00     0.042 H 
ATOM     10  H3  GZ2 d          -5.607  51.432  13.487  0.00  0.00     0.042 H 
ATOM     11  H4  GZ2 d          -3.882  51.279  10.997  0.00  0.00     0.034 H 
ATOM     12  H5  GZ2 d          -4.221  50.009  12.221  0.00  0.00     0.034 H 
ATOM     13  H6  GZ2 d          -2.820  51.056  13.837  0.00  0.00     0.044 H 
ATOM     14  H7  GZ2 d          -1.903  51.052  12.293  0.00  0.00     0.044 H 
ENDROOT
BRANCH   4  15
ATOM     15  N6  GZ2 d          -6.181  54.055  12.724  0.00  0.00    -0.192 N 
ATOM     16  H8  GZ2 d          -6.320  54.673  13.537  0.00  0.00     0.184 HD
BRANCH  15  17
ATOM     17  C5  GZ2 d          -7.171  54.063  11.783  0.00  0.00     0.732 A 
ATOM     18  N4  GZ2 d          -6.978  54.312  10.481  0.00  0.00    -0.115 N 
ATOM     19  N3  GZ2 d          -8.263  54.218   9.919  0.00  0.00     0.008 NA
ATOM     20  H9  GZ2 d          -6.093  54.525  10.002  0.00  0.00     0.203 HD
ATOM     21  N2  GZ2 d          -9.168  53.889  10.945  0.00  0.00     0.033 NA
ATOM     22  N1  GZ2 d          -8.446  53.792  12.134  0.00  0.00     0.030 NA
ENDBRANCH  15  17
ENDBRANCH   4  15
TORSDOF 2
ENDMDL
MODEL 5
REMARK VINA RESULT:      -4.3      1.284      1.661
REMARK  2 active torsions:
REMARK  status: ('A' for Active; 'I' for Inactive)
REMARK    1  A    between atoms: C7_4  and  N6_8 
REMARK    2  A    between atoms: N6_8  and  C5_9 
ROOT
ATOM      1  O13 GZ2 d          -9.299  52.603  12.656  0.00  0.00    -0.293 OA
ATOM      2  C11 GZ2 d          -8.298  52.457  11.971  0.00  0.00     0.151 C 
ATOM      3  C12 GZ2 d          -7.094  53.266  12.264  0.00  0.00    -0.017 C 
ATOM      4  C7  GZ2 d          -5.957  53.094  11.567  0.00  0.00     0.030 C 
ATOM      5  C8  GZ2 d          -5.842  52.050  10.478  0.00  0.00    -0.026 C 
ATOM      6  C9  GZ2 d          -6.889  50.942  10.557  0.00  0.00    -0.054 C 
ATOM      7  C10 GZ2 d          -8.293  51.457  10.832  0.00  0.00    -0.006 C 
ATOM      8  H1  GZ2 d          -7.129  54.011  13.058  0.00  0.00     0.092 H 
ATOM      9  H2  GZ2 d          -4.846  51.588  10.548  0.00  0.00     0.042 H 
ATOM     10  H3  GZ2 d          -5.945  52.553   9.505  0.00  0.00     0.042 H 
ATOM     11  H4  GZ2 d          -6.606  50.251  11.366  0.00  0.00     0.034 H 
ATOM     12  H5  GZ2 d          -6.897  50.401   9.599  0.00  0.00     0.034 H 
ATOM     13  H6  GZ2 d          -8.680  51.944   9.926  0.00  0.00     0.044 H 
ATOM     14  H7  GZ2 d          -8.941  50.609  11.098  0.00  0.00     0.044 H 
ENDROOT
BRANCH   4  15
ATOM     15  N6  GZ2 d          -4.841  53.818  11.736  0.00  0.00    -0.192 N 
ATOM     16  H8  GZ2 d          -4.878  54.794  11.407  0.00  0.00     0.184 HD
BRANCH  15  17
ATOM     17  C5  GZ2 d          -3.662  53.412  12.294  0.00  0.00     0.732 A 
ATOM     18  N4  GZ2 d          -3.162  52.174  12.194  0.00  0.00    -0.115 N 
ATOM     19  N3  GZ2 d          -1.959  52.229  12.920  0.00  0.00     0.008 NA
ATOM     20  H9  GZ2 d          -3.565  51.366  11.700  0.00  0.00     0.203 HD
ATOM     21  N2  GZ2 d          -1.800  53.540  13.406  0.00  0.00     0.033 NA
ATOM     22  N1  GZ2 d          -2.904  54.285  12.991  0.00  0.00     0.030 NA
ENDBRANCH  15  17
ENDBRANCH   4  15
TORSDOF 2
ENDMDL
MODEL 6
REMARK VINA RESULT:      -3.2      3.498      5.195
REMARK  2 active torsions:
REMARK  status: ('A' for Active; 'I' for Inactive)
REMARK    1  A    between atoms: C7_4  and  N6_8 
REMARK    2  A    between atoms: N6_8  and  C5_9 
ROOT
ATOM      1  O13 GZ2 d          -2.317  52.453  10.204  0.00  0.00    -0.293 OA
ATOM      2  C11 GZ2 d          -2.963  52.352  11.236  0.00  0.00     0.151 C 
ATOM      3  C12 GZ2 d          -4.214  53.128  11.387  0.00  0.00    -0.017 C 
ATOM      4  C7  GZ2 d          -4.980  53.002  12.486  0.00  0.00     0.030 C 
ATOM      5  C8  GZ2 d          -4.622  52.041  13.598  0.00  0.00    -0.026 C 
ATOM      6  C9  GZ2 d          -3.650  50.937  13.187  0.00  0.00    -0.054 C 
ATOM      7  C10 GZ2 d          -2.486  51.441  12.348  0.00  0.00    -0.006 C 
ATOM      8  H1  GZ2 d          -4.520  53.812  10.596  0.00  0.00     0.092 H 
ATOM      9  H2  GZ2 d          -5.548  51.568  13.957  0.00  0.00     0.042 H 
ATOM     10  H3  GZ2 d          -4.163  52.617  14.416  0.00  0.00     0.042 H 
ATOM     11  H4  GZ2 d          -4.202  50.186  12.603  0.00  0.00     0.034 H 
ATOM     12  H5  GZ2 d          -3.247  50.470  14.098  0.00  0.00     0.034 H 
ATOM     13  H6  GZ2 d          -1.792  51.997  12.994  0.00  0.00     0.044 H 
ATOM     14  H7  GZ2 d          -1.964  50.580  11.906  0.00  0.00     0.044 H 
ENDROOT
BRANCH   4  15
ATOM     15  N6  GZ2 d          -6.098  53.703  12.721  0.00  0.00    -0.192 N 
ATOM     16  H8  GZ2 d          -6.016  54.474  13.400  0.00  0.00     0.184 HD
BRANCH  15  17
ATOM     17  C5  GZ2 d          -7.331  53.515  12.166  0.00  0.00     0.732 A 
ATOM     18  N4  GZ2 d          -8.204  52.575  12.555  0.00  0.00    -0.115 N 
ATOM     19  N3  GZ2 d          -9.308  52.758  11.705  0.00  0.00     0.008 NA
ATOM     20  H9  GZ2 d          -8.090  51.878  13.304  0.00  0.00     0.203 HD
ATOM     21  N2  GZ2 d          -9.029  53.840  10.850  0.00  0.00     0.033 NA
ATOM     22  N1  GZ2 d          -7.755  54.312  11.163  0.00  0.00     0.030 NA
ENDBRANCH  15  17
ENDBRANCH   4  15
TORSDOF 2
ENDMDL
MODEL 7
REMARK VINA RESULT:      -3.1      3.777      5.347
REMARK  2 active torsions:
REMARK  status: ('A' for Active; 'I' for Inactive)
REMARK    1  A    between atoms: C7_4  and  N6_8 
REMARK    2  A    between atoms: N6_8  and  C5_9 
ROOT
ATOM      1  O13 GZ2 d          -3.220  52.046  10.594  0.00  0.00    -0.293 OA
ATOM      2  C11 GZ2 d          -3.986  52.340  11.500  0.00  0.00     0.151 C 
ATOM      3  C12 GZ2 d          -5.433  52.462  11.215  0.00  0.00    -0.017 C 
ATOM      4  C7  GZ2 d          -6.312  52.731  12.197  0.00  0.00     0.030 C 
ATOM      5  C8  GZ2 d          -5.873  52.887  13.637  0.00  0.00    -0.026 C 
ATOM      6  C9  GZ2 d          -4.512  52.271  13.949  0.00  0.00    -0.054 C 
ATOM      7  C10 GZ2 d          -3.455  52.577  12.899  0.00  0.00    -0.006 C 
ATOM      8  H1  GZ2 d          -5.792  52.332  10.195  0.00  0.00     0.092 H 
ATOM      9  H2  GZ2 d          -6.624  52.406  14.281  0.00  0.00     0.042 H 
ATOM     10  H3  GZ2 d          -5.826  53.962  13.868  0.00  0.00     0.042 H 
ATOM     11  H4  GZ2 d          -4.630  51.178  14.016  0.00  0.00     0.034 H 
ATOM     12  H5  GZ2 d          -4.166  52.662  14.917  0.00  0.00     0.034 H 
ATOM     13  H6  GZ2 d          -3.151  53.630  12.993  0.00  0.00     0.044 H 
ATOM     14  H7  GZ2 d          -2.584  51.928  13.067  0.00  0.00     0.044 H 
ENDROOT
BRANCH   4  15
ATOM     15  N6  GZ2 d          -7.628  52.906  12.016  0.00  0.00    -0.192 N 
ATOM     16  H8  GZ2 d          -8.204  52.945  12.870  0.00  0.00     0.184 HD
BRANCH  15  17
ATOM     17  C5  GZ2 d          -8.295  53.040  10.831  0.00  0.00     0.732 A 
ATOM     18  N4  GZ2 d          -8.506  54.206  10.206  0.00  0.00    -0.115 N 
ATOM     19  N3  GZ2 d          -9.226  53.852   9.052  0.00  0.00     0.008 NA
ATOM     20  H9  GZ2 d          -8.210  55.145  10.503  0.00  0.00     0.203 HD
ATOM     21  N2  GZ2 d          -9.388  52.454   9.048  0.00  0.00     0.033 NA
ATOM     22  N1  GZ2 d          -8.782  51.951  10.198  0.00  0.00     0.030 NA
ENDBRANCH  15  17
ENDBRANCH   4  15
TORSDOF 2
ENDMDL
MODEL 8
REMARK VINA RESULT:      -3.0      1.934      2.039
REMARK  2 active torsions:
REMARK  status: ('A' for Active; 'I' for Inactive)
REMARK    1  A    between atoms: C7_4  and  N6_8 
REMARK    2  A    between atoms: N6_8  and  C5_9 
ROOT
ATOM      1  O13 GZ2 d          -7.763  54.235  10.549  0.00  0.00    -0.293 OA
ATOM      2  C11 GZ2 d          -7.078  53.304  10.153  0.00  0.00     0.151 C 
ATOM      3  C12 GZ2 d          -5.681  53.181  10.624  0.00  0.00    -0.017 C 
ATOM      4  C7  GZ2 d          -4.914  52.139  10.252  0.00  0.00     0.030 C 
ATOM      5  C8  GZ2 d          -5.449  51.033   9.369  0.00  0.00    -0.026 C 
ATOM      6  C9  GZ2 d          -6.972  50.938   9.334  0.00  0.00    -0.054 C 
ATOM      7  C10 GZ2 d          -7.657  52.288   9.190  0.00  0.00    -0.006 C 
ATOM      8  H1  GZ2 d          -5.267  53.944  11.281  0.00  0.00     0.092 H 
ATOM      9  H2  GZ2 d          -5.053  50.075   9.738  0.00  0.00     0.042 H 
ATOM     10  H3  GZ2 d          -5.090  51.207   8.344  0.00  0.00     0.042 H 
ATOM     11  H4  GZ2 d          -7.315  50.471  10.269  0.00  0.00     0.034 H 
ATOM     12  H5  GZ2 d          -7.263  50.307   8.481  0.00  0.00     0.034 H 
ATOM     13  H6  GZ2 d          -7.521  52.652   8.161  0.00  0.00     0.044 H 
ATOM     14  H7  GZ2 d          -8.731  52.170   9.397  0.00  0.00     0.044 H 
ENDROOT
BRANCH   4  15
ATOM     15  N6  GZ2 d          -3.628  51.979  10.593  0.00  0.00    -0.192 N 
ATOM     16  H8  GZ2 d          -3.088  51.306  10.029  0.00  0.00     0.184 HD
BRANCH  15  17
ATOM     17  C5  GZ2 d          -2.949  52.606  11.599  0.00  0.00     0.732 A 
ATOM     18  N4  GZ2 d          -1.879  52.097  12.225  0.00  0.00    -0.115 N 
ATOM     19  N3  GZ2 d          -1.535  53.077  13.171  0.00  0.00     0.008 NA
ATOM     20  H9  GZ2 d          -1.415  51.195  12.052  0.00  0.00     0.203 HD
ATOM     21  N2  GZ2 d          -2.434  54.152  13.036  0.00  0.00     0.033 NA
ATOM     22  N1  GZ2 d          -3.333  53.829  12.020  0.00  0.00     0.030 NA
ENDBRANCH  15  17
ENDBRANCH   4  15
TORSDOF 2
ENDMDL
