MODEL 1
REMARK VINA RESULT:      -3.9      0.000      0.000
REMARK  10 active torsions:
REMARK  status: ('A' for Active; 'I' for Inactive)
REMARK    1  A    between atoms: C1_1  and  C7_7 
REMARK    2  A    between atoms: C3_3  and  O1_8 
REMARK    3  A    between atoms: C4_4  and  O2_9 
REMARK    4  A    between atoms: O3_10  and  C5_5 
REMARK    5  A    between atoms: O1_8  and  P1_13 
REMARK    6  A    between atoms: C8_17  and  O3_10 
REMARK    7  A    between atoms: C8_17  and  C9_18 
REMARK    8  A    between atoms: C8_17  and  C10_19 
REMARK    9  A    between atoms: O14_26  and  C8_17 
REMARK   10  A    between atoms: P2_22  and  O14_26 
ROOT
ATOM      1  C1  GG9 d          59.986   9.767  27.612  0.00  0.00     0.020 C 
ATOM      2  C2  GG9 d          60.254   8.433  28.058  0.00  0.00    -0.060 C 
ATOM      3  C3  GG9 d          59.365   7.803  29.128  0.00  0.00     0.096 C 
ATOM      4  C4  GG9 d          57.932   8.497  29.210  0.00  0.00     0.089 C 
ATOM      5  C5  GG9 d          58.107  10.027  29.432  0.00  0.00     0.074 C 
ATOM      6  C6  GG9 d          58.840  10.586  28.150  0.00  0.00    -0.008 C 
ATOM      7  H1  GG9 d          61.085   7.872  27.636  0.00  0.00     0.082 H 
ATOM      8  H2  GG9 d          59.200   6.749  28.858  0.00  0.00     0.095 H 
ATOM      9  H3  GG9 d          57.386   8.337  28.270  0.00  0.00     0.091 H 
ATOM     10  H4  GG9 d          58.707  10.222  30.333  0.00  0.00     0.088 H 
ATOM     11  H5  GG9 d          58.091  10.676  27.350  0.00  0.00     0.044 H 
ATOM     12  H6  GG9 d          59.232  11.584  28.399  0.00  0.00     0.044 H 
ENDROOT
BRANCH   5  13
ATOM     13  O3  GG9 d          56.816  10.636  29.564  0.00  0.00    -0.334 OA
BRANCH  13  14
ATOM     14  C8  GG9 d          55.731  10.406  28.630  0.00  0.00     0.326 C 
BRANCH  14  15
ATOM     15  C9  GG9 d          55.243  11.633  27.723  0.00  0.00     0.272 C 
ATOM     16  F1  GG9 d          56.152  12.526  27.535  0.00  0.00    -0.208 F 
ATOM     17  F2  GG9 d          54.721  11.219  26.586  0.00  0.00    -0.208 F 
ATOM     18  H8  GG9 d          54.434  12.127  28.280  0.00  0.00     0.155 H 
ENDBRANCH  14  15
BRANCH  14  19
ATOM     19  C10 GG9 d          54.543   9.924  29.423  0.00  0.00     0.245 C 
ATOM     20  O9  GG9 d          53.460  10.295  28.856  0.00  0.00    -0.644 OA
ATOM     21  O10 GG9 d          54.597   9.241  30.464  0.00  0.00    -0.644 OA
ENDBRANCH  14  19
BRANCH  14  22
ATOM     22  O14 GG9 d          56.086   9.277  27.730  0.00  0.00    -0.228 OA
BRANCH  22  23
ATOM     23  P2  GG9 d          55.283   8.013  27.044  0.00  0.00     0.425 P 
ATOM     24  O11 GG9 d          55.021   6.963  28.144  0.00  0.00    -0.617 OA
ATOM     25  O12 GG9 d          56.241   7.498  26.010  0.00  0.00    -0.617 OA
ATOM     26  O13 GG9 d          53.944   8.488  26.428  0.00  0.00    -0.617 OA
ENDBRANCH  22  23
ENDBRANCH  14  22
ENDBRANCH  13  14
ENDBRANCH   5  13
BRANCH   4  27
ATOM     27  O2  GG9 d          57.221   7.860  30.283  0.00  0.00    -0.390 OA
ATOM     28  H7  GG9 d          56.419   8.338  30.458  0.00  0.00     0.210 HD
ENDBRANCH   4  27
BRANCH   3  29
ATOM     29  O1  GG9 d          60.136   7.837  30.479  0.00  0.00    -0.271 OA
BRANCH  29  30
ATOM     30  P1  GG9 d          61.679   8.424  30.659  0.00  0.00     0.422 P 
ATOM     31  O6  GG9 d          62.261   8.518  29.246  0.00  0.00    -0.617 OA
ATOM     32  O7  GG9 d          62.421   7.371  31.586  0.00  0.00    -0.617 OA
ATOM     33  O8  GG9 d          61.386   9.809  31.290  0.00  0.00    -0.617 OA
ENDBRANCH  29  30
ENDBRANCH   3  29
BRANCH   1  34
ATOM     34  C7  GG9 d          60.865  10.360  26.552  0.00  0.00     0.205 C 
ATOM     35  O4  GG9 d          60.459  11.344  25.963  0.00  0.00    -0.644 OA
ATOM     36  O5  GG9 d          61.928   9.838  26.378  0.00  0.00    -0.644 OA
ENDBRANCH   1  34
TORSDOF 10
ENDMDL
MODEL 2
REMARK VINA RESULT:      -3.6      2.236      6.350
REMARK  10 active torsions:
REMARK  status: ('A' for Active; 'I' for Inactive)
REMARK    1  A    between atoms: C1_1  and  C7_7 
REMARK    2  A    between atoms: C3_3  and  O1_8 
REMARK    3  A    between atoms: C4_4  and  O2_9 
REMARK    4  A    between atoms: O3_10  and  C5_5 
REMARK    5  A    between atoms: O1_8  and  P1_13 
REMARK    6  A    between atoms: C8_17  and  O3_10 
REMARK    7  A    between atoms: C8_17  and  C9_18 
REMARK    8  A    between atoms: C8_17  and  C10_19 
REMARK    9  A    between atoms: O14_26  and  C8_17 
REMARK   10  A    between atoms: P2_22  and  O14_26 
ROOT
ATOM      1  C1  GG9 d          58.081  11.178  29.695  0.00  0.00     0.020 C 
ATOM      2  C2  GG9 d          56.878  10.489  30.049  0.00  0.00    -0.060 C 
ATOM      3  C3  GG9 d          56.573   9.131  29.420  0.00  0.00     0.096 C 
ATOM      4  C4  GG9 d          57.886   8.406  28.880  0.00  0.00     0.089 C 
ATOM      5  C5  GG9 d          58.631   9.348  27.890  0.00  0.00     0.074 C 
ATOM      6  C6  GG9 d          59.085  10.610  28.725  0.00  0.00    -0.008 C 
ATOM      7  H1  GG9 d          56.184  10.930  30.762  0.00  0.00     0.082 H 
ATOM      8  H2  GG9 d          56.141   8.484  30.197  0.00  0.00     0.095 H 
ATOM      9  H3  GG9 d          58.557   8.176  29.719  0.00  0.00     0.091 H 
ATOM     10  H4  GG9 d          57.965   9.651  27.069  0.00  0.00     0.088 H 
ATOM     11  H5  GG9 d          59.979  10.325  29.299  0.00  0.00     0.044 H 
ATOM     12  H6  GG9 d          59.346  11.405  28.011  0.00  0.00     0.044 H 
ENDROOT
BRANCH   5  13
ATOM     13  O3  GG9 d          59.777   8.669  27.364  0.00  0.00    -0.334 OA
BRANCH  13  14
ATOM     14  C8  GG9 d          61.133   9.154  27.531  0.00  0.00     0.326 C 
BRANCH  14  15
ATOM     15  C9  GG9 d          61.631  10.347  26.586  0.00  0.00     0.272 C 
ATOM     16  F1  GG9 d          60.686  11.143  26.224  0.00  0.00    -0.208 F 
ATOM     17  F2  GG9 d          62.643  11.000  27.121  0.00  0.00    -0.208 F 
ATOM     18  H8  GG9 d          62.010   9.877  25.667  0.00  0.00     0.155 H 
ENDBRANCH  14  15
BRANCH  14  19
ATOM     19  C10 GG9 d          62.063   7.985  27.318  0.00  0.00     0.245 C 
ATOM     20  O9  GG9 d          62.643   8.089  26.184  0.00  0.00    -0.644 OA
ATOM     21  O10 GG9 d          62.264   7.064  28.132  0.00  0.00    -0.644 OA
ENDBRANCH  14  19
BRANCH  14  22
ATOM     22  O14 GG9 d          61.339   9.565  28.944  0.00  0.00    -0.228 OA
BRANCH  22  23
ATOM     23  P2  GG9 d          61.334   8.811  30.409  0.00  0.00     0.425 P 
ATOM     24  O11 GG9 d          60.005   8.035  30.540  0.00  0.00    -0.617 OA
ATOM     25  O12 GG9 d          61.409   9.940  31.395  0.00  0.00    -0.617 OA
ATOM     26  O13 GG9 d          62.534   7.839  30.527  0.00  0.00    -0.617 OA
ENDBRANCH  22  23
ENDBRANCH  14  22
ENDBRANCH  13  14
ENDBRANCH   5  13
BRANCH   4  27
ATOM     27  O2  GG9 d          57.463   7.180  28.264  0.00  0.00    -0.390 OA
ATOM     28  H7  GG9 d          56.573   6.982  28.533  0.00  0.00     0.210 HD
ENDBRANCH   4  27
BRANCH   3  29
ATOM     29  O1  GG9 d          55.496   9.340  28.316  0.00  0.00    -0.271 OA
BRANCH  29  30
ATOM     30  P1  GG9 d          54.450   8.159  27.797  0.00  0.00     0.422 P 
ATOM     31  O6  GG9 d          53.739   7.645  29.052  0.00  0.00    -0.617 OA
ATOM     32  O7  GG9 d          55.365   7.071  27.091  0.00  0.00    -0.617 OA
ATOM     33  O8  GG9 d          53.524   8.986  26.868  0.00  0.00    -0.617 OA
ENDBRANCH  29  30
ENDBRANCH   3  29
BRANCH   1  34
ATOM     34  C7  GG9 d          58.364  12.504  30.335  0.00  0.00     0.205 C 
ATOM     35  O4  GG9 d          58.864  13.372  29.645  0.00  0.00    -0.644 OA
ATOM     36  O5  GG9 d          58.048  12.628  31.483  0.00  0.00    -0.644 OA
ENDBRANCH   1  34
TORSDOF 10
ENDMDL
