MODEL 1
REMARK VINA RESULT:     -10.9      0.000      0.000
REMARK  5 active torsions:
REMARK  status: ('A' for Active; 'I' for Inactive)
REMARK    1  A    between atoms: N19_3  and  C23_4 
REMARK    2  A    between atoms: C23_4  and  C24_5 
REMARK    3  A    between atoms: C10_20  and  C7_21 
REMARK    4  A    between atoms: C4_24  and  C3_27 
REMARK    5  A    between atoms: C3_27  and  N1_28 
ROOT
ATOM      1  O21 FSN d          16.777 -12.843  22.589  0.00  0.00    -0.272 OA
ATOM      2  C20 FSN d          17.517 -12.597  21.653  0.00  0.00     0.234 C 
ATOM      3  N19 FSN d          18.654 -13.383  21.362  0.00  0.00    -0.283 N 
ATOM      4  C17 FSN d          19.222 -12.997  20.114  0.00  0.00     0.233 C 
ATOM      5  O18 FSN d          20.219 -13.492  19.613  0.00  0.00    -0.272 OA
ATOM      6  C16 FSN d          18.411 -11.926  19.539  0.00  0.00     0.066 C 
ATOM      7  C15 FSN d          17.418 -12.354  18.459  0.00  0.00     0.117 C 
ATOM      8  N11 FSN d          15.986 -12.590  18.964  0.00  0.00    -0.057 N 
ATOM      9  C12 FSN d          15.188 -12.191  17.769  0.00  0.00     0.085 C 
ATOM     10  C13 FSN d          16.149 -12.420  16.557  0.00  0.00    -0.040 C 
ATOM     11  C14 FSN d          17.490 -11.873  17.067  0.00  0.00    -0.036 C 
ATOM     12  C10 FSN d          16.011 -11.453  19.983  0.00  0.00     0.142 C 
ATOM     13  C22 FSN d          17.377 -11.528  20.640  0.00  0.00     0.069 C 
ATOM     14  H7  FSN d          19.051 -11.097  19.204  0.00  0.00     0.059 H 
ATOM     15  H8  FSN d          17.759 -13.390  18.308  0.00  0.00     0.086 H 
ATOM     16  H9  FSN d          15.762 -13.501  19.331  0.00  0.00     0.281 HD
ATOM     17  H10 FSN d          14.893 -11.133  17.835  0.00  0.00     0.076 H 
ATOM     18  H11 FSN d          14.290 -12.819  17.676  0.00  0.00     0.076 H 
ATOM     19  H12 FSN d          15.806 -11.864  15.672  0.00  0.00     0.035 H 
ATOM     20  H13 FSN d          16.226 -13.489  16.312  0.00  0.00     0.035 H 
ATOM     21  H14 FSN d          18.345 -12.304  16.525  0.00  0.00     0.036 H 
ATOM     22  H15 FSN d          17.536 -10.775  17.012  0.00  0.00     0.036 H 
ATOM     23  H16 FSN d          16.023 -10.523  19.396  0.00  0.00     0.093 H 
ATOM     24  H25 FSN d          17.619 -10.553  21.086  0.00  0.00     0.059 H 
ENDROOT
BRANCH  12  25
ATOM     25  C7  FSN d          14.791 -11.300  20.841  0.00  0.00    -0.027 A 
ATOM     26  C8  FSN d          14.029 -12.437  21.095  0.00  0.00    -0.074 A 
ATOM     27  C9  FSN d          12.925 -12.359  21.933  0.00  0.00    -0.069 A 
ATOM     28  H17 FSN d          14.298 -13.382  20.639  0.00  0.00     0.084 H 
ATOM     29  C4  FSN d          12.591 -11.104  22.513  0.00  0.00     0.007 A 
ATOM     30  H18 FSN d          12.328 -13.240  22.142  0.00  0.00     0.085 H 
ATOM     31  C5  FSN d          13.356  -9.959  22.263  0.00  0.00    -0.069 A 
ATOM     32  C6  FSN d          14.470 -10.049  21.422  0.00  0.00    -0.074 A 
ATOM     33  H19 FSN d          13.089  -9.013  22.718  0.00  0.00     0.085 H 
ATOM     34  H20 FSN d          15.077  -9.175  21.218  0.00  0.00     0.084 H 
BRANCH  29  35
ATOM     35  C3  FSN d          11.422 -11.041  23.375  0.00  0.00     0.102 C 
ATOM     36  N2  FSN d          10.629 -12.117  23.615  0.00  0.00    -0.385 N 
ATOM     37  H23 FSN d          10.850 -13.025  23.184  0.00  0.00     0.157 HD
ATOM     38  H24 FSN d           9.808 -12.024  24.229  0.00  0.00     0.157 HD
BRANCH  35  39
ATOM     39  N1  FSN d          11.048  -9.890  23.989  0.00  0.00    -0.385 N 
ATOM     40  H21 FSN d          11.679  -9.075  23.985  0.00  0.00     0.157 HD
ATOM     41  H22 FSN d          10.134  -9.830  24.459  0.00  0.00     0.157 HD
ENDBRANCH  35  39
ENDBRANCH  29  35
ENDBRANCH  12  25
BRANCH   3  42
ATOM     42  C23 FSN d          18.976 -14.570  22.154  0.00  0.00     0.029 C 
ATOM     43  H1  FSN d          19.495 -15.302  21.518  0.00  0.00     0.072 H 
ATOM     44  H2  FSN d          18.046 -15.013  22.540  0.00  0.00     0.072 H 
BRANCH  42  45
ATOM     45  C24 FSN d          19.865 -14.195  23.308  0.00  0.00    -0.040 A 
ATOM     46  C32 FSN d          19.300 -14.063  24.591  0.00  0.00    -0.072 A 
ATOM     47  C31 FSN d          20.126 -13.749  25.670  0.00  0.00    -0.045 A 
ATOM     48  H3  FSN d          18.236 -14.204  24.739  0.00  0.00     0.084 H 
ATOM     49  C30 FSN d          21.495 -13.572  25.429  0.00  0.00     0.116 A 
ATOM     50  H4  FSN d          19.720 -13.644  26.669  0.00  0.00     0.088 H 
ATOM     51  F29 FSN d          22.239 -13.292  26.513  0.00  0.00    -0.206 F 
ATOM     52  C26 FSN d          22.105 -13.678  24.170  0.00  0.00    -0.045 A 
ATOM     53  C25 FSN d          21.250 -13.997  23.085  0.00  0.00    -0.072 A 
ATOM     54  H5  FSN d          23.170 -13.525  24.035  0.00  0.00     0.088 H 
ATOM     55  H6  FSN d          21.657 -14.090  22.085  0.00  0.00     0.084 H 
ENDBRANCH  42  45
ENDBRANCH   3  42
TORSDOF 5
ENDMDL
MODEL 2
REMARK VINA RESULT:      -8.6      3.092      7.108
REMARK  5 active torsions:
REMARK  status: ('A' for Active; 'I' for Inactive)
REMARK    1  A    between atoms: N19_3  and  C23_4 
REMARK    2  A    between atoms: C23_4  and  C24_5 
REMARK    3  A    between atoms: C10_20  and  C7_21 
REMARK    4  A    between atoms: C4_24  and  C3_27 
REMARK    5  A    between atoms: C3_27  and  N1_28 
ROOT
ATOM      1  O21 FSN d          16.655 -12.042  21.720  0.00  0.00    -0.272 OA
ATOM      2  C20 FSN d          16.170 -12.058  20.603  0.00  0.00     0.234 C 
ATOM      3  N19 FSN d          15.187 -11.130  20.192  0.00  0.00    -0.283 N 
ATOM      4  C17 FSN d          14.942 -11.248  18.794  0.00  0.00     0.233 C 
ATOM      5  O18 FSN d          14.134 -10.584  18.164  0.00  0.00    -0.272 OA
ATOM      6  C16 FSN d          15.819 -12.281  18.248  0.00  0.00     0.066 C 
ATOM      7  C15 FSN d          17.077 -11.777  17.542  0.00  0.00     0.117 C 
ATOM      8  N11 FSN d          18.340 -11.766  18.417  0.00  0.00    -0.057 N 
ATOM      9  C12 FSN d          19.398 -12.035  17.401  0.00  0.00     0.085 C 
ATOM     10  C13 FSN d          18.796 -11.519  16.055  0.00  0.00    -0.040 C 
ATOM     11  C14 FSN d          17.343 -12.012  16.111  0.00  0.00    -0.036 C 
ATOM     12  C10 FSN d          17.996 -13.048  19.171  0.00  0.00     0.142 C 
ATOM     13  C22 FSN d          16.513 -12.953  19.476  0.00  0.00     0.069 C 
ATOM     14  H7  FSN d          15.246 -12.979  17.620  0.00  0.00     0.059 H 
ATOM     15  H8  FSN d          16.839 -10.703  17.505  0.00  0.00     0.086 H 
ATOM     16  H9  FSN d          18.507 -10.953  18.989  0.00  0.00     0.281 HD
ATOM     17  H10 FSN d          19.613 -13.113  17.342  0.00  0.00     0.076 H 
ATOM     18  H11 FSN d          20.321 -11.490  17.648  0.00  0.00     0.076 H 
ATOM     19  H12 FSN d          19.326 -11.951  15.194  0.00  0.00     0.035 H 
ATOM     20  H13 FSN d          18.838 -10.421  15.999  0.00  0.00     0.035 H 
ATOM     21  H14 FSN d          16.679 -11.418  15.465  0.00  0.00     0.036 H 
ATOM     22  H15 FSN d          17.257 -13.077  15.845  0.00  0.00     0.036 H 
ATOM     23  H16 FSN d          18.089 -13.862  18.438  0.00  0.00     0.093 H 
ATOM     24  H25 FSN d          16.115 -13.961  19.662  0.00  0.00     0.059 H 
ENDROOT
BRANCH  12  25
ATOM     25  C7  FSN d          18.945 -13.456  20.258  0.00  0.00    -0.027 A 
ATOM     26  C8  FSN d          20.005 -12.603  20.549  0.00  0.00    -0.074 A 
ATOM     27  C9  FSN d          20.875 -12.906  21.588  0.00  0.00    -0.069 A 
ATOM     28  H17 FSN d          20.152 -11.702  19.965  0.00  0.00     0.084 H 
ATOM     29  C4  FSN d          20.663 -14.099  22.334  0.00  0.00     0.007 A 
ATOM     30  H18 FSN d          21.701 -12.246  21.825  0.00  0.00     0.085 H 
ATOM     31  C5  FSN d          19.596 -14.957  22.048  0.00  0.00    -0.069 A 
ATOM     32  C6  FSN d          18.722 -14.640  21.003  0.00  0.00    -0.074 A 
ATOM     33  H19 FSN d          19.448 -15.858  22.631  0.00  0.00     0.085 H 
ATOM     34  H20 FSN d          17.887 -15.290  20.767  0.00  0.00     0.084 H 
BRANCH  29  35
ATOM     35  C3  FSN d          21.595 -14.405  23.407  0.00  0.00     0.102 C 
ATOM     36  N2  FSN d          21.321 -15.309  24.381  0.00  0.00    -0.385 N 
ATOM     37  H23 FSN d          20.425 -15.815  24.376  0.00  0.00     0.157 HD
ATOM     38  H24 FSN d          22.011 -15.490  25.125  0.00  0.00     0.157 HD
BRANCH  35  39
ATOM     39  N1  FSN d          22.803 -13.791  23.500  0.00  0.00    -0.385 N 
ATOM     40  H21 FSN d          23.658 -14.353  23.618  0.00  0.00     0.157 HD
ATOM     41  H22 FSN d          22.864 -12.764  23.454  0.00  0.00     0.157 HD
ENDBRANCH  35  39
ENDBRANCH  29  35
ENDBRANCH  12  25
BRANCH   3  42
ATOM     42  C23 FSN d          14.732 -10.065  21.086  0.00  0.00     0.029 C 
ATOM     43  H1  FSN d          14.401  -9.204  20.486  0.00  0.00     0.072 H 
ATOM     44  H2  FSN d          15.561  -9.759  21.740  0.00  0.00     0.072 H 
BRANCH  42  45
ATOM     45  C24 FSN d          13.586 -10.554  21.929  0.00  0.00    -0.040 A 
ATOM     46  C32 FSN d          13.171 -11.894  21.808  0.00  0.00    -0.072 A 
ATOM     47  C31 FSN d          12.132 -12.360  22.612  0.00  0.00    -0.045 A 
ATOM     48  H3  FSN d          13.653 -12.555  21.097  0.00  0.00     0.084 H 
ATOM     49  C30 FSN d          11.536 -11.468  23.513  0.00  0.00     0.116 A 
ATOM     50  H4  FSN d          11.794 -13.388  22.542  0.00  0.00     0.088 H 
ATOM     51  F29 FSN d          10.555 -11.985  24.273  0.00  0.00    -0.206 F 
ATOM     52  C26 FSN d          11.902 -10.122  23.663  0.00  0.00    -0.045 A 
ATOM     53  C25 FSN d          12.960  -9.665  22.837  0.00  0.00    -0.072 A 
ATOM     54  H5  FSN d          11.405  -9.469  24.371  0.00  0.00     0.088 H 
ATOM     55  H6  FSN d          13.289  -8.634  22.900  0.00  0.00     0.084 H 
ENDBRANCH  42  45
ENDBRANCH   3  42
TORSDOF 5
ENDMDL
MODEL 3
REMARK VINA RESULT:      -8.0      1.755      2.527
REMARK  5 active torsions:
REMARK  status: ('A' for Active; 'I' for Inactive)
REMARK    1  A    between atoms: N19_3  and  C23_4 
REMARK    2  A    between atoms: C23_4  and  C24_5 
REMARK    3  A    between atoms: C10_20  and  C7_21 
REMARK    4  A    between atoms: C4_24  and  C3_27 
REMARK    5  A    between atoms: C3_27  and  N1_28 
ROOT
ATOM      1  O21 FSN d          16.552 -10.877  21.204  0.00  0.00    -0.272 OA
ATOM      2  C20 FSN d          16.839 -11.207  20.067  0.00  0.00     0.234 C 
ATOM      3  N19 FSN d          18.154 -11.560  19.692  0.00  0.00    -0.283 N 
ATOM      4  C17 FSN d          18.171 -12.089  18.369  0.00  0.00     0.233 C 
ATOM      5  O18 FSN d          19.170 -12.465  17.776  0.00  0.00    -0.272 OA
ATOM      6  C16 FSN d          16.804 -12.113  17.854  0.00  0.00     0.066 C 
ATOM      7  C15 FSN d          16.096 -13.466  17.919  0.00  0.00     0.117 C 
ATOM      8  N11 FSN d          15.186 -13.654  19.142  0.00  0.00    -0.057 N 
ATOM      9  C12 FSN d          14.124 -14.538  18.581  0.00  0.00     0.085 C 
ATOM     10  C13 FSN d          14.821 -15.294  17.403  0.00  0.00    -0.040 C 
ATOM     11  C14 FSN d          15.641 -14.191  16.718  0.00  0.00    -0.036 C 
ATOM     12  C10 FSN d          14.700 -12.206  19.176  0.00  0.00     0.142 C 
ATOM     13  C22 FSN d          15.931 -11.360  18.909  0.00  0.00     0.069 C 
ATOM     14  H7  FSN d          16.766 -11.676  16.846  0.00  0.00     0.059 H 
ATOM     15  H8  FSN d          16.952 -14.099  18.196  0.00  0.00     0.086 H 
ATOM     16  H9  FSN d          15.607 -13.993  19.992  0.00  0.00     0.281 HD
ATOM     17  H10 FSN d          13.277 -13.941  18.212  0.00  0.00     0.076 H 
ATOM     18  H11 FSN d          13.769 -15.249  19.342  0.00  0.00     0.076 H 
ATOM     19  H12 FSN d          14.077 -15.719  16.713  0.00  0.00     0.035 H 
ATOM     20  H13 FSN d          15.473 -16.095  17.779  0.00  0.00     0.035 H 
ATOM     21  H14 FSN d          16.483 -14.601  16.140  0.00  0.00     0.036 H 
ATOM     22  H15 FSN d          15.020 -13.560  16.065  0.00  0.00     0.036 H 
ATOM     23  H16 FSN d          14.065 -12.082  18.287  0.00  0.00     0.093 H 
ATOM     24  H25 FSN d          15.620 -10.372  18.542  0.00  0.00     0.059 H 
ENDROOT
BRANCH  12  25
ATOM     25  C7  FSN d          13.786 -11.837  20.305  0.00  0.00    -0.027 A 
ATOM     26  C8  FSN d          13.616 -12.760  21.332  0.00  0.00    -0.074 A 
ATOM     27  C9  FSN d          12.828 -12.440  22.430  0.00  0.00    -0.069 A 
ATOM     28  H17 FSN d          14.099 -13.728  21.276  0.00  0.00     0.084 H 
ATOM     29  C4  FSN d          12.200 -11.164  22.475  0.00  0.00     0.007 A 
ATOM     30  H18 FSN d          12.693 -13.150  23.238  0.00  0.00     0.085 H 
ATOM     31  C5  FSN d          12.372 -10.231  21.446  0.00  0.00    -0.069 A 
ATOM     32  C6  FSN d          13.172 -10.561  20.348  0.00  0.00    -0.074 A 
ATOM     33  H19 FSN d          11.889  -9.262  21.501  0.00  0.00     0.085 H 
ATOM     34  H20 FSN d          13.319  -9.851  19.542  0.00  0.00     0.084 H 
BRANCH  29  35
ATOM     35  C3  FSN d          11.367 -10.855  23.626  0.00  0.00     0.102 C 
ATOM     36  N2  FSN d          11.141  -9.586  24.049  0.00  0.00    -0.385 N 
ATOM     37  H23 FSN d          11.564  -8.793  23.546  0.00  0.00     0.157 HD
ATOM     38  H24 FSN d          10.547  -9.415  24.873  0.00  0.00     0.157 HD
BRANCH  35  39
ATOM     39  N1  FSN d          10.766 -11.831  24.354  0.00  0.00    -0.385 N 
ATOM     40  H21 FSN d           9.872 -12.233  24.038  0.00  0.00     0.157 HD
ATOM     41  H22 FSN d          11.205 -12.170  25.222  0.00  0.00     0.157 HD
ENDBRANCH  35  39
ENDBRANCH  29  35
ENDBRANCH  12  25
BRANCH   3  42
ATOM     42  C23 FSN d          19.239 -11.588  20.673  0.00  0.00     0.029 C 
ATOM     43  H1  FSN d          19.304 -10.610  21.172  0.00  0.00     0.072 H 
ATOM     44  H2  FSN d          20.188 -11.802  20.160  0.00  0.00     0.072 H 
BRANCH  42  45
ATOM     45  C24 FSN d          18.977 -12.655  21.701  0.00  0.00    -0.040 A 
ATOM     46  C32 FSN d          19.715 -12.643  22.900  0.00  0.00    -0.072 A 
ATOM     47  C31 FSN d          19.452 -13.610  23.870  0.00  0.00    -0.045 A 
ATOM     48  H3  FSN d          20.478 -11.892  23.068  0.00  0.00     0.084 H 
ATOM     49  C30 FSN d          18.459 -14.563  23.607  0.00  0.00     0.116 A 
ATOM     50  H4  FSN d          20.002 -13.624  24.804  0.00  0.00     0.088 H 
ATOM     51  F29 FSN d          18.240 -15.454  24.590  0.00  0.00    -0.206 F 
ATOM     52  C26 FSN d          17.707 -14.627  22.425  0.00  0.00    -0.045 A 
ATOM     53  C25 FSN d          17.988 -13.637  21.450  0.00  0.00    -0.072 A 
ATOM     54  H5  FSN d          16.953 -15.390  22.266  0.00  0.00     0.088 H 
ATOM     55  H6  FSN d          17.445 -13.632  20.511  0.00  0.00     0.084 H 
ENDBRANCH  42  45
ENDBRANCH   3  42
TORSDOF 5
ENDMDL
