MODEL 1
REMARK VINA RESULT:      -8.0      0.000      0.000
REMARK  15 active torsions:
REMARK  status: ('A' for Active; 'I' for Inactive)
REMARK    1  A    between atoms: C1_1  and  C2_2 
REMARK    2  A    between atoms: C2_2  and  N6_6 
REMARK    3  A    between atoms: C2_2  and  C3_3 
REMARK    4  A    between atoms: N6_6  and  C7_7 
REMARK    5  A    between atoms: C7_7  and  C16_16 
REMARK    6  A    between atoms: C7_7  and  C8_8 
REMARK    7  A    between atoms: C8_8  and  C9_9 
REMARK    8  A    between atoms: C9_9  and  C10_10 
REMARK       I    between atoms: C16_16  and  N18_18 
REMARK    9  A    between atoms: N18_18  and  C19_19 
REMARK   10  A    between atoms: C19_19  and  C27_27 
REMARK   11  A    between atoms: C19_19  and  C20_20 
REMARK   12  A    between atoms: C20_20  and  C21_21 
REMARK   13  A    between atoms: C21_21  and  C22_22 
REMARK   14  A    between atoms: C22_22  and  N23_23 
REMARK       I    between atoms: N23_23  and  C24_24 
REMARK       I    between atoms: C24_24  and  N25_25 
REMARK       I    between atoms: C27_27  and  N29_29 
REMARK   15  A    between atoms: N29_29  and  C30_30 
ROOT
ATOM      1  C16 INH d         -17.671  93.420  80.465  0.00  0.00     0.249 C 
ATOM      2  O17 INH d         -17.045  92.597  79.795  0.00  0.00    -0.271 OA
ATOM      3  N18 INH d         -17.616  94.729  80.248  0.00  0.00    -0.346 N 
ATOM      4  H17 INH d         -18.164  95.344  80.815  0.00  0.00     0.163 HD
ENDROOT
BRANCH   3   5
ATOM      5  C19 INH d         -16.772  95.285  79.200  0.00  0.00     0.089 C 
ATOM      6  H18 INH d         -16.716  94.563  78.371  0.00  0.00     0.087 H 
BRANCH   5   7
ATOM      7  C27 INH d         -15.374  95.571  79.719  0.00  0.00     0.245 C 
ATOM      8  N29 INH d         -14.402  95.514  78.806  0.00  0.00    -0.325 N 
ATOM      9  H30 INH d         -14.710  95.289  77.881  0.00  0.00     0.169 HD
ATOM     10  O28 INH d         -15.205  95.937  80.879  0.00  0.00    -0.271 OA
BRANCH   8  11
ATOM     11  C30 INH d         -13.055  95.712  78.928  0.00  0.00     0.034 A 
ATOM     12  C35 INH d         -12.486  96.432  79.967  0.00  0.00    -0.057 A 
ATOM     13  C34 INH d         -11.098  96.568  80.070  0.00  0.00    -0.081 A 
ATOM     14  H35 INH d         -13.125  96.895  80.710  0.00  0.00     0.086 H 
ATOM     15  C33 INH d         -10.274  95.981  79.125  0.00  0.00    -0.083 A 
ATOM     16  H34 INH d         -10.667  97.133  80.889  0.00  0.00     0.083 H 
ATOM     17  C32 INH d         -10.826  95.264  78.081  0.00  0.00    -0.081 A 
ATOM     18  H33 INH d          -9.198  96.083  79.204  0.00  0.00     0.083 H 
ATOM     19  C31 INH d         -12.217  95.132  77.982  0.00  0.00    -0.057 A 
ATOM     20  H32 INH d         -10.184  94.803  77.338  0.00  0.00     0.083 H 
ATOM     21  H31 INH d         -12.644  94.571  77.159  0.00  0.00     0.086 H 
ENDBRANCH   8  11
ENDBRANCH   5   7
BRANCH   5  22
ATOM     22  C20 INH d         -17.335  96.590  78.695  0.00  0.00    -0.036 C 
ATOM     23  H19 INH d         -16.716  96.921  77.848  0.00  0.00     0.036 H 
ATOM     24  H20 INH d         -17.266  97.327  79.509  0.00  0.00     0.036 H 
BRANCH  22  25
ATOM     25  C21 INH d         -18.742  96.542  78.241  0.00  0.00    -0.048 C 
ATOM     26  H21 INH d         -19.396  96.180  79.049  0.00  0.00     0.035 H 
ATOM     27  H22 INH d         -18.843  95.882  77.367  0.00  0.00     0.035 H 
BRANCH  25  28
ATOM     28  C22 INH d         -19.082  97.935  77.883  0.00  0.00     0.009 C 
ATOM     29  H23 INH d         -18.430  98.250  77.055  0.00  0.00     0.064 H 
ATOM     30  H24 INH d         -18.898  98.575  78.760  0.00  0.00     0.064 H 
BRANCH  28  31
ATOM     31  N23 INH d         -20.461  98.104  77.472  0.00  0.00    -0.227 N 
ATOM     32  C24 INH d         -21.113  99.259  77.602  0.00  0.00     0.665 C 
ATOM     33  N26 INH d         -20.494 100.308  78.150  0.00  0.00    -0.235 N 
ATOM     34  N25 INH d         -22.378  99.365  77.196  0.00  0.00    -0.235 N 
ATOM     35  H28 INH d         -19.517 100.223  78.463  0.00  0.00     0.174 HD
ATOM     36  H29 INH d         -20.995 101.202  78.259  0.00  0.00     0.174 HD
ATOM     37  H26 INH d         -22.878 100.260  77.299  0.00  0.00     0.174 HD
ATOM     38  H27 INH d         -22.855  98.553  76.780  0.00  0.00     0.174 HD
ATOM     39  H25 INH d         -20.956  97.300  77.062  0.00  0.00     0.177 HD
ENDBRANCH  28  31
ENDBRANCH  25  28
ENDBRANCH  22  25
ENDBRANCH   5  22
ENDBRANCH   3   5
BRANCH   1  40
ATOM     40  C7  INH d         -18.573  92.958  81.600  0.00  0.00     0.179 C 
ATOM     41  H7  INH d         -19.277  93.760  81.867  0.00  0.00     0.099 H 
BRANCH  40  42
ATOM     42  N6  INH d         -19.312  91.772  81.147  0.00  0.00    -0.049 N 
ATOM     43  H5  INH d         -18.832  91.387  80.349  0.00  0.00     0.279 HD
ATOM     44  H6  INH d         -19.316  91.097  81.895  0.00  0.00     0.279 HD
BRANCH  42  45
ATOM     45  C2  INH d         -20.718  92.043  80.757  0.00  0.00     0.182 C 
ATOM     46  H4  INH d         -21.045  91.197  80.134  0.00  0.00     0.101 H 
BRANCH  45  47
ATOM     47  C1  INH d         -20.758  93.312  79.884  0.00  0.00    -0.040 C 
ATOM     48  H1  INH d         -21.796  93.522  79.588  0.00  0.00     0.031 H 
ATOM     49  H2  INH d         -20.145  93.157  78.983  0.00  0.00     0.031 H 
ATOM     50  H3  INH d         -20.359  94.164  80.455  0.00  0.00     0.031 H 
ENDBRANCH  45  47
BRANCH  45  51
ATOM     51  C3  INH d         -21.712  92.139  81.913  0.00  0.00     0.204 C 
ATOM     52  O5  INH d         -21.478  91.599  83.025  0.00  0.00    -0.646 OA
ATOM     53  O4  INH d         -22.759  92.769  81.717  0.00  0.00    -0.646 OA
ENDBRANCH  45  51
ENDBRANCH  42  45
ENDBRANCH  40  42
BRANCH  40  54
ATOM     54  C8  INH d         -17.722  92.591  82.827  0.00  0.00    -0.026 C 
ATOM     55  H8  INH d         -17.089  91.730  82.566  0.00  0.00     0.037 H 
ATOM     56  H9  INH d         -18.399  92.313  83.648  0.00  0.00     0.037 H 
BRANCH  54  57
ATOM     57  C9  INH d         -16.821  93.720  83.308  0.00  0.00    -0.039 C 
ATOM     58  H10 INH d         -17.461  94.596  83.491  0.00  0.00     0.040 H 
ATOM     59  H11 INH d         -16.113  93.944  82.497  0.00  0.00     0.040 H 
BRANCH  57  60
ATOM     60  C10 INH d         -16.020  93.484  84.549  0.00  0.00    -0.058 A 
ATOM     61  C15 INH d         -15.164  92.396  84.649  0.00  0.00    -0.077 A 
ATOM     62  C14 INH d         -14.403  92.199  85.794  0.00  0.00    -0.082 A 
ATOM     63  H16 INH d         -15.089  91.695  83.826  0.00  0.00     0.084 H 
ATOM     64  C13 INH d         -14.500  93.098  86.850  0.00  0.00    -0.083 A 
ATOM     65  H15 INH d         -13.737  91.347  85.863  0.00  0.00     0.083 H 
ATOM     66  C12 INH d         -15.350  94.183  86.759  0.00  0.00    -0.082 A 
ATOM     67  H14 INH d         -13.907  92.948  87.745  0.00  0.00     0.083 H 
ATOM     68  C11 INH d         -16.101  94.372  85.618  0.00  0.00    -0.077 A 
ATOM     69  H13 INH d         -15.428  94.883  87.582  0.00  0.00     0.083 H 
ATOM     70  H12 INH d         -16.765  95.227  85.553  0.00  0.00     0.084 H 
ENDBRANCH  57  60
ENDBRANCH  54  57
ENDBRANCH  40  54
ENDBRANCH   1  40
TORSDOF 15
ENDMDL
