MODEL 1
REMARK VINA RESULT:      -7.4      0.000      0.000
REMARK  2 active torsions:
REMARK  status: ('A' for Active; 'I' for Inactive)
REMARK    1  A    between atoms: C6_1  and  N4_2 
REMARK    2  A    between atoms: C8_7  and  N2_8 
ROOT
ATOM      1  C6  DQU d          18.265  16.762  19.163  0.00  0.00     0.026 C 
ATOM      2  C1  DQU d          16.955  16.464  18.775  0.00  0.00    -0.056 C 
ATOM      3  C2  DQU d          15.972  16.261  19.720  0.00  0.00    -0.051 C 
ATOM      4  C3  DQU d          16.267  16.489  21.083  0.00  0.00     0.091 A 
ATOM      5  N3  DQU d          15.278  16.407  22.040  0.00  0.00    -0.064 NA
ATOM      6  C8  DQU d          15.521  16.579  23.312  0.00  0.00     0.701 A 
ATOM      7  N1  DQU d          16.796  16.958  23.794  0.00  0.00    -0.154 N 
ATOM      8  C7  DQU d          17.838  17.137  22.861  0.00  0.00     0.272 A 
ATOM      9  O1  DQU d          18.999  17.358  23.238  0.00  0.00    -0.267 OA
ATOM     10  C4  DQU d          17.564  16.903  21.450  0.00  0.00     0.064 A 
ATOM     11  C5  DQU d          18.535  17.086  20.472  0.00  0.00    -0.040 C 
ATOM     12  H3  DQU d          16.710  16.393  17.722  0.00  0.00     0.087 H 
ATOM     13  H4  DQU d          14.984  15.930  19.421  0.00  0.00     0.087 H 
ATOM     14  H7  DQU d          16.954  17.095  24.772  0.00  0.00     0.187 HD
ATOM     15  H8  DQU d          19.507  17.485  20.742  0.00  0.00     0.088 H 
ENDROOT
BRANCH   1  16
ATOM     16  N4  DQU d          19.282  17.050  18.105  0.00  0.00    -0.399 N 
ATOM     17  H1  DQU d          19.835  16.281  17.700  0.00  0.00     0.156 HD
ATOM     18  H2  DQU d          19.430  18.016  17.781  0.00  0.00     0.156 HD
ENDBRANCH   1  16
BRANCH   6  19
ATOM     19  N2  DQU d          14.534  16.466  24.286  0.00  0.00    -0.233 N 
ATOM     20  H5  DQU d          14.438  15.593  24.823  0.00  0.00     0.174 HD
ATOM     21  H6  DQU d          13.899  17.257  24.470  0.00  0.00     0.174 HD
ENDBRANCH   6  19
TORSDOF 2
ENDMDL
MODEL 2
REMARK VINA RESULT:      -5.3      1.863      2.661
REMARK  2 active torsions:
REMARK  status: ('A' for Active; 'I' for Inactive)
REMARK    1  A    between atoms: C6_1  and  N4_2 
REMARK    2  A    between atoms: C8_7  and  N2_8 
ROOT
ATOM      1  C6  DQU d          18.783  17.106  18.599  0.00  0.00     0.026 C 
ATOM      2  C1  DQU d          19.631  17.287  19.696  0.00  0.00    -0.056 C 
ATOM      3  C2  DQU d          19.129  17.275  20.980  0.00  0.00    -0.051 C 
ATOM      4  C3  DQU d          17.772  16.942  21.187  0.00  0.00     0.091 A 
ATOM      5  N3  DQU d          17.267  16.807  22.463  0.00  0.00    -0.064 NA
ATOM      6  C8  DQU d          16.011  16.532  22.692  0.00  0.00     0.701 A 
ATOM      7  N1  DQU d          15.095  16.256  21.651  0.00  0.00    -0.154 N 
ATOM      8  C7  DQU d          15.562  16.298  20.320  0.00  0.00     0.272 A 
ATOM      9  O1  DQU d          14.778  16.177  19.367  0.00  0.00    -0.267 OA
ATOM     10  C4  DQU d          16.955  16.646  20.077  0.00  0.00     0.064 A 
ATOM     11  C5  DQU d          17.490  16.680  18.794  0.00  0.00    -0.040 C 
ATOM     12  H3  DQU d          20.692  17.440  19.536  0.00  0.00     0.087 H 
ATOM     13  H4  DQU d          19.769  17.518  21.821  0.00  0.00     0.087 H 
ATOM     14  H7  DQU d          14.140  16.037  21.852  0.00  0.00     0.187 HD
ATOM     15  H8  DQU d          16.888  16.372  17.947  0.00  0.00     0.088 H 
ENDROOT
BRANCH   1  16
ATOM     16  N4  DQU d          19.381  17.052  17.228  0.00  0.00    -0.399 N 
ATOM     17  H1  DQU d          18.914  17.527  16.444  0.00  0.00     0.156 HD
ATOM     18  H2  DQU d          20.259  16.539  17.069  0.00  0.00     0.156 HD
ENDBRANCH   1  16
BRANCH   6  19
ATOM     19  N2  DQU d          15.489  16.426  23.978  0.00  0.00    -0.233 N 
ATOM     20  H5  DQU d          14.660  16.976  24.244  0.00  0.00     0.174 HD
ATOM     21  H6  DQU d          15.932  15.798  24.664  0.00  0.00     0.174 HD
ENDBRANCH   6  19
TORSDOF 2
ENDMDL
