MODEL 1
REMARK VINA RESULT:      -3.8      0.000      0.000
REMARK  13 active torsions:
REMARK  status: ('A' for Active; 'I' for Inactive)
REMARK    1  A    between atoms: C_1  and  CH3_3 
REMARK       I    between atoms: N_4  and  C_1 
REMARK    2  A    between atoms: CA_5  and  N_4 
REMARK    3  A    between atoms: C_6  and  CA_5 
REMARK    4  A    between atoms: CA_5  and  CB_8 
REMARK       I    between atoms: N_25  and  C_6 
REMARK    5  A    between atoms: CB_8  and  CG_9 
REMARK    6  A    between atoms: CZ_14  and  OH_15 
REMARK    7  A    between atoms: OH_15  and  P_16 
REMARK    8  A    between atoms: CA_22  and  C_23 
REMARK    9  A    between atoms: CA_22  and  N_25 
REMARK       I    between atoms: C_23  and  N_26 
REMARK   10  A    between atoms: N_26  and  CA_27 
REMARK   11  A    between atoms: CA_27  and  C_28 
REMARK   12  A    between atoms: CA_27  and  CB_30 
REMARK       I    between atoms: C_28  and  N_34 
REMARK   13  A    between atoms: CB_30  and  CG_31 
REMARK       I    between atoms: CG_31  and  ND2_33 
ROOT
ATOM      1  C   ACT d         -11.946  14.745   2.640  0.00  0.00     0.241 C 
ATOM      2  O   ACT d         -12.376  15.872   2.367  0.00  0.00    -0.271 OA
ATOM      3  N   ACT d         -12.672  13.815   3.316  0.00  0.00    -0.341 N 
ATOM      4  H16 ACT d         -12.286  12.932   3.584  0.00  0.00     0.163 HD
ENDROOT
BRANCH   1   5
ATOM      5  CA  ACT d         -10.517  14.312   2.254  0.00  0.00     0.093 C 
ATOM      6  H5  ACT d         -10.163  14.892   1.389  0.00  0.00     0.088 H 
BRANCH   5   7
ATOM      7  N   ACT d          -9.576  14.535   3.410  0.00  0.00    -0.348 N 
ATOM      8  C   ACT d          -8.770  15.558   3.368  0.00  0.00     0.214 C 
ATOM      9  O   ACT d          -8.757  16.418   2.476  0.00  0.00    -0.274 OA
ATOM     10  H4  ACT d          -9.571  13.911   4.192  0.00  0.00     0.163 HD
BRANCH   8  11
ATOM     11  CH3 ACT d          -7.818  15.658   4.526  0.00  0.00    -0.003 C 
ATOM     12  H1  ACT d          -8.307  16.186   5.358  0.00  0.00     0.040 H 
ATOM     13  H2  ACT d          -6.921  16.214   4.217  0.00  0.00     0.040 H 
ATOM     14  H3  ACT d          -7.529  14.648   4.851  0.00  0.00     0.040 H 
ENDBRANCH   8  11
ENDBRANCH   5   7
BRANCH   5  15
ATOM     15  CB  ACT d         -10.623  12.831   1.883  0.00  0.00    -0.014 C 
ATOM     16  H6  ACT d         -11.534  12.396   2.319  0.00  0.00     0.043 H 
ATOM     17  H7  ACT d          -9.742  12.285   2.252  0.00  0.00     0.043 H 
BRANCH  15  18
ATOM     18  CG  ACT d         -10.686  12.753   0.330  0.00  0.00    -0.056 A 
ATOM     19  CD1 ACT d         -10.401  13.893  -0.396  0.00  0.00    -0.074 A 
ATOM     20  CE1 ACT d         -10.481  13.913  -1.767  0.00  0.00    -0.050 A 
ATOM     21  H8  ACT d         -10.106  14.794   0.130  0.00  0.00     0.084 H 
ATOM     22  CZ  ACT d         -10.933  12.799  -2.470  0.00  0.00     0.082 A 
ATOM     23  H10 ACT d         -10.189  14.806  -2.307  0.00  0.00     0.087 H 
ATOM     24  CE2 ACT d         -11.227  11.654  -1.726  0.00  0.00    -0.050 A 
ATOM     25  CD2 ACT d         -11.101  11.590  -0.326  0.00  0.00    -0.074 A 
ATOM     26  H11 ACT d         -11.570  10.771  -2.253  0.00  0.00     0.087 H 
ATOM     27  H9  ACT d         -11.316  10.679   0.221  0.00  0.00     0.084 H 
BRANCH  22  28
ATOM     28  OH  ACT d         -11.056  12.913  -3.861  0.00  0.00    -0.240 OA
BRANCH  28  29
ATOM     29  P   ACT d          -9.977  12.319  -4.935  0.00  0.00     0.427 P 
ATOM     30  O1P ACT d         -10.809  11.131  -5.503  0.00  0.00    -0.617 OA
ATOM     31  O2P ACT d          -9.777  13.378  -5.966  0.00  0.00    -0.617 OA
ATOM     32  O3P ACT d          -8.869  11.800  -4.171  0.00  0.00    -0.617 OA
ENDBRANCH  28  29
ENDBRANCH  22  28
ENDBRANCH  15  18
ENDBRANCH   5  15
ENDBRANCH   1   5
BRANCH   3  33
ATOM     33  CA  ACT d         -14.020  14.177   3.622  0.00  0.00     0.114 A 
ATOM     34  CB  ACT d         -14.454  14.110   5.047  0.00  0.00    -0.030 A 
ATOM     35  CG  ACT d         -14.237  15.459   4.408  0.00  0.00    -0.030 A 
ATOM     36  H12 ACT d         -15.474  13.780   5.294  0.00  0.00     0.037 H 
ATOM     37  H13 ACT d         -13.755  13.749   5.815  0.00  0.00     0.037 H 
ATOM     38  H14 ACT d         -13.377  16.077   4.704  0.00  0.00     0.037 H 
ATOM     39  H15 ACT d         -15.095  16.108   4.182  0.00  0.00     0.037 H 
BRANCH  33  40
ATOM     40  C   ACT d         -15.018  14.023   2.492  0.00  0.00     0.246 C 
ATOM     41  O   ACT d         -15.862  13.100   2.520  0.00  0.00    -0.271 OA
ATOM     42  N   ACT d         -14.947  14.893   1.472  0.00  0.00    -0.345 N 
ATOM     43  H17 ACT d         -14.285  15.641   1.522  0.00  0.00     0.163 HD
BRANCH  42  44
ATOM     44  CA  ACT d         -15.789  14.789   0.306  0.00  0.00     0.097 C 
ATOM     45  H18 ACT d         -16.804  14.517   0.629  0.00  0.00     0.088 H 
BRANCH  44  46
ATOM     46  C   ACT d         -15.258  13.661  -0.618  0.00  0.00     0.238 C 
ATOM     47  O   ACT d         -15.862  13.401  -1.678  0.00  0.00    -0.271 OA
ATOM     48  N   ACT d         -14.186  12.956  -0.225  0.00  0.00    -0.368 N 
ATOM     49  H23 ACT d         -13.829  12.225  -0.805  0.00  0.00     0.159 HD
ATOM     50  H24 ACT d         -13.746  13.162   0.649  0.00  0.00     0.159 HD
ENDBRANCH  44  46
BRANCH  44  51
ATOM     51  CB  ACT d         -15.868  16.151  -0.412  0.00  0.00     0.036 C 
ATOM     52  H19 ACT d         -16.035  16.936   0.341  0.00  0.00     0.051 H 
ATOM     53  H20 ACT d         -16.714  16.129  -1.114  0.00  0.00     0.051 H 
BRANCH  51  54
ATOM     54  CG  ACT d         -14.595  16.488  -1.193  0.00  0.00     0.217 C 
ATOM     55  OD1 ACT d         -13.562  16.726  -0.579  0.00  0.00    -0.274 OA
ATOM     56  ND2 ACT d         -14.703  16.481  -2.539  0.00  0.00    -0.370 N 
ATOM     57  H21 ACT d         -13.908  16.693  -3.106  0.00  0.00     0.159 HD
ATOM     58  H22 ACT d         -15.580  16.263  -2.969  0.00  0.00     0.159 HD
ENDBRANCH  51  54
ENDBRANCH  44  51
ENDBRANCH  42  44
ENDBRANCH  33  40
ENDBRANCH   3  33
TORSDOF 13
ENDMDL
MODEL 2
REMARK VINA RESULT:      -3.7      3.726      7.641
REMARK  13 active torsions:
REMARK  status: ('A' for Active; 'I' for Inactive)
REMARK    1  A    between atoms: C_1  and  CH3_3 
REMARK       I    between atoms: N_4  and  C_1 
REMARK    2  A    between atoms: CA_5  and  N_4 
REMARK    3  A    between atoms: C_6  and  CA_5 
REMARK    4  A    between atoms: CA_5  and  CB_8 
REMARK       I    between atoms: N_25  and  C_6 
REMARK    5  A    between atoms: CB_8  and  CG_9 
REMARK    6  A    between atoms: CZ_14  and  OH_15 
REMARK    7  A    between atoms: OH_15  and  P_16 
REMARK    8  A    between atoms: CA_22  and  C_23 
REMARK    9  A    between atoms: CA_22  and  N_25 
REMARK       I    between atoms: C_23  and  N_26 
REMARK   10  A    between atoms: N_26  and  CA_27 
REMARK   11  A    between atoms: CA_27  and  C_28 
REMARK   12  A    between atoms: CA_27  and  CB_30 
REMARK       I    between atoms: C_28  and  N_34 
REMARK   13  A    between atoms: CB_30  and  CG_31 
REMARK       I    between atoms: CG_31  and  ND2_33 
ROOT
ATOM      1  C   ACT d         -12.530  15.236  -2.638  0.00  0.00     0.241 C 
ATOM      2  O   ACT d         -11.509  15.777  -3.081  0.00  0.00    -0.271 OA
ATOM      3  N   ACT d         -13.258  14.329  -3.343  0.00  0.00    -0.341 N 
ATOM      4  H16 ACT d         -14.115  13.950  -2.995  0.00  0.00     0.163 HD
ENDROOT
BRANCH   1   5
ATOM      5  CA  ACT d         -13.083  15.580  -1.240  0.00  0.00     0.093 C 
ATOM      6  H5  ACT d         -13.861  16.354  -1.317  0.00  0.00     0.088 H 
BRANCH   5   7
ATOM      7  N   ACT d         -13.674  14.353  -0.598  0.00  0.00    -0.348 N 
ATOM      8  C   ACT d         -14.956  14.329  -0.363  0.00  0.00     0.214 C 
ATOM      9  O   ACT d         -15.756  15.216  -0.689  0.00  0.00    -0.274 OA
ATOM     10  H4  ACT d         -13.095  13.573  -0.357  0.00  0.00     0.163 HD
BRANCH   8  11
ATOM     11  CH3 ACT d         -15.444  13.098   0.347  0.00  0.00    -0.003 C 
ATOM     12  H1  ACT d         -15.348  13.239   1.434  0.00  0.00     0.040 H 
ATOM     13  H2  ACT d         -14.842  12.232   0.035  0.00  0.00     0.040 H 
ATOM     14  H3  ACT d         -16.499  12.921   0.091  0.00  0.00     0.040 H 
ENDBRANCH   8  11
ENDBRANCH   5   7
BRANCH   5  15
ATOM     15  CB  ACT d         -11.888  16.120  -0.448  0.00  0.00    -0.014 C 
ATOM     16  H6  ACT d         -12.104  17.135  -0.083  0.00  0.00     0.043 H 
ATOM     17  H7  ACT d         -10.992  16.142  -1.086  0.00  0.00     0.043 H 
BRANCH  15  18
ATOM     18  CG  ACT d         -11.665  15.156   0.753  0.00  0.00    -0.056 A 
ATOM     19  CD1 ACT d         -10.848  14.058   0.571  0.00  0.00    -0.074 A 
ATOM     20  CE1 ACT d         -10.642  13.139   1.571  0.00  0.00    -0.050 A 
ATOM     21  H8  ACT d         -10.358  13.918  -0.386  0.00  0.00     0.084 H 
ATOM     22  CZ  ACT d         -11.318  13.244   2.785  0.00  0.00     0.082 A 
ATOM     23  H10 ACT d          -9.945  12.324   1.413  0.00  0.00     0.087 H 
ATOM     24  CE2 ACT d         -12.148  14.355   2.956  0.00  0.00    -0.050 A 
ATOM     25  CD2 ACT d         -12.334  15.339   1.967  0.00  0.00    -0.074 A 
ATOM     26  H11 ACT d         -12.675  14.464   3.897  0.00  0.00     0.087 H 
ATOM     27  H9  ACT d         -12.968  16.202   2.140  0.00  0.00     0.084 H 
BRANCH  22  28
ATOM     28  OH  ACT d         -11.111  12.235   3.733  0.00  0.00    -0.240 OA
BRANCH  28  29
ATOM     29  P   ACT d          -9.910  12.239   4.841  0.00  0.00     0.427 P 
ATOM     30  O1P ACT d          -8.769  11.617   3.984  0.00  0.00    -0.617 OA
ATOM     31  O2P ACT d          -9.629  13.670   5.155  0.00  0.00    -0.617 OA
ATOM     32  O3P ACT d         -10.291  11.307   5.874  0.00  0.00    -0.617 OA
ENDBRANCH  28  29
ENDBRANCH  22  28
ENDBRANCH  15  18
ENDBRANCH   5  15
ENDBRANCH   1   5
BRANCH   3  33
ATOM     33  CA  ACT d         -12.722  13.950  -4.613  0.00  0.00     0.114 A 
ATOM     34  CB  ACT d         -13.614  14.050  -5.804  0.00  0.00    -0.030 A 
ATOM     35  CG  ACT d         -12.502  15.055  -5.634  0.00  0.00    -0.030 A 
ATOM     36  H12 ACT d         -13.551  13.294  -6.600  0.00  0.00     0.037 H 
ATOM     37  H13 ACT d         -14.660  14.366  -5.679  0.00  0.00     0.037 H 
ATOM     38  H14 ACT d         -12.735  16.098  -5.377  0.00  0.00     0.037 H 
ATOM     39  H15 ACT d         -11.625  15.027  -6.298  0.00  0.00     0.037 H 
BRANCH  33  40
ATOM     40  C   ACT d         -11.571  12.966  -4.578  0.00  0.00     0.246 C 
ATOM     41  O   ACT d         -11.330  12.245  -5.571  0.00  0.00    -0.271 OA
ATOM     42  N   ACT d         -10.846  12.891  -3.450  0.00  0.00    -0.345 N 
ATOM     43  H17 ACT d         -11.050  13.524  -2.703  0.00  0.00     0.163 HD
BRANCH  42  44
ATOM     44  CA  ACT d          -9.783  11.932  -3.275  0.00  0.00     0.097 C 
ATOM     45  H18 ACT d          -9.429  11.986  -2.236  0.00  0.00     0.088 H 
BRANCH  44  46
ATOM     46  C   ACT d          -8.598  12.296  -4.209  0.00  0.00     0.238 C 
ATOM     47  O   ACT d          -7.917  13.312  -3.968  0.00  0.00    -0.271 OA
ATOM     48  N   ACT d          -8.368  11.531  -5.287  0.00  0.00    -0.368 N 
ATOM     49  H23 ACT d          -7.609  11.748  -5.901  0.00  0.00     0.159 HD
ATOM     50  H24 ACT d          -8.955  10.744  -5.476  0.00  0.00     0.159 HD
ENDBRANCH  44  46
BRANCH  44  51
ATOM     51  CB  ACT d         -10.313  10.505  -3.523  0.00  0.00     0.036 C 
ATOM     52  H19 ACT d          -9.986  10.178  -4.521  0.00  0.00     0.051 H 
ATOM     53  H20 ACT d         -11.412  10.529  -3.487  0.00  0.00     0.051 H 
BRANCH  51  54
ATOM     54  CG  ACT d          -9.812   9.495  -2.489  0.00  0.00     0.217 C 
ATOM     55  OD1 ACT d         -10.619   8.944  -1.751  0.00  0.00    -0.274 OA
ATOM     56  ND2 ACT d          -8.481   9.266  -2.478  0.00  0.00    -0.370 N 
ATOM     57  H21 ACT d          -8.091   8.616  -1.825  0.00  0.00     0.159 HD
ATOM     58  H22 ACT d          -7.885   9.745  -3.123  0.00  0.00     0.159 HD
ENDBRANCH  51  54
ENDBRANCH  44  51
ENDBRANCH  42  44
ENDBRANCH  33  40
ENDBRANCH   3  33
TORSDOF 13
ENDMDL
MODEL 3
REMARK VINA RESULT:      -3.6      1.387      1.816
REMARK  13 active torsions:
REMARK  status: ('A' for Active; 'I' for Inactive)
REMARK    1  A    between atoms: C_1  and  CH3_3 
REMARK       I    between atoms: N_4  and  C_1 
REMARK    2  A    between atoms: CA_5  and  N_4 
REMARK    3  A    between atoms: C_6  and  CA_5 
REMARK    4  A    between atoms: CA_5  and  CB_8 
REMARK       I    between atoms: N_25  and  C_6 
REMARK    5  A    between atoms: CB_8  and  CG_9 
REMARK    6  A    between atoms: CZ_14  and  OH_15 
REMARK    7  A    between atoms: OH_15  and  P_16 
REMARK    8  A    between atoms: CA_22  and  C_23 
REMARK    9  A    between atoms: CA_22  and  N_25 
REMARK       I    between atoms: C_23  and  N_26 
REMARK   10  A    between atoms: N_26  and  CA_27 
REMARK   11  A    between atoms: CA_27  and  C_28 
REMARK   12  A    between atoms: CA_27  and  CB_30 
REMARK       I    between atoms: C_28  and  N_34 
REMARK   13  A    between atoms: CB_30  and  CG_31 
REMARK       I    between atoms: CG_31  and  ND2_33 
ROOT
ATOM      1  C   ACT d         -11.495  15.278   2.491  0.00  0.00     0.241 C 
ATOM      2  O   ACT d         -11.647  16.437   2.084  0.00  0.00    -0.271 OA
ATOM      3  N   ACT d         -12.412  14.634   3.261  0.00  0.00    -0.341 N 
ATOM      4  H16 ACT d         -12.245  13.721   3.634  0.00  0.00     0.163 HD
ENDROOT
BRANCH   1   5
ATOM      5  CA  ACT d         -10.217  14.474   2.177  0.00  0.00     0.093 C 
ATOM      6  H5  ACT d          -9.675  14.933   1.337  0.00  0.00     0.088 H 
BRANCH   5   7
ATOM      7  N   ACT d          -9.314  14.440   3.383  0.00  0.00    -0.348 N 
ATOM      8  C   ACT d          -9.598  13.613   4.349  0.00  0.00     0.214 C 
ATOM      9  O   ACT d         -10.523  12.789   4.333  0.00  0.00    -0.274 OA
ATOM     10  H4  ACT d          -8.515  15.039   3.440  0.00  0.00     0.163 HD
BRANCH   8  11
ATOM     11  CH3 ACT d          -8.688  13.701   5.541  0.00  0.00    -0.003 C 
ATOM     12  H1  ACT d          -9.043  13.015   6.325  0.00  0.00     0.040 H 
ATOM     13  H2  ACT d          -8.688  14.730   5.928  0.00  0.00     0.040 H 
ATOM     14  H3  ACT d          -7.666  13.422   5.244  0.00  0.00     0.040 H 
ENDBRANCH   8  11
ENDBRANCH   5   7
BRANCH   5  15
ATOM     15  CB  ACT d         -10.699  13.074   1.786  0.00  0.00    -0.014 C 
ATOM     16  H6  ACT d         -11.692  12.882   2.218  0.00  0.00     0.043 H 
ATOM     17  H7  ACT d          -9.988  12.316   2.146  0.00  0.00     0.043 H 
BRANCH  15  18
ATOM     18  CG  ACT d         -10.777  13.037   0.232  0.00  0.00    -0.056 A 
ATOM     19  CD1 ACT d         -11.339  11.928  -0.370  0.00  0.00    -0.074 A 
ATOM     20  CE1 ACT d         -11.400  11.802  -1.736  0.00  0.00    -0.050 A 
ATOM     21  H8  ACT d         -11.741  11.136   0.252  0.00  0.00     0.084 H 
ATOM     22  CZ  ACT d         -10.822  12.761  -2.566  0.00  0.00     0.082 A 
ATOM     23  H10 ACT d         -11.904  10.948  -2.174  0.00  0.00     0.087 H 
ATOM     24  CE2 ACT d         -10.249  13.875  -1.946  0.00  0.00    -0.050 A 
ATOM     25  CD2 ACT d         -10.222  14.053  -0.550  0.00  0.00    -0.074 A 
ATOM     26  H11 ACT d          -9.803  14.640  -2.572  0.00  0.00     0.087 H 
ATOM     27  H9  ACT d          -9.789  14.940  -0.101  0.00  0.00     0.084 H 
BRANCH  22  28
ATOM     28  OH  ACT d         -10.861  12.535  -3.947  0.00  0.00    -0.240 OA
BRANCH  28  29
ATOM     29  P   ACT d         -11.887  13.282  -4.977  0.00  0.00     0.427 P 
ATOM     30  O1P ACT d         -13.204  13.164  -4.156  0.00  0.00    -0.617 OA
ATOM     31  O2P ACT d         -11.436  14.701  -5.070  0.00  0.00    -0.617 OA
ATOM     32  O3P ACT d         -11.981  12.449  -6.150  0.00  0.00    -0.617 OA
ENDBRANCH  28  29
ENDBRANCH  22  28
ENDBRANCH  15  18
ENDBRANCH   5  15
ENDBRANCH   1   5
BRANCH   3  33
ATOM     33  CA  ACT d         -13.630  15.341   3.505  0.00  0.00     0.114 A 
ATOM     34  CB  ACT d         -13.973  15.671   4.918  0.00  0.00    -0.030 A 
ATOM     35  CG  ACT d         -13.516  16.775   3.997  0.00  0.00    -0.030 A 
ATOM     36  H12 ACT d         -15.021  15.634   5.250  0.00  0.00     0.037 H 
ATOM     37  H13 ACT d         -13.317  15.333   5.734  0.00  0.00     0.037 H 
ATOM     38  H14 ACT d         -12.527  17.235   4.134  0.00  0.00     0.037 H 
ATOM     39  H15 ACT d         -14.230  17.536   3.650  0.00  0.00     0.037 H 
BRANCH  33  40
ATOM     40  C   ACT d         -14.709  15.180   2.454  0.00  0.00     0.246 C 
ATOM     41  O   ACT d         -15.863  14.830   2.787  0.00  0.00    -0.271 OA
ATOM     42  N   ACT d         -14.375  15.408   1.174  0.00  0.00    -0.345 N 
ATOM     43  H17 ACT d         -13.453  15.733   0.968  0.00  0.00     0.163 HD
BRANCH  42  44
ATOM     44  CA  ACT d         -15.299  15.203   0.085  0.00  0.00     0.097 C 
ATOM     45  H18 ACT d         -16.322  15.351   0.460  0.00  0.00     0.088 H 
BRANCH  44  46
ATOM     46  C   ACT d         -15.178  13.744  -0.428  0.00  0.00     0.238 C 
ATOM     47  O   ACT d         -15.067  13.531  -1.651  0.00  0.00    -0.271 OA
ATOM     48  N   ACT d         -15.250  12.740   0.460  0.00  0.00    -0.368 N 
ATOM     49  H23 ACT d         -15.175  11.792   0.149  0.00  0.00     0.159 HD
ATOM     50  H24 ACT d         -15.378  12.940   1.431  0.00  0.00     0.159 HD
ENDBRANCH  44  46
BRANCH  44  51
ATOM     51  CB  ACT d         -15.044  16.242  -1.026  0.00  0.00     0.036 C 
ATOM     52  H19 ACT d         -15.294  17.240  -0.636  0.00  0.00     0.051 H 
ATOM     53  H20 ACT d         -15.697  16.008  -1.880  0.00  0.00     0.051 H 
BRANCH  51  54
ATOM     54  CG  ACT d         -13.593  16.255  -1.509  0.00  0.00     0.217 C 
ATOM     55  OD1 ACT d         -12.737  16.794  -0.818  0.00  0.00    -0.274 OA
ATOM     56  ND2 ACT d         -13.352  15.638  -2.686  0.00  0.00    -0.370 N 
ATOM     57  H21 ACT d         -12.423  15.612  -3.056  0.00  0.00     0.159 HD
ATOM     58  H22 ACT d         -14.102  15.207  -3.188  0.00  0.00     0.159 HD
ENDBRANCH  51  54
ENDBRANCH  44  51
ENDBRANCH  42  44
ENDBRANCH  33  40
ENDBRANCH   3  33
TORSDOF 13
ENDMDL
MODEL 4
REMARK VINA RESULT:      -3.2      2.313      5.910
REMARK  13 active torsions:
REMARK  status: ('A' for Active; 'I' for Inactive)
REMARK    1  A    between atoms: C_1  and  CH3_3 
REMARK       I    between atoms: N_4  and  C_1 
REMARK    2  A    between atoms: CA_5  and  N_4 
REMARK    3  A    between atoms: C_6  and  CA_5 
REMARK    4  A    between atoms: CA_5  and  CB_8 
REMARK       I    between atoms: N_25  and  C_6 
REMARK    5  A    between atoms: CB_8  and  CG_9 
REMARK    6  A    between atoms: CZ_14  and  OH_15 
REMARK    7  A    between atoms: OH_15  and  P_16 
REMARK    8  A    between atoms: CA_22  and  C_23 
REMARK    9  A    between atoms: CA_22  and  N_25 
REMARK       I    between atoms: C_23  and  N_26 
REMARK   10  A    between atoms: N_26  and  CA_27 
REMARK   11  A    between atoms: CA_27  and  C_28 
REMARK   12  A    between atoms: CA_27  and  CB_30 
REMARK       I    between atoms: C_28  and  N_34 
REMARK   13  A    between atoms: CB_30  and  CG_31 
REMARK       I    between atoms: CG_31  and  ND2_33 
ROOT
ATOM      1  C   ACT d         -12.251  14.915  -0.636  0.00  0.00     0.241 C 
ATOM      2  O   ACT d         -12.433  16.071  -1.040  0.00  0.00    -0.271 OA
ATOM      3  N   ACT d         -11.084  14.497  -0.077  0.00  0.00    -0.341 N 
ATOM      4  H16 ACT d         -10.933  13.544   0.185  0.00  0.00     0.163 HD
ENDROOT
BRANCH   1   5
ATOM      5  CA  ACT d         -13.343  13.834  -0.768  0.00  0.00     0.093 C 
ATOM      6  H5  ACT d         -12.964  12.864  -0.417  0.00  0.00     0.088 H 
BRANCH   5   7
ATOM      7  N   ACT d         -14.551  14.213   0.048  0.00  0.00    -0.348 N 
ATOM      8  C   ACT d         -14.455  14.192   1.348  0.00  0.00     0.214 C 
ATOM      9  O   ACT d         -13.419  13.949   1.981  0.00  0.00    -0.274 OA
ATOM     10  H4  ACT d         -15.408  14.475  -0.397  0.00  0.00     0.163 HD
BRANCH   8  11
ATOM     11  CH3 ACT d         -15.728  14.511   2.079  0.00  0.00    -0.003 C 
ATOM     12  H1  ACT d         -16.255  13.577   2.323  0.00  0.00     0.040 H 
ATOM     13  H2  ACT d         -16.370  15.138   1.443  0.00  0.00     0.040 H 
ATOM     14  H3  ACT d         -15.493  15.053   3.007  0.00  0.00     0.040 H 
ENDBRANCH   8  11
ENDBRANCH   5   7
BRANCH   5  15
ATOM     15  CB  ACT d         -13.666  13.758  -2.263  0.00  0.00    -0.014 C 
ATOM     16  H6  ACT d         -13.768  14.771  -2.680  0.00  0.00     0.043 H 
ATOM     17  H7  ACT d         -14.602  13.202  -2.419  0.00  0.00     0.043 H 
BRANCH  15  18
ATOM     18  CG  ACT d         -12.483  13.015  -2.948  0.00  0.00    -0.056 A 
ATOM     19  CD1 ACT d         -11.855  12.001  -2.253  0.00  0.00    -0.074 A 
ATOM     20  CE1 ACT d         -10.774  11.332  -2.774  0.00  0.00    -0.050 A 
ATOM     21  H8  ACT d         -12.224  11.726  -1.272  0.00  0.00     0.084 H 
ATOM     22  CZ  ACT d         -10.223  11.712  -3.997  0.00  0.00     0.082 A 
ATOM     23  H10 ACT d         -10.345  10.500  -2.228  0.00  0.00     0.087 H 
ATOM     24  CE2 ACT d         -10.861  12.745  -4.687  0.00  0.00    -0.050 A 
ATOM     25  CD2 ACT d         -12.003  13.410  -4.200  0.00  0.00    -0.074 A 
ATOM     26  H11 ACT d         -10.457  13.050  -5.646  0.00  0.00     0.087 H 
ATOM     27  H9  ACT d         -12.488  14.193  -4.772  0.00  0.00     0.084 H 
BRANCH  22  28
ATOM     28  OH  ACT d          -9.080  11.032  -4.434  0.00  0.00    -0.240 OA
BRANCH  28  29
ATOM     29  P   ACT d          -8.800   9.441  -4.185  0.00  0.00     0.427 P 
ATOM     30  O1P ACT d          -7.626   9.228  -5.185  0.00  0.00    -0.617 OA
ATOM     31  O2P ACT d          -8.336   9.309  -2.773  0.00  0.00    -0.617 OA
ATOM     32  O3P ACT d          -9.963   8.732  -4.659  0.00  0.00    -0.617 OA
ENDBRANCH  28  29
ENDBRANCH  22  28
ENDBRANCH  15  18
ENDBRANCH   5  15
ENDBRANCH   1   5
BRANCH   3  33
ATOM     33  CA  ACT d         -10.087  15.503   0.113  0.00  0.00     0.114 A 
ATOM     34  CB  ACT d          -9.164  15.792  -1.021  0.00  0.00    -0.030 A 
ATOM     35  CG  ACT d         -10.239  16.793  -0.677  0.00  0.00    -0.030 A 
ATOM     36  H12 ACT d          -8.109  16.032  -0.821  0.00  0.00     0.037 H 
ATOM     37  H13 ACT d          -9.238  15.207  -1.950  0.00  0.00     0.037 H 
ATOM     38  H14 ACT d         -11.099  16.931  -1.348  0.00  0.00     0.037 H 
ATOM     39  H15 ACT d          -9.971  17.756  -0.219  0.00  0.00     0.037 H 
BRANCH  33  40
ATOM     40  C   ACT d          -9.669  15.757   1.547  0.00  0.00     0.246 C 
ATOM     41  O   ACT d          -8.715  16.526   1.796  0.00  0.00    -0.271 OA
ATOM     42  N   ACT d         -10.343  15.119   2.518  0.00  0.00    -0.345 N 
ATOM     43  H17 ACT d         -11.129  14.554   2.267  0.00  0.00     0.163 HD
BRANCH  42  44
ATOM     44  CA  ACT d          -9.977  15.220   3.909  0.00  0.00     0.097 C 
ATOM     45  H18 ACT d         -10.067  16.271   4.221  0.00  0.00     0.088 H 
BRANCH  44  46
ATOM     46  C   ACT d          -8.497  14.790   4.087  0.00  0.00     0.238 C 
ATOM     47  O   ACT d          -8.159  13.623   3.807  0.00  0.00    -0.271 OA
ATOM     48  N   ACT d          -7.624  15.676   4.591  0.00  0.00    -0.368 N 
ATOM     49  H23 ACT d          -6.665  15.419   4.714  0.00  0.00     0.159 HD
ATOM     50  H24 ACT d          -7.932  16.593   4.843  0.00  0.00     0.159 HD
ENDBRANCH  44  46
BRANCH  44  51
ATOM     51  CB  ACT d         -10.942  14.383   4.771  0.00  0.00     0.036 C 
ATOM     52  H19 ACT d         -11.975  14.673   4.524  0.00  0.00     0.051 H 
ATOM     53  H20 ACT d         -10.743  14.600   5.831  0.00  0.00     0.051 H 
BRANCH  51  54
ATOM     54  CG  ACT d         -10.791  12.877   4.545  0.00  0.00     0.217 C 
ATOM     55  OD1 ACT d         -11.211  12.383   3.506  0.00  0.00    -0.274 OA
ATOM     56  ND2 ACT d         -10.172  12.187   5.526  0.00  0.00    -0.370 N 
ATOM     57  H21 ACT d         -10.042  11.199   5.438  0.00  0.00     0.159 HD
ATOM     58  H22 ACT d          -9.843  12.663   6.342  0.00  0.00     0.159 HD
ENDBRANCH  51  54
ENDBRANCH  44  51
ENDBRANCH  42  44
ENDBRANCH  33  40
ENDBRANCH   3  33
TORSDOF 13
ENDMDL
MODEL 5
REMARK VINA RESULT:      -2.7      3.570      7.373
REMARK  13 active torsions:
REMARK  status: ('A' for Active; 'I' for Inactive)
REMARK    1  A    between atoms: C_1  and  CH3_3 
REMARK       I    between atoms: N_4  and  C_1 
REMARK    2  A    between atoms: CA_5  and  N_4 
REMARK    3  A    between atoms: C_6  and  CA_5 
REMARK    4  A    between atoms: CA_5  and  CB_8 
REMARK       I    between atoms: N_25  and  C_6 
REMARK    5  A    between atoms: CB_8  and  CG_9 
REMARK    6  A    between atoms: CZ_14  and  OH_15 
REMARK    7  A    between atoms: OH_15  and  P_16 
REMARK    8  A    between atoms: CA_22  and  C_23 
REMARK    9  A    between atoms: CA_22  and  N_25 
REMARK       I    between atoms: C_23  and  N_26 
REMARK   10  A    between atoms: N_26  and  CA_27 
REMARK   11  A    between atoms: CA_27  and  C_28 
REMARK   12  A    between atoms: CA_27  and  CB_30 
REMARK       I    between atoms: C_28  and  N_34 
REMARK   13  A    between atoms: CB_30  and  CG_31 
REMARK       I    between atoms: CG_31  and  ND2_33 
ROOT
ATOM      1  C   ACT d         -10.627  13.298  -1.347  0.00  0.00     0.241 C 
ATOM      2  O   ACT d          -9.882  13.020  -2.295  0.00  0.00    -0.271 OA
ATOM      3  N   ACT d         -10.890  14.574  -0.957  0.00  0.00    -0.341 N 
ATOM      4  H16 ACT d         -11.444  14.779  -0.149  0.00  0.00     0.163 HD
ENDROOT
BRANCH   1   5
ATOM      5  CA  ACT d         -11.299  12.198  -0.500  0.00  0.00     0.093 C 
ATOM      6  H5  ACT d         -12.394  12.291  -0.554  0.00  0.00     0.088 H 
BRANCH   5   7
ATOM      7  N   ACT d         -10.897  10.836  -1.003  0.00  0.00    -0.348 N 
ATOM      8  C   ACT d         -11.463  10.380  -2.085  0.00  0.00     0.214 C 
ATOM      9  O   ACT d         -12.268  11.008  -2.786  0.00  0.00    -0.274 OA
ATOM     10  H4  ACT d         -10.211  10.295  -0.518  0.00  0.00     0.163 HD
BRANCH   8  11
ATOM     11  CH3 ACT d         -11.057   8.986  -2.469  0.00  0.00    -0.003 C 
ATOM     12  H1  ACT d         -10.131   8.715  -1.939  0.00  0.00     0.040 H 
ATOM     13  H2  ACT d         -10.885   8.940  -3.554  0.00  0.00     0.040 H 
ATOM     14  H3  ACT d         -11.856   8.282  -2.195  0.00  0.00     0.040 H 
ENDBRANCH   8  11
ENDBRANCH   5   7
BRANCH   5  15
ATOM     15  CB  ACT d         -10.825  12.439   0.936  0.00  0.00    -0.014 C 
ATOM     16  H6  ACT d         -10.016  13.183   0.947  0.00  0.00     0.043 H 
ATOM     17  H7  ACT d         -10.464  11.498   1.377  0.00  0.00     0.043 H 
BRANCH  15  18
ATOM     18  CG  ACT d         -12.049  12.970   1.738  0.00  0.00    -0.056 A 
ATOM     19  CD1 ACT d         -13.012  13.694   1.062  0.00  0.00    -0.074 A 
ATOM     20  CE1 ACT d         -14.095  14.233   1.711  0.00  0.00    -0.050 A 
ATOM     21  H8  ACT d         -12.909  13.840  -0.007  0.00  0.00     0.084 H 
ATOM     22  CZ  ACT d         -14.218  14.134   3.095  0.00  0.00     0.082 A 
ATOM     23  H10 ACT d         -14.863  14.742   1.139  0.00  0.00     0.087 H 
ATOM     24  CE2 ACT d         -13.235  13.406   3.770  0.00  0.00    -0.050 A 
ATOM     25  CD2 ACT d         -12.144  12.798   3.121  0.00  0.00    -0.074 A 
ATOM     26  H11 ACT d         -13.316  13.306   4.846  0.00  0.00     0.087 H 
ATOM     27  H9  ACT d         -11.409  12.220   3.671  0.00  0.00     0.084 H 
BRANCH  22  28
ATOM     28  OH  ACT d         -15.312  14.766   3.698  0.00  0.00    -0.240 OA
BRANCH  28  29
ATOM     29  P   ACT d         -15.289  15.428   5.192  0.00  0.00     0.427 P 
ATOM     30  O1P ACT d         -13.750  15.493   5.419  0.00  0.00    -0.617 OA
ATOM     31  O2P ACT d         -15.873  16.794   5.060  0.00  0.00    -0.617 OA
ATOM     32  O3P ACT d         -15.861  14.454   6.090  0.00  0.00    -0.617 OA
ENDBRANCH  28  29
ENDBRANCH  22  28
ENDBRANCH  15  18
ENDBRANCH   5  15
ENDBRANCH   1   5
BRANCH   3  33
ATOM     33  CA  ACT d         -10.329  15.605  -1.772  0.00  0.00     0.114 A 
ATOM     34  CB  ACT d          -9.719  16.780  -1.087  0.00  0.00    -0.030 A 
ATOM     35  CG  ACT d          -8.817  15.767  -1.747  0.00  0.00    -0.030 A 
ATOM     36  H12 ACT d          -9.825  17.784  -1.524  0.00  0.00     0.037 H 
ATOM     37  H13 ACT d          -9.750  16.852   0.010  0.00  0.00     0.037 H 
ATOM     38  H14 ACT d          -8.200  15.095  -1.133  0.00  0.00     0.037 H 
ATOM     39  H15 ACT d          -8.274  16.027  -2.667  0.00  0.00     0.037 H 
BRANCH  33  40
ATOM     40  C   ACT d         -10.894  15.722  -3.173  0.00  0.00     0.246 C 
ATOM     41  O   ACT d         -10.692  16.755  -3.847  0.00  0.00    -0.271 OA
ATOM     42  N   ACT d         -11.619  14.694  -3.642  0.00  0.00    -0.345 N 
ATOM     43  H17 ACT d         -11.709  13.872  -3.081  0.00  0.00     0.163 HD
BRANCH  42  44
ATOM     44  CA  ACT d         -12.275  14.733  -4.927  0.00  0.00     0.097 C 
ATOM     45  H18 ACT d         -11.885  15.590  -5.494  0.00  0.00     0.088 H 
BRANCH  44  46
ATOM     46  C   ACT d         -13.799  14.942  -4.725  0.00  0.00     0.238 C 
ATOM     47  O   ACT d         -14.478  14.037  -4.200  0.00  0.00    -0.271 OA
ATOM     48  N   ACT d         -14.359  16.077  -5.170  0.00  0.00    -0.368 N 
ATOM     49  H23 ACT d         -15.340  16.231  -5.050  0.00  0.00     0.159 HD
ATOM     50  H24 ACT d         -13.796  16.768  -5.622  0.00  0.00     0.159 HD
ENDBRANCH  44  46
BRANCH  44  51
ATOM     51  CB  ACT d         -11.955  13.451  -5.721  0.00  0.00     0.036 C 
ATOM     52  H19 ACT d         -12.209  13.621  -6.778  0.00  0.00     0.051 H 
ATOM     53  H20 ACT d         -12.570  12.630  -5.324  0.00  0.00     0.051 H 
BRANCH  51  54
ATOM     54  CG  ACT d         -10.482  13.046  -5.632  0.00  0.00     0.217 C 
ATOM     55  OD1 ACT d          -9.623  13.825  -6.026  0.00  0.00    -0.274 OA
ATOM     56  ND2 ACT d         -10.230  11.833  -5.095  0.00  0.00    -0.370 N 
ATOM     57  H21 ACT d          -9.288  11.510  -5.009  0.00  0.00     0.159 HD
ATOM     58  H22 ACT d         -10.986  11.257  -4.782  0.00  0.00     0.159 HD
ENDBRANCH  51  54
ENDBRANCH  44  51
ENDBRANCH  42  44
ENDBRANCH  33  40
ENDBRANCH   3  33
TORSDOF 13
ENDMDL
MODEL 6
REMARK VINA RESULT:      -2.5      2.750      5.960
REMARK  13 active torsions:
REMARK  status: ('A' for Active; 'I' for Inactive)
REMARK    1  A    between atoms: C_1  and  CH3_3 
REMARK       I    between atoms: N_4  and  C_1 
REMARK    2  A    between atoms: CA_5  and  N_4 
REMARK    3  A    between atoms: C_6  and  CA_5 
REMARK    4  A    between atoms: CA_5  and  CB_8 
REMARK       I    between atoms: N_25  and  C_6 
REMARK    5  A    between atoms: CB_8  and  CG_9 
REMARK    6  A    between atoms: CZ_14  and  OH_15 
REMARK    7  A    between atoms: OH_15  and  P_16 
REMARK    8  A    between atoms: CA_22  and  C_23 
REMARK    9  A    between atoms: CA_22  and  N_25 
REMARK       I    between atoms: C_23  and  N_26 
REMARK   10  A    between atoms: N_26  and  CA_27 
REMARK   11  A    between atoms: CA_27  and  C_28 
REMARK   12  A    between atoms: CA_27  and  CB_30 
REMARK       I    between atoms: C_28  and  N_34 
REMARK   13  A    between atoms: CB_30  and  CG_31 
REMARK       I    between atoms: CG_31  and  ND2_33 
ROOT
ATOM      1  C   ACT d         -12.965  13.662  -3.097  0.00  0.00     0.241 C 
ATOM      2  O   ACT d         -13.737  12.733  -2.829  0.00  0.00    -0.271 OA
ATOM      3  N   ACT d         -13.336  14.970  -3.070  0.00  0.00    -0.341 N 
ATOM      4  H16 ACT d         -12.717  15.703  -3.350  0.00  0.00     0.163 HD
ENDROOT
BRANCH   1   5
ATOM      5  CA  ACT d         -11.505  13.400  -3.519  0.00  0.00     0.093 C 
ATOM      6  H5  ACT d         -11.456  13.156  -4.591  0.00  0.00     0.088 H 
BRANCH   5   7
ATOM      7  N   ACT d         -10.660  14.619  -3.254  0.00  0.00    -0.348 N 
ATOM      8  C   ACT d          -9.794  14.984  -4.158  0.00  0.00     0.214 C 
ATOM      9  O   ACT d          -9.650  14.447  -5.264  0.00  0.00    -0.274 OA
ATOM     10  H4  ACT d         -10.761  15.136  -2.404  0.00  0.00     0.163 HD
BRANCH   8  11
ATOM     11  CH3 ACT d          -8.945  16.164  -3.776  0.00  0.00    -0.003 C 
ATOM     12  H1  ACT d          -7.883  15.903  -3.892  0.00  0.00     0.040 H 
ATOM     13  H2  ACT d          -9.144  16.435  -2.729  0.00  0.00     0.040 H 
ATOM     14  H3  ACT d          -9.187  17.016  -4.428  0.00  0.00     0.040 H 
ENDBRANCH   8  11
ENDBRANCH   5   7
BRANCH   5  15
ATOM     15  CB  ACT d         -11.047  12.197  -2.689  0.00  0.00    -0.014 C 
ATOM     16  H6  ACT d         -10.097  11.806  -3.082  0.00  0.00     0.043 H 
ATOM     17  H7  ACT d         -11.811  11.406  -2.719  0.00  0.00     0.043 H 
BRANCH  15  18
ATOM     18  CG  ACT d         -10.855  12.698  -1.228  0.00  0.00    -0.056 A 
ATOM     19  CD1 ACT d         -11.383  11.941  -0.201  0.00  0.00    -0.074 A 
ATOM     20  CE1 ACT d         -11.294  12.343   1.110  0.00  0.00    -0.050 A 
ATOM     21  H8  ACT d         -11.880  11.007  -0.435  0.00  0.00     0.084 H 
ATOM     22  CZ  ACT d         -10.733  13.575   1.440  0.00  0.00     0.082 A 
ATOM     23  H10 ACT d         -11.663  11.694   1.895  0.00  0.00     0.087 H 
ATOM     24  CE2 ACT d         -10.210  14.336   0.392  0.00  0.00    -0.050 A 
ATOM     25  CD2 ACT d         -10.240  13.922  -0.953  0.00  0.00    -0.074 A 
ATOM     26  H11 ACT d          -9.758  15.294   0.627  0.00  0.00     0.087 H 
ATOM     27  H9  ACT d          -9.804  14.527  -1.741  0.00  0.00     0.084 H 
BRANCH  22  28
ATOM     28  OH  ACT d         -10.737  13.951   2.789  0.00  0.00    -0.240 OA
BRANCH  28  29
ATOM     29  P   ACT d          -9.981  13.126   3.980  0.00  0.00     0.427 P 
ATOM     30  O1P ACT d          -9.107  14.272   4.569  0.00  0.00    -0.617 OA
ATOM     31  O2P ACT d         -11.039  12.706   4.943  0.00  0.00    -0.617 OA
ATOM     32  O3P ACT d          -9.125  12.157   3.339  0.00  0.00    -0.617 OA
ENDBRANCH  28  29
ENDBRANCH  22  28
ENDBRANCH  15  18
ENDBRANCH   5  15
ENDBRANCH   1   5
BRANCH   3  33
ATOM     33  CA  ACT d         -14.665  15.233  -2.616  0.00  0.00     0.114 A 
ATOM     34  CB  ACT d         -15.578  15.982  -3.526  0.00  0.00    -0.030 A 
ATOM     35  CG  ACT d         -15.799  14.504  -3.320  0.00  0.00    -0.030 A 
ATOM     36  H12 ACT d         -16.294  16.706  -3.110  0.00  0.00     0.037 H 
ATOM     37  H13 ACT d         -15.204  16.350  -4.494  0.00  0.00     0.037 H 
ATOM     38  H14 ACT d         -15.579  13.795  -4.131  0.00  0.00     0.037 H 
ATOM     39  H15 ACT d         -16.668  14.150  -2.748  0.00  0.00     0.037 H 
BRANCH  33  40
ATOM     40  C   ACT d         -14.856  15.270  -1.113  0.00  0.00     0.246 C 
ATOM     41  O   ACT d         -15.762  15.970  -0.612  0.00  0.00    -0.271 OA
ATOM     42  N   ACT d         -14.015  14.545  -0.358  0.00  0.00    -0.345 N 
ATOM     43  H17 ACT d         -13.339  13.964  -0.812  0.00  0.00     0.163 HD
BRANCH  42  44
ATOM     44  CA  ACT d         -14.050  14.572   1.083  0.00  0.00     0.097 C 
ATOM     45  H18 ACT d         -13.097  14.177   1.466  0.00  0.00     0.088 H 
BRANCH  44  46
ATOM     46  C   ACT d         -15.192  13.653   1.592  0.00  0.00     0.238 C 
ATOM     47  O   ACT d         -15.643  13.814   2.743  0.00  0.00    -0.271 OA
ATOM     48  N   ACT d         -15.632  12.669   0.793  0.00  0.00    -0.368 N 
ATOM     49  H23 ACT d         -16.367  12.065   1.102  0.00  0.00     0.159 HD
ATOM     50  H24 ACT d         -15.224  12.539  -0.111  0.00  0.00     0.159 HD
ENDBRANCH  44  46
BRANCH  44  51
ATOM     51  CB  ACT d         -14.196  16.024   1.581  0.00  0.00     0.036 C 
ATOM     52  H19 ACT d         -15.217  16.162   1.967  0.00  0.00     0.051 H 
ATOM     53  H20 ACT d         -14.031  16.704   0.732  0.00  0.00     0.051 H 
BRANCH  51  54
ATOM     54  CG  ACT d         -13.203  16.378   2.690  0.00  0.00     0.217 C 
ATOM     55  OD1 ACT d         -13.544  16.254   3.860  0.00  0.00    -0.274 OA
ATOM     56  ND2 ACT d         -11.984  16.794   2.286  0.00  0.00    -0.370 N 
ATOM     57  H21 ACT d         -11.290  17.040   2.963  0.00  0.00     0.159 HD
ATOM     58  H22 ACT d         -11.774  16.856   1.310  0.00  0.00     0.159 HD
ENDBRANCH  51  54
ENDBRANCH  44  51
ENDBRANCH  42  44
ENDBRANCH  33  40
ENDBRANCH   3  33
TORSDOF 13
ENDMDL
MODEL 7
REMARK VINA RESULT:      -2.0      3.448      7.117
REMARK  13 active torsions:
REMARK  status: ('A' for Active; 'I' for Inactive)
REMARK    1  A    between atoms: C_1  and  CH3_3 
REMARK       I    between atoms: N_4  and  C_1 
REMARK    2  A    between atoms: CA_5  and  N_4 
REMARK    3  A    between atoms: C_6  and  CA_5 
REMARK    4  A    between atoms: CA_5  and  CB_8 
REMARK       I    between atoms: N_25  and  C_6 
REMARK    5  A    between atoms: CB_8  and  CG_9 
REMARK    6  A    between atoms: CZ_14  and  OH_15 
REMARK    7  A    between atoms: OH_15  and  P_16 
REMARK    8  A    between atoms: CA_22  and  C_23 
REMARK    9  A    between atoms: CA_22  and  N_25 
REMARK       I    between atoms: C_23  and  N_26 
REMARK   10  A    between atoms: N_26  and  CA_27 
REMARK   11  A    between atoms: CA_27  and  C_28 
REMARK   12  A    between atoms: CA_27  and  CB_30 
REMARK       I    between atoms: C_28  and  N_34 
REMARK   13  A    between atoms: CB_30  and  CG_31 
REMARK       I    between atoms: CG_31  and  ND2_33 
ROOT
ATOM      1  C   ACT d         -10.836  13.086  -1.431  0.00  0.00     0.241 C 
ATOM      2  O   ACT d         -10.347  12.766  -2.522  0.00  0.00    -0.271 OA
ATOM      3  N   ACT d         -10.993  14.377  -1.036  0.00  0.00    -0.341 N 
ATOM      4  H16 ACT d         -11.331  14.617  -0.126  0.00  0.00     0.163 HD
ENDROOT
BRANCH   1   5
ATOM      5  CA  ACT d         -11.285  12.024  -0.406  0.00  0.00     0.093 C 
ATOM      6  H5  ACT d         -12.381  12.025  -0.311  0.00  0.00     0.088 H 
BRANCH   5   7
ATOM      7  N   ACT d         -10.833  10.655  -0.844  0.00  0.00    -0.348 N 
ATOM      8  C   ACT d         -11.523  10.035  -1.760  0.00  0.00     0.214 C 
ATOM      9  O   ACT d         -12.496  10.509  -2.361  0.00  0.00    -0.274 OA
ATOM     10  H4  ACT d         -10.021  10.232  -0.441  0.00  0.00     0.163 HD
BRANCH   8  11
ATOM     11  CH3 ACT d         -11.043   8.647  -2.078  0.00  0.00    -0.003 C 
ATOM     12  H1  ACT d         -10.419   8.277  -1.252  0.00  0.00     0.040 H 
ATOM     13  H2  ACT d         -10.450   8.668  -3.004  0.00  0.00     0.040 H 
ATOM     14  H3  ACT d         -11.908   7.982  -2.213  0.00  0.00     0.040 H 
ENDBRANCH   8  11
ENDBRANCH   5   7
BRANCH   5  15
ATOM     15  CB  ACT d         -10.645  12.439   0.921  0.00  0.00    -0.014 C 
ATOM     16  H6  ACT d          -9.944  13.271   0.759  0.00  0.00     0.043 H 
ATOM     17  H7  ACT d         -10.107  11.588   1.363  0.00  0.00     0.043 H 
BRANCH  15  18
ATOM     18  CG  ACT d         -11.799  12.889   1.863  0.00  0.00    -0.056 A 
ATOM     19  CD1 ACT d         -12.941  13.418   1.295  0.00  0.00    -0.074 A 
ATOM     20  CE1 ACT d         -13.982  13.880   2.064  0.00  0.00    -0.050 A 
ATOM     21  H8  ACT d         -13.018  13.471   0.215  0.00  0.00     0.084 H 
ATOM     22  CZ  ACT d         -13.884  13.902   3.454  0.00  0.00     0.082 A 
ATOM     23  H10 ACT d         -14.888  14.231   1.584  0.00  0.00     0.087 H 
ATOM     24  CE2 ACT d         -12.721  13.372   4.018  0.00  0.00    -0.050 A 
ATOM     25  CD2 ACT d         -11.664  12.843   3.254  0.00  0.00    -0.074 A 
ATOM     26  H11 ACT d         -12.629  13.368   5.098  0.00  0.00     0.087 H 
ATOM     27  H9  ACT d         -10.784  12.419   3.723  0.00  0.00     0.084 H 
BRANCH  22  28
ATOM     28  OH  ACT d         -14.955  14.450   4.172  0.00  0.00    -0.240 OA
BRANCH  28  29
ATOM     29  P   ACT d         -14.921  15.906   4.913  0.00  0.00     0.427 P 
ATOM     30  O1P ACT d         -15.872  16.697   3.967  0.00  0.00    -0.617 OA
ATOM     31  O2P ACT d         -15.538  15.712   6.257  0.00  0.00    -0.617 OA
ATOM     32  O3P ACT d         -13.579  16.415   4.773  0.00  0.00    -0.617 OA
ENDBRANCH  28  29
ENDBRANCH  22  28
ENDBRANCH  15  18
ENDBRANCH   5  15
ENDBRANCH   1   5
BRANCH   3  33
ATOM     33  CA  ACT d         -10.644  15.372  -2.001  0.00  0.00     0.114 A 
ATOM     34  CB  ACT d          -9.658  16.417  -1.600  0.00  0.00    -0.030 A 
ATOM     35  CG  ACT d          -9.231  15.335  -2.560  0.00  0.00    -0.030 A 
ATOM     36  H12 ACT d          -9.779  17.450  -1.958  0.00  0.00     0.037 H 
ATOM     37  H13 ACT d          -9.259  16.428  -0.575  0.00  0.00     0.037 H 
ATOM     38  H14 ACT d          -8.528  14.554  -2.234  0.00  0.00     0.037 H 
ATOM     39  H15 ACT d          -9.048  15.575  -3.618  0.00  0.00     0.037 H 
BRANCH  33  40
ATOM     40  C   ACT d         -11.677  15.643  -3.075  0.00  0.00     0.246 C 
ATOM     41  O   ACT d         -12.145  16.793  -3.222  0.00  0.00    -0.271 OA
ATOM     42  N   ACT d         -12.073  14.610  -3.837  0.00  0.00    -0.345 N 
ATOM     43  H17 ACT d         -11.632  13.722  -3.711  0.00  0.00     0.163 HD
BRANCH  42  44
ATOM     44  CA  ACT d         -13.111  14.735  -4.830  0.00  0.00     0.097 C 
ATOM     45  H18 ACT d         -13.129  13.816  -5.436  0.00  0.00     0.088 H 
BRANCH  44  46
ATOM     46  C   ACT d         -12.788  15.926  -5.771  0.00  0.00     0.238 C 
ATOM     47  O   ACT d         -13.714  16.655  -6.177  0.00  0.00    -0.271 OA
ATOM     48  N   ACT d         -11.519  16.109  -6.167  0.00  0.00    -0.368 N 
ATOM     49  H23 ACT d         -11.290  16.871  -6.774  0.00  0.00     0.159 HD
ATOM     50  H24 ACT d         -10.803  15.484  -5.856  0.00  0.00     0.159 HD
ENDBRANCH  44  46
BRANCH  44  51
ATOM     51  CB  ACT d         -14.484  14.880  -4.144  0.00  0.00     0.036 C 
ATOM     52  H19 ACT d         -15.260  14.507  -4.830  0.00  0.00     0.051 H 
ATOM     53  H20 ACT d         -14.660  15.946  -3.936  0.00  0.00     0.051 H 
BRANCH  51  54
ATOM     54  CG  ACT d         -14.579  14.103  -2.829  0.00  0.00     0.217 C 
ATOM     55  OD1 ACT d         -14.359  12.898  -2.829  0.00  0.00    -0.274 OA
ATOM     56  ND2 ACT d         -14.890  14.826  -1.732  0.00  0.00    -0.370 N 
ATOM     57  H21 ACT d         -14.968  14.376  -0.843  0.00  0.00     0.159 HD
ATOM     58  H22 ACT d         -15.043  15.812  -1.809  0.00  0.00     0.159 HD
ENDBRANCH  51  54
ENDBRANCH  44  51
ENDBRANCH  42  44
ENDBRANCH  33  40
ENDBRANCH   3  33
TORSDOF 13
ENDMDL
