REMARK  11 active torsions:
REMARK  status: ('A' for Active; 'I' for Inactive)
REMARK    1  A    between atoms: C1_1  and  O8_8 
REMARK    2  A    between atoms: C2_2  and  O9_9 
REMARK    3  A    between atoms: C3_3  and  S7_7 
REMARK    4  A    between atoms: C5_5  and  C6_6 
REMARK    5  A    between atoms: S7_7  and  C11_11 
REMARK    6  A    between atoms: C10_10  and  C12_12 
REMARK    7  A    between atoms: C12_12  and  N13_13 
REMARK       I    between atoms: N13_13  and  C14_14 
REMARK    8  A    between atoms: C14_14  and  C15_15 
REMARK    9  A    between atoms: C16_16  and  O22_22 
REMARK   10  A    between atoms: C17_17  and  O23_23 
REMARK   11  A    between atoms: C19_19  and  N21_21 
ROOT
ATOM      1  C6  MOL d          19.918 -30.003  10.916  0.00  0.00    -0.075 C 
ATOM      2  C10 MOL d          20.680 -29.442  10.019  0.00  0.00    -0.087 C 
ATOM      3  H5  MOL d          19.376 -30.915  10.670  0.00  0.00     0.080 H 
ATOM      4  H8  MOL d          21.223 -28.539  10.294  0.00  0.00     0.079 H 
ENDROOT
BRANCH   1   5
ATOM      5  C5  MOL d          19.784 -29.416  12.256  0.00  0.00     0.083 C 
ATOM      6  C1  MOL d          20.464 -30.329  13.322  0.00  0.00     0.091 C 
ATOM      7  C2  MOL d          19.387 -31.433  13.330  0.00  0.00     0.097 C 
ATOM      8  H1  MOL d          21.467 -30.686  13.046  0.00  0.00     0.091 H 
ATOM      9  C3  MOL d          18.068 -30.667  13.201  0.00  0.00     0.115 C 
ATOM     10  H2  MOL d          19.532 -32.106  12.472  0.00  0.00     0.092 H 
ATOM     11  O4  MOL d          18.423 -29.406  12.616  0.00  0.00    -0.361 OA
ATOM     12  H3  MOL d          17.606 -30.511  14.187  0.00  0.00     0.105 H 
ATOM     13  H4  MOL d          20.211 -28.402  12.272  0.00  0.00     0.093 H 
BRANCH   6  14
ATOM     14  O8  MOL d          20.477 -29.620  14.559  0.00  0.00    -0.390 OA
ATOM     15  H6  MOL d          19.585 -29.419  14.817  0.00  0.00     0.210 HD
ENDBRANCH   6  14
BRANCH   7  16
ATOM     16  O9  MOL d          19.380 -32.212  14.533  0.00  0.00    -0.389 OA
ATOM     17  H7  MOL d          19.276 -31.636  15.281  0.00  0.00     0.210 HD
ENDBRANCH   7  16
BRANCH   9  18
ATOM     18  S7  MOL d          16.950 -31.614  12.158  0.00  0.00    -0.095 SA
BRANCH  18  19
ATOM     19  C11 MOL d          15.409 -31.140  12.597  0.00  0.00     0.005 A 
ATOM     20  C27 MOL d          14.235 -31.884  12.159  0.00  0.00    -0.050 A 
ATOM     21  C28 MOL d          12.955 -31.486  12.564  0.00  0.00     0.003 A 
ATOM     22  H16 MOL d          14.353 -32.749  11.517  0.00  0.00     0.087 H 
ATOM     23  N29 MOL d          12.699 -30.395  13.361  0.00  0.00    -0.273 NA
ATOM     24  H17 MOL d          12.111 -32.077  12.227  0.00  0.00     0.114 H 
ATOM     25  C30 MOL d          13.814 -29.677  13.773  0.00  0.00     0.003 A 
ATOM     26  C31 MOL d          15.119 -30.017  13.429  0.00  0.00    -0.050 A 
ATOM     27  H18 MOL d          13.659 -28.804  14.397  0.00  0.00     0.114 H 
ATOM     28  H19 MOL d          15.937 -29.413  13.803  0.00  0.00     0.087 H 
ENDBRANCH  18  19
ENDBRANCH   9  18
ENDBRANCH   1   5
BRANCH   2  29
ATOM     29  C12 MOL d          20.846 -29.974   8.634  0.00  0.00     0.010 C 
ATOM     30  H9  MOL d          19.872 -29.940   8.124  0.00  0.00     0.070 H 
ATOM     31  H10 MOL d          21.191 -31.017   8.696  0.00  0.00     0.070 H 
BRANCH  29  32
ATOM     32  N13 MOL d          21.798 -29.219   7.860  0.00  0.00    -0.353 N 
ATOM     33  C14 MOL d          22.614 -29.700   6.904  0.00  0.00     0.254 C 
ATOM     34  O24 MOL d          22.504 -30.901   6.519  0.00  0.00    -0.268 OA
ATOM     35  H11 MOL d          21.858 -28.239   8.052  0.00  0.00     0.163 HD
BRANCH  33  36
ATOM     36  C15 MOL d          23.668 -28.849   6.296  0.00  0.00     0.070 A 
ATOM     37  C16 MOL d          23.693 -27.440   6.500  0.00  0.00     0.114 A 
ATOM     38  C17 MOL d          24.767 -26.726   5.902  0.00  0.00     0.102 A 
ATOM     39  C18 MOL d          25.743 -27.290   5.130  0.00  0.00    -0.016 A 
ATOM     40  C19 MOL d          25.693 -28.692   4.965  0.00  0.00     0.106 A 
ATOM     41  H12 MOL d          26.518 -26.691   4.667  0.00  0.00     0.091 H 
ATOM     42  C20 MOL d          24.662 -29.466   5.541  0.00  0.00    -0.033 A 
ATOM     43  H13 MOL d          24.644 -30.540   5.396  0.00  0.00     0.089 H 
BRANCH  37  44
ATOM     44  O22 MOL d          22.782 -26.746   7.191  0.00  0.00    -0.357 OA
ATOM     45  H14 MOL d          22.126 -27.341   7.534  0.00  0.00     0.217 HD
ENDBRANCH  37  44
BRANCH  38  46
ATOM     46  O23 MOL d          24.812 -25.357   6.088  0.00  0.00    -0.358 OA
ATOM     47  H15 MOL d          24.085 -25.089   6.638  0.00  0.00     0.217 HD
ENDBRANCH  38  46
BRANCH  40  48
ATOM     48  N21 MOL d          26.693 -29.360   4.162  0.00  0.00    -0.116 N 
ATOM     49  O25 MOL d          27.496 -28.742   3.514  0.00  0.00    -0.532 OA
ATOM     50  O26 MOL d          26.658 -30.582   4.153  0.00  0.00    -0.532 OA
ENDBRANCH  40  48
ENDBRANCH  33  36
ENDBRANCH  29  32
ENDBRANCH   2  29
TORSDOF 11
