MODEL 1
REMARK VINA RESULT:      -9.5      0.000      0.000
REMARK  11 active torsions:
REMARK  status: ('A' for Active; 'I' for Inactive)
REMARK    1  A    between atoms: C1_1  and  O8_8 
REMARK    2  A    between atoms: C2_2  and  O9_9 
REMARK    3  A    between atoms: C3_3  and  S7_7 
REMARK    4  A    between atoms: C5_5  and  C6_6 
REMARK    5  A    between atoms: S7_7  and  C11_11 
REMARK    6  A    between atoms: C10_10  and  C12_12 
REMARK    7  A    between atoms: C12_12  and  N13_13 
REMARK       I    between atoms: N13_13  and  C14_14 
REMARK    8  A    between atoms: C14_14  and  C15_15 
REMARK    9  A    between atoms: C16_16  and  O22_22 
REMARK   10  A    between atoms: C17_17  and  O23_23 
REMARK   11  A    between atoms: C19_19  and  N21_21 
ROOT
ATOM      1  C6  MOL d          20.014 -30.335  10.507  0.00  0.00    -0.075 C 
ATOM      2  C10 MOL d          20.686 -29.883   9.486  0.00  0.00    -0.087 C 
ATOM      3  H5  MOL d          19.459 -31.269  10.418  0.00  0.00     0.080 H 
ATOM      4  H8  MOL d          21.244 -28.956   9.605  0.00  0.00     0.079 H 
ENDROOT
BRANCH   1   5
ATOM      5  C5  MOL d          19.997 -29.598  11.777  0.00  0.00     0.083 C 
ATOM      6  C1  MOL d          20.527 -30.496  12.937  0.00  0.00     0.091 C 
ATOM      7  C2  MOL d          19.280 -31.396  13.055  0.00  0.00     0.097 C 
ATOM      8  H1  MOL d          21.453 -31.043  12.705  0.00  0.00     0.091 H 
ATOM      9  C3  MOL d          18.107 -30.437  12.840  0.00  0.00     0.115 C 
ATOM     10  H2  MOL d          19.300 -32.169  12.273  0.00  0.00     0.092 H 
ATOM     11  O4  MOL d          18.662 -29.321  12.127  0.00  0.00    -0.361 OA
ATOM     12  H3  MOL d          17.690 -30.103  13.801  0.00  0.00     0.105 H 
ATOM     13  H4  MOL d          20.588 -28.674  11.689  0.00  0.00     0.093 H 
BRANCH   6  14
ATOM     14  O8  MOL d          20.675 -29.674  14.093  0.00  0.00    -0.390 OA
ATOM     15  H6  MOL d          21.571 -29.364  14.148  0.00  0.00     0.210 HD
ENDBRANCH   6  14
BRANCH   7  16
ATOM     16  O9  MOL d          19.158 -32.033  14.333  0.00  0.00    -0.389 OA
ATOM     17  H7  MOL d          18.429 -32.642  14.313  0.00  0.00     0.210 HD
ENDBRANCH   7  16
BRANCH   9  18
ATOM     18  S7  MOL d          16.833 -31.286  11.896  0.00  0.00    -0.095 SA
BRANCH  18  19
ATOM     19  C11 MOL d          15.382 -30.860  12.607  0.00  0.00     0.005 A 
ATOM     20  C27 MOL d          14.167 -31.627  12.365  0.00  0.00    -0.050 A 
ATOM     21  C28 MOL d          12.969 -31.270  12.995  0.00  0.00     0.003 A 
ATOM     22  H16 MOL d          14.191 -32.477  11.693  0.00  0.00     0.087 H 
ATOM     23  N29 MOL d          12.831 -30.200  13.848  0.00  0.00    -0.273 NA
ATOM     24  H17 MOL d          12.093 -31.877  12.798  0.00  0.00     0.114 H 
ATOM     25  C30 MOL d          13.984 -29.460  14.075  0.00  0.00     0.003 A 
ATOM     26  C31 MOL d          15.217 -29.760  13.501  0.00  0.00    -0.050 A 
ATOM     27  H18 MOL d          13.921 -28.602  14.735  0.00  0.00     0.114 H 
ATOM     28  H19 MOL d          16.073 -29.141  13.740  0.00  0.00     0.087 H 
ENDBRANCH  18  19
ENDBRANCH   9  18
ENDBRANCH   1   5
BRANCH   2  29
ATOM     29  C12 MOL d          20.730 -30.571   8.162  0.00  0.00     0.010 C 
ATOM     30  H9  MOL d          19.905 -30.194   7.541  0.00  0.00     0.070 H 
ATOM     31  H10 MOL d          20.604 -31.653   8.322  0.00  0.00     0.070 H 
BRANCH  29  32
ATOM     32  N13 MOL d          21.971 -30.351   7.463  0.00  0.00    -0.353 N 
ATOM     33  C14 MOL d          22.574 -29.166   7.256  0.00  0.00     0.254 C 
ATOM     34  O24 MOL d          22.119 -28.117   7.801  0.00  0.00    -0.268 OA
ATOM     35  H11 MOL d          22.430 -31.160   7.095  0.00  0.00     0.163 HD
BRANCH  33  36
ATOM     36  C15 MOL d          23.764 -29.054   6.376  0.00  0.00     0.070 A 
ATOM     37  C16 MOL d          24.317 -27.788   6.032  0.00  0.00     0.114 A 
ATOM     38  C17 MOL d          25.479 -27.797   5.213  0.00  0.00     0.102 A 
ATOM     39  C18 MOL d          26.071 -28.923   4.716  0.00  0.00    -0.016 A 
ATOM     40  C19 MOL d          25.504 -30.161   5.093  0.00  0.00     0.106 A 
ATOM     41  H12 MOL d          26.935 -28.870   4.064  0.00  0.00     0.091 H 
ATOM     42  C20 MOL d          24.357 -30.226   5.915  0.00  0.00    -0.033 A 
ATOM     43  H13 MOL d          23.939 -31.189   6.186  0.00  0.00     0.089 H 
BRANCH  37  44
ATOM     44  O22 MOL d          23.819 -26.604   6.406  0.00  0.00    -0.357 OA
ATOM     45  H14 MOL d          23.888 -26.516   7.349  0.00  0.00     0.217 HD
ENDBRANCH  37  44
BRANCH  38  46
ATOM     46  O23 MOL d          26.033 -26.579   4.868  0.00  0.00    -0.358 OA
ATOM     47  H15 MOL d          26.742 -26.718   4.252  0.00  0.00     0.217 HD
ENDBRANCH  38  46
BRANCH  40  48
ATOM     48  N21 MOL d          26.078 -31.396   4.606  0.00  0.00    -0.116 N 
ATOM     49  O25 MOL d          25.399 -32.368   4.402  0.00  0.00    -0.532 OA
ATOM     50  O26 MOL d          27.289 -31.407   4.444  0.00  0.00    -0.532 OA
ENDBRANCH  40  48
ENDBRANCH  33  36
ENDBRANCH  29  32
ENDBRANCH   2  29
TORSDOF 11
ENDMDL
MODEL 2
REMARK VINA RESULT:      -9.2      1.282      2.694
REMARK  11 active torsions:
REMARK  status: ('A' for Active; 'I' for Inactive)
REMARK    1  A    between atoms: C1_1  and  O8_8 
REMARK    2  A    between atoms: C2_2  and  O9_9 
REMARK    3  A    between atoms: C3_3  and  S7_7 
REMARK    4  A    between atoms: C5_5  and  C6_6 
REMARK    5  A    between atoms: S7_7  and  C11_11 
REMARK    6  A    between atoms: C10_10  and  C12_12 
REMARK    7  A    between atoms: C12_12  and  N13_13 
REMARK       I    between atoms: N13_13  and  C14_14 
REMARK    8  A    between atoms: C14_14  and  C15_15 
REMARK    9  A    between atoms: C16_16  and  O22_22 
REMARK   10  A    between atoms: C17_17  and  O23_23 
REMARK   11  A    between atoms: C19_19  and  N21_21 
ROOT
ATOM      1  C6  MOL d          20.296 -30.638  10.894  0.00  0.00    -0.075 C 
ATOM      2  C10 MOL d          20.410 -29.968   9.781  0.00  0.00    -0.087 C 
ATOM      3  H5  MOL d          20.263 -31.726  10.868  0.00  0.00     0.080 H 
ATOM      4  H8  MOL d          20.455 -28.882   9.834  0.00  0.00     0.079 H 
ENDROOT
BRANCH   1   5
ATOM      5  C5  MOL d          20.210 -29.938  12.182  0.00  0.00     0.083 C 
ATOM      6  C1  MOL d          20.503 -30.920  13.358  0.00  0.00     0.091 C 
ATOM      7  C2  MOL d          19.162 -31.680  13.299  0.00  0.00     0.097 C 
ATOM      8  H1  MOL d          21.385 -31.560  13.210  0.00  0.00     0.091 H 
ATOM      9  C3  MOL d          18.131 -30.591  12.991  0.00  0.00     0.115 C 
ATOM     10  H2  MOL d          19.189 -32.429  12.494  0.00  0.00     0.092 H 
ATOM     11  O4  MOL d          18.881 -29.525  12.390  0.00  0.00    -0.361 OA
ATOM     12  H3  MOL d          17.643 -30.239  13.912  0.00  0.00     0.105 H 
ATOM     13  H4  MOL d          20.903 -29.083  12.198  0.00  0.00     0.093 H 
BRANCH   6  14
ATOM     14  O8  MOL d          20.602 -30.151  14.554  0.00  0.00    -0.390 OA
ATOM     15  H6  MOL d          19.812 -29.635  14.664  0.00  0.00     0.210 HD
ENDBRANCH   6  14
BRANCH   7  16
ATOM     16  O9  MOL d          18.825 -32.333  14.529  0.00  0.00    -0.389 OA
ATOM     17  H7  MOL d          19.594 -32.770  14.875  0.00  0.00     0.210 HD
ENDBRANCH   7  16
BRANCH   9  18
ATOM     18  S7  MOL d          16.892 -31.268  11.877  0.00  0.00    -0.095 SA
BRANCH  18  19
ATOM     19  C11 MOL d          15.415 -30.930  12.582  0.00  0.00     0.005 A 
ATOM     20  C27 MOL d          15.259 -29.824  13.518  0.00  0.00    -0.050 A 
ATOM     21  C28 MOL d          14.005 -29.540  14.073  0.00  0.00     0.003 A 
ATOM     22  H16 MOL d          16.117 -29.219  13.786  0.00  0.00     0.087 H 
ATOM     23  N29 MOL d          12.862 -30.258  13.812  0.00  0.00    -0.273 NA
ATOM     24  H17 MOL d          13.932 -28.699  14.754  0.00  0.00     0.114 H 
ATOM     25  C30 MOL d          13.008 -31.319  12.927  0.00  0.00     0.003 A 
ATOM     26  C31 MOL d          14.214 -31.655  12.320  0.00  0.00    -0.050 A 
ATOM     27  H18 MOL d          12.134 -31.918  12.697  0.00  0.00     0.114 H 
ATOM     28  H19 MOL d          14.242 -32.489  11.630  0.00  0.00     0.087 H 
ENDBRANCH  18  19
ENDBRANCH   9  18
ENDBRANCH   1   5
BRANCH   2  29
ATOM     29  C12 MOL d          20.482 -30.615   8.437  0.00  0.00     0.010 C 
ATOM     30  H9  MOL d          19.587 -30.335   7.863  0.00  0.00     0.070 H 
ATOM     31  H10 MOL d          20.504 -31.707   8.572  0.00  0.00     0.070 H 
BRANCH  29  32
ATOM     32  N13 MOL d          21.650 -30.219   7.693  0.00  0.00    -0.353 N 
ATOM     33  C14 MOL d          22.179 -30.859   6.634  0.00  0.00     0.254 C 
ATOM     34  O24 MOL d          21.576 -31.846   6.120  0.00  0.00    -0.268 OA
ATOM     35  H11 MOL d          22.114 -29.385   7.993  0.00  0.00     0.163 HD
BRANCH  33  36
ATOM     36  C15 MOL d          23.483 -30.440   6.058  0.00  0.00     0.070 A 
ATOM     37  C16 MOL d          24.439 -31.397   5.615  0.00  0.00     0.114 A 
ATOM     38  C17 MOL d          25.639 -30.887   5.047  0.00  0.00     0.102 A 
ATOM     39  C18 MOL d          25.942 -29.560   4.929  0.00  0.00    -0.016 A 
ATOM     40  C19 MOL d          24.960 -28.642   5.364  0.00  0.00     0.106 A 
ATOM     41  H12 MOL d          26.889 -29.228   4.521  0.00  0.00     0.091 H 
ATOM     42  C20 MOL d          23.741 -29.078   5.927  0.00  0.00    -0.033 A 
ATOM     43  H13 MOL d          23.005 -28.353   6.257  0.00  0.00     0.089 H 
BRANCH  37  44
ATOM     44  O22 MOL d          24.301 -32.724   5.709  0.00  0.00    -0.357 OA
ATOM     45  H14 MOL d          25.087 -33.097   6.089  0.00  0.00     0.217 HD
ENDBRANCH  37  44
BRANCH  38  46
ATOM     46  O23 MOL d          26.581 -31.798   4.609  0.00  0.00    -0.358 OA
ATOM     47  H15 MOL d          26.839 -32.358   5.333  0.00  0.00     0.217 HD
ENDBRANCH  38  46
BRANCH  40  48
ATOM     48  N21 MOL d          25.209 -27.221   5.270  0.00  0.00    -0.116 N 
ATOM     49  O25 MOL d          25.913 -26.761   4.410  0.00  0.00    -0.532 OA
ATOM     50  O26 MOL d          24.694 -26.519   6.128  0.00  0.00    -0.532 OA
ENDBRANCH  40  48
ENDBRANCH  33  36
ENDBRANCH  29  32
ENDBRANCH   2  29
TORSDOF 11
ENDMDL
MODEL 3
REMARK VINA RESULT:      -8.2      1.801      2.357
REMARK  11 active torsions:
REMARK  status: ('A' for Active; 'I' for Inactive)
REMARK    1  A    between atoms: C1_1  and  O8_8 
REMARK    2  A    between atoms: C2_2  and  O9_9 
REMARK    3  A    between atoms: C3_3  and  S7_7 
REMARK    4  A    between atoms: C5_5  and  C6_6 
REMARK    5  A    between atoms: S7_7  and  C11_11 
REMARK    6  A    between atoms: C10_10  and  C12_12 
REMARK    7  A    between atoms: C12_12  and  N13_13 
REMARK       I    between atoms: N13_13  and  C14_14 
REMARK    8  A    between atoms: C14_14  and  C15_15 
REMARK    9  A    between atoms: C16_16  and  O22_22 
REMARK   10  A    between atoms: C17_17  and  O23_23 
REMARK   11  A    between atoms: C19_19  and  N21_21 
ROOT
ATOM      1  C6  MOL d          20.916 -28.576  12.077  0.00  0.00    -0.075 C 
ATOM      2  C10 MOL d          21.962 -27.958  11.603  0.00  0.00    -0.087 C 
ATOM      3  H5  MOL d          19.921 -28.295  11.735  0.00  0.00     0.080 H 
ATOM      4  H8  MOL d          22.946 -28.268  11.950  0.00  0.00     0.079 H 
ENDROOT
BRANCH   1   5
ATOM      5  C5  MOL d          21.068 -29.648  13.070  0.00  0.00     0.083 C 
ATOM      6  C1  MOL d          21.917 -30.818  12.485  0.00  0.00     0.091 C 
ATOM      7  C2  MOL d          20.830 -31.381  11.547  0.00  0.00     0.097 C 
ATOM      8  H1  MOL d          22.834 -30.502  11.966  0.00  0.00     0.091 H 
ATOM      9  C3  MOL d          19.535 -31.241  12.351  0.00  0.00     0.115 C 
ATOM     10  H2  MOL d          20.782 -30.782  10.625  0.00  0.00     0.092 H 
ATOM     11  O4  MOL d          19.806 -30.219  13.322  0.00  0.00    -0.361 OA
ATOM     12  H3  MOL d          19.282 -32.185  12.856  0.00  0.00     0.105 H 
ATOM     13  H4  MOL d          21.520 -29.252  13.992  0.00  0.00     0.093 H 
BRANCH   6  14
ATOM     14  O8  MOL d          22.196 -31.728  13.546  0.00  0.00    -0.390 OA
ATOM     15  H6  MOL d          21.715 -32.535  13.404  0.00  0.00     0.210 HD
ENDBRANCH   6  14
BRANCH   7  16
ATOM     16  O9  MOL d          21.037 -32.754  11.195  0.00  0.00    -0.389 OA
ATOM     17  H7  MOL d          20.198 -33.197  11.147  0.00  0.00     0.210 HD
ENDBRANCH   7  16
BRANCH   9  18
ATOM     18  S7  MOL d          18.205 -30.785  11.231  0.00  0.00    -0.095 SA
BRANCH  18  19
ATOM     19  C11 MOL d          16.833 -30.670  12.178  0.00  0.00     0.005 A 
ATOM     20  C27 MOL d          16.803 -29.828  13.367  0.00  0.00    -0.050 A 
ATOM     21  C28 MOL d          15.632 -29.723  14.128  0.00  0.00     0.003 A 
ATOM     22  H16 MOL d          17.690 -29.280  13.662  0.00  0.00     0.087 H 
ATOM     23  N29 MOL d          14.463 -30.390  13.847  0.00  0.00    -0.273 NA
ATOM     24  H17 MOL d          15.650 -29.074  14.996  0.00  0.00     0.114 H 
ATOM     25  C30 MOL d          14.490 -31.201  12.721  0.00  0.00     0.003 A 
ATOM     26  C31 MOL d          15.606 -31.346  11.902  0.00  0.00    -0.050 A 
ATOM     27  H18 MOL d          13.592 -31.752  12.465  0.00  0.00     0.114 H 
ATOM     28  H19 MOL d          15.542 -31.988  11.032  0.00  0.00     0.087 H 
ENDBRANCH  18  19
ENDBRANCH   9  18
ENDBRANCH   1   5
BRANCH   2  29
ATOM     29  C12 MOL d          21.878 -26.849  10.608  0.00  0.00     0.010 C 
ATOM     30  H9  MOL d          22.292 -25.936  11.061  0.00  0.00     0.070 H 
ATOM     31  H10 MOL d          20.821 -26.684  10.351  0.00  0.00     0.070 H 
BRANCH  29  32
ATOM     32  N13 MOL d          22.607 -27.132   9.398  0.00  0.00    -0.353 N 
ATOM     33  C14 MOL d          22.218 -27.949   8.401  0.00  0.00     0.254 C 
ATOM     34  O24 MOL d          21.059 -28.459   8.413  0.00  0.00    -0.268 OA
ATOM     35  H11 MOL d          23.490 -26.676   9.287  0.00  0.00     0.163 HD
BRANCH  33  36
ATOM     36  C15 MOL d          23.135 -28.287   7.284  0.00  0.00     0.070 A 
ATOM     37  C16 MOL d          24.085 -27.346   6.794  0.00  0.00     0.114 A 
ATOM     38  C17 MOL d          24.939 -27.786   5.746  0.00  0.00     0.102 A 
ATOM     39  C18 MOL d          24.887 -29.021   5.165  0.00  0.00    -0.016 A 
ATOM     40  C19 MOL d          23.942 -29.931   5.690  0.00  0.00     0.106 A 
ATOM     41  H12 MOL d          25.538 -29.290   4.342  0.00  0.00     0.091 H 
ATOM     42  C20 MOL d          23.071 -29.567   6.739  0.00  0.00    -0.033 A 
ATOM     43  H13 MOL d          22.352 -30.282   7.122  0.00  0.00     0.089 H 
BRANCH  37  44
ATOM     44  O22 MOL d          24.220 -26.089   7.232  0.00  0.00    -0.357 OA
ATOM     45  H14 MOL d          24.853 -26.068   7.940  0.00  0.00     0.217 HD
ENDBRANCH  37  44
BRANCH  38  46
ATOM     46  O23 MOL d          25.870 -26.889   5.256  0.00  0.00    -0.358 OA
ATOM     47  H15 MOL d          25.674 -26.019   5.584  0.00  0.00     0.217 HD
ENDBRANCH  38  46
BRANCH  40  48
ATOM     48  N21 MOL d          23.829 -31.259   5.127  0.00  0.00    -0.116 N 
ATOM     49  O25 MOL d          24.784 -31.984   5.029  0.00  0.00    -0.532 OA
ATOM     50  O26 MOL d          22.722 -31.590   4.729  0.00  0.00    -0.532 OA
ENDBRANCH  40  48
ENDBRANCH  33  36
ENDBRANCH  29  32
ENDBRANCH   2  29
TORSDOF 11
ENDMDL
MODEL 4
REMARK VINA RESULT:      -7.5      1.889      3.062
REMARK  11 active torsions:
REMARK  status: ('A' for Active; 'I' for Inactive)
REMARK    1  A    between atoms: C1_1  and  O8_8 
REMARK    2  A    between atoms: C2_2  and  O9_9 
REMARK    3  A    between atoms: C3_3  and  S7_7 
REMARK    4  A    between atoms: C5_5  and  C6_6 
REMARK    5  A    between atoms: S7_7  and  C11_11 
REMARK    6  A    between atoms: C10_10  and  C12_12 
REMARK    7  A    between atoms: C12_12  and  N13_13 
REMARK       I    between atoms: N13_13  and  C14_14 
REMARK    8  A    between atoms: C14_14  and  C15_15 
REMARK    9  A    between atoms: C16_16  and  O22_22 
REMARK   10  A    between atoms: C17_17  and  O23_23 
REMARK   11  A    between atoms: C19_19  and  N21_21 
ROOT
ATOM      1  C6  MOL d          20.600 -28.653  12.354  0.00  0.00    -0.075 C 
ATOM      2  C10 MOL d          21.688 -28.233  11.772  0.00  0.00    -0.087 C 
ATOM      3  H5  MOL d          19.635 -28.249  12.052  0.00  0.00     0.080 H 
ATOM      4  H8  MOL d          22.639 -28.663  12.082  0.00  0.00     0.079 H 
ENDROOT
BRANCH   1   5
ATOM      5  C5  MOL d          20.663 -29.668  13.414  0.00  0.00     0.083 C 
ATOM      6  C1  MOL d          21.516 -30.889  12.950  0.00  0.00     0.091 C 
ATOM      7  C2  MOL d          20.473 -31.482  11.981  0.00  0.00     0.097 C 
ATOM      8  H1  MOL d          22.471 -30.625  12.472  0.00  0.00     0.091 H 
ATOM      9  C3  MOL d          19.136 -31.266  12.695  0.00  0.00     0.115 C 
ATOM     10  H2  MOL d          20.496 -30.937  11.025  0.00  0.00     0.092 H 
ATOM     11  O4  MOL d          19.374 -30.196  13.620  0.00  0.00    -0.361 OA
ATOM     12  H3  MOL d          18.829 -32.173  13.236  0.00  0.00     0.105 H 
ATOM     13  H4  MOL d          21.070 -29.229  14.338  0.00  0.00     0.093 H 
BRANCH   6  14
ATOM     14  O8  MOL d          21.707 -31.742  14.077  0.00  0.00    -0.390 OA
ATOM     15  H6  MOL d          22.459 -31.443  14.575  0.00  0.00     0.210 HD
ENDBRANCH   6  14
BRANCH   7  16
ATOM     16  O9  MOL d          20.665 -32.878  11.722  0.00  0.00    -0.389 OA
ATOM     17  H7  MOL d          20.805 -33.335  12.543  0.00  0.00     0.210 HD
ENDBRANCH   7  16
BRANCH   9  18
ATOM     18  S7  MOL d          17.888 -30.847  11.470  0.00  0.00    -0.095 SA
BRANCH  18  19
ATOM     19  C11 MOL d          16.447 -30.737  12.310  0.00  0.00     0.005 A 
ATOM     20  C27 MOL d          16.308 -29.853  13.460  0.00  0.00    -0.050 A 
ATOM     21  C28 MOL d          15.082 -29.754  14.130  0.00  0.00     0.003 A 
ATOM     22  H16 MOL d          17.156 -29.269  13.798  0.00  0.00     0.087 H 
ATOM     23  N29 MOL d          13.954 -30.464  13.791  0.00  0.00    -0.273 NA
ATOM     24  H17 MOL d          15.018 -29.073  14.970  0.00  0.00     0.114 H 
ATOM     25  C30 MOL d          14.085 -31.316  12.701  0.00  0.00     0.003 A 
ATOM     26  C31 MOL d          15.262 -31.458  11.972  0.00  0.00    -0.050 A 
ATOM     27  H18 MOL d          13.223 -31.901  12.403  0.00  0.00     0.114 H 
ATOM     28  H19 MOL d          15.280 -32.133  11.126  0.00  0.00     0.087 H 
ENDBRANCH  18  19
ENDBRANCH   9  18
ENDBRANCH   1   5
BRANCH   2  29
ATOM     29  C12 MOL d          21.697 -27.191  10.703  0.00  0.00     0.010 C 
ATOM     30  H9  MOL d          22.343 -26.361  11.025  0.00  0.00     0.070 H 
ATOM     31  H10 MOL d          20.670 -26.822  10.561  0.00  0.00     0.070 H 
BRANCH  29  32
ATOM     32  N13 MOL d          22.184 -27.692   9.444  0.00  0.00    -0.353 N 
ATOM     33  C14 MOL d          21.655 -28.699   8.724  0.00  0.00     0.254 C 
ATOM     34  O24 MOL d          20.556 -29.222   9.074  0.00  0.00    -0.268 OA
ATOM     35  H11 MOL d          22.997 -27.247   9.066  0.00  0.00     0.163 HD
BRANCH  33  36
ATOM     36  C15 MOL d          22.349 -29.231   7.524  0.00  0.00     0.070 A 
ATOM     37  C16 MOL d          21.982 -30.480   6.948  0.00  0.00     0.114 A 
ATOM     38  C17 MOL d          22.687 -30.877   5.779  0.00  0.00     0.102 A 
ATOM     39  C18 MOL d          23.699 -30.165   5.200  0.00  0.00    -0.016 A 
ATOM     40  C19 MOL d          24.022 -28.924   5.791  0.00  0.00     0.106 A 
ATOM     41  H12 MOL d          24.228 -30.535   4.330  0.00  0.00     0.091 H 
ATOM     42  C20 MOL d          23.355 -28.461   6.946  0.00  0.00    -0.033 A 
ATOM     43  H13 MOL d          23.624 -27.506   7.383  0.00  0.00     0.089 H 
BRANCH  37  44
ATOM     44  O22 MOL d          21.045 -31.304   7.429  0.00  0.00    -0.357 OA
ATOM     45  H14 MOL d          21.062 -32.120   6.943  0.00  0.00     0.217 HD
ENDBRANCH  37  44
BRANCH  38  46
ATOM     46  O23 MOL d          22.346 -32.086   5.202  0.00  0.00    -0.358 OA
ATOM     47  H15 MOL d          22.060 -31.940   4.308  0.00  0.00     0.217 HD
ENDBRANCH  38  46
BRANCH  40  48
ATOM     48  N21 MOL d          25.082 -28.113   5.234  0.00  0.00    -0.116 N 
ATOM     49  O25 MOL d          25.012 -26.913   5.212  0.00  0.00    -0.532 OA
ATOM     50  O26 MOL d          26.036 -28.714   4.759  0.00  0.00    -0.532 OA
ENDBRANCH  40  48
ENDBRANCH  33  36
ENDBRANCH  29  32
ENDBRANCH   2  29
TORSDOF 11
ENDMDL
