MODEL 1
REMARK VINA RESULT:      -3.1      0.000      0.000
REMARK  8 active torsions:
REMARK  status: ('A' for Active; 'I' for Inactive)
REMARK    1  A    between atoms: C2_2  and  C6_6 
REMARK    2  A    between atoms: C3_3  and  O20_16 
REMARK    3  A    between atoms: C5_5  and  C9_9 
REMARK    4  A    between atoms: C11_11  and  N29_21 
REMARK    5  A    between atoms: O20_16  and  C21_17 
REMARK    6  A    between atoms: C21_17  and  C22_18 
REMARK    7  A    between atoms: N29_21  and  C30_22 
REMARK    8  A    between atoms: C30_22  and  C31_23 
ROOT
ATOM      1  C9  MOL d          47.484  10.049   2.560  0.00  0.00    -0.015 A 
ATOM      2  C10 MOL d          47.461   9.147   1.443  0.00  0.00    -0.046 A 
ATOM      3  C11 MOL d          48.093   7.872   1.534  0.00  0.00     0.029 A 
ATOM      4  C12 MOL d          48.760   7.483   2.756  0.00  0.00    -0.058 A 
ATOM      5  C13 MOL d          48.787   8.376   3.879  0.00  0.00    -0.080 A 
ATOM      6  C14 MOL d          48.149   9.654   3.769  0.00  0.00    -0.072 A 
ATOM      7  H1  MOL d          46.960   9.436   0.526  0.00  0.00     0.088 H 
ATOM      8  H2  MOL d          49.242   6.515   2.825  0.00  0.00     0.086 H 
ATOM      9  H3  MOL d          49.283   8.088   4.798  0.00  0.00     0.083 H 
ATOM     10  H4  MOL d          48.168  10.334   4.613  0.00  0.00     0.084 H 
ENDROOT
BRANCH   1  11
ATOM     11  C5  MOL d          46.833  11.396   2.486  0.00  0.00     0.036 A 
ATOM     12  S1  MOL d          47.339  12.664   3.474  0.00  0.00    -0.078 SA
ATOM     13  C2  MOL d          46.224  13.812   2.878  0.00  0.00     0.117 A 
ATOM     14  C3  MOL d          45.421  13.213   1.871  0.00  0.00     0.112 A 
ATOM     15  C4  MOL d          45.771  11.851   1.663  0.00  0.00     0.064 A 
ATOM     16 BR19 MOL d          44.877  10.778   0.382  0.00  0.00    -0.047 Br
BRANCH  13  17
ATOM     17  C6  MOL d          46.206  15.129   3.389  0.00  0.00     0.219 C 
ATOM     18  O7  MOL d          47.128  15.910   3.159  0.00  0.00    -0.643 OA
ATOM     19  O8  MOL d          45.231  15.463   4.070  0.00  0.00    -0.643 OA
ENDBRANCH  13  17
BRANCH  14  20
ATOM     20  O20 MOL d          44.373  13.841   1.113  0.00  0.00    -0.338 OA
BRANCH  20  21
ATOM     21  C21 MOL d          44.818  14.709   0.064  0.00  0.00     0.106 C 
ATOM     22  H5  MOL d          44.363  14.394  -0.888  0.00  0.00     0.091 H 
ATOM     23  H6  MOL d          45.913  14.653  -0.016  0.00  0.00     0.091 H 
BRANCH  21  24
ATOM     24  C22 MOL d          44.404  16.147   0.373  0.00  0.00     0.198 C 
ATOM     25  O25 MOL d          43.682  16.372   1.361  0.00  0.00    -0.646 OA
ATOM     26  O26 MOL d          44.804  17.044  -0.374  0.00  0.00    -0.646 OA
ENDBRANCH  21  24
ENDBRANCH  20  21
ENDBRANCH  14  20
ENDBRANCH   1  11
BRANCH   3  27
ATOM     27  N29 MOL d          48.033   7.059   0.415  0.00  0.00    -0.386 N 
ATOM     28  H7  MOL d          47.496   6.184   0.494  0.00  0.00     0.160 HD
BRANCH  27  29
ATOM     29  C30 MOL d          48.673   7.346  -0.879  0.00  0.00     0.016 C 
ATOM     30  H8  MOL d          47.889   7.422  -1.648  0.00  0.00     0.071 H 
ATOM     31  H9  MOL d          49.350   6.515  -1.126  0.00  0.00     0.071 H 
BRANCH  29  32
ATOM     32  C31 MOL d          49.472   8.633  -0.879  0.00  0.00    -0.041 A 
ATOM     33  C34 MOL d          48.784   9.898  -0.883  0.00  0.00    -0.075 A 
ATOM     34  C35 MOL d          49.532  11.118  -0.878  0.00  0.00    -0.082 A 
ATOM     35  H10 MOL d          47.700   9.925  -0.891  0.00  0.00     0.084 H 
ATOM     36  C36 MOL d          50.966  11.053  -0.869  0.00  0.00    -0.083 A 
ATOM     37  H11 MOL d          49.024  12.075  -0.882  0.00  0.00     0.083 H 
ATOM     38  C37 MOL d          51.661   9.791  -0.864  0.00  0.00    -0.082 A 
ATOM     39  H12 MOL d          51.538  11.974  -0.864  0.00  0.00     0.083 H 
ATOM     40  C38 MOL d          50.906   8.570  -0.869  0.00  0.00    -0.075 A 
ATOM     41  H13 MOL d          52.745   9.764  -0.858  0.00  0.00     0.083 H 
ATOM     42  H14 MOL d          51.413   7.612  -0.865  0.00  0.00     0.084 H 
ENDBRANCH  29  32
ENDBRANCH  27  29
ENDBRANCH   3  27
TORSDOF 8
ENDMDL
MODEL 2
REMARK VINA RESULT:      -1.3      1.838      3.399
REMARK  8 active torsions:
REMARK  status: ('A' for Active; 'I' for Inactive)
REMARK    1  A    between atoms: C2_2  and  C6_6 
REMARK    2  A    between atoms: C3_3  and  O20_16 
REMARK    3  A    between atoms: C5_5  and  C9_9 
REMARK    4  A    between atoms: C11_11  and  N29_21 
REMARK    5  A    between atoms: O20_16  and  C21_17 
REMARK    6  A    between atoms: C21_17  and  C22_18 
REMARK    7  A    between atoms: N29_21  and  C30_22 
REMARK    8  A    between atoms: C30_22  and  C31_23 
ROOT
ATOM      1  C9  MOL d          48.052  12.444   1.400  0.00  0.00    -0.015 A 
ATOM      2  C10 MOL d          48.287  11.116   1.894  0.00  0.00    -0.046 A 
ATOM      3  C11 MOL d          49.164  10.233   1.199  0.00  0.00     0.029 A 
ATOM      4  C12 MOL d          49.823  10.676  -0.009  0.00  0.00    -0.058 A 
ATOM      5  C13 MOL d          49.598  12.001  -0.510  0.00  0.00    -0.080 A 
ATOM      6  C14 MOL d          48.711  12.874   0.200  0.00  0.00    -0.072 A 
ATOM      7  H1  MOL d          47.793  10.783   2.800  0.00  0.00     0.088 H 
ATOM      8  H2  MOL d          50.489  10.004  -0.539  0.00  0.00     0.086 H 
ATOM      9  H3  MOL d          50.093  12.338  -1.413  0.00  0.00     0.083 H 
ATOM     10  H4  MOL d          48.536  13.875  -0.175  0.00  0.00     0.084 H 
ENDROOT
BRANCH   1  11
ATOM     11  C5  MOL d          47.130  13.388   2.110  0.00  0.00     0.036 A 
ATOM     12  S1  MOL d          47.629  14.226   3.484  0.00  0.00    -0.078 SA
ATOM     13  C2  MOL d          46.157  15.056   3.731  0.00  0.00     0.117 A 
ATOM     14  C3  MOL d          45.230  14.688   2.719  0.00  0.00     0.112 A 
ATOM     15  C4  MOL d          45.789  13.745   1.814  0.00  0.00     0.064 A 
ATOM     16 BR19 MOL d          44.796  13.059   0.354  0.00  0.00    -0.047 Br
BRANCH  13  17
ATOM     17  C6  MOL d          46.010  15.952   4.814  0.00  0.00     0.219 C 
ATOM     18  O7  MOL d          46.992  16.458   5.355  0.00  0.00    -0.643 OA
ATOM     19  O8  MOL d          44.862  16.207   5.191  0.00  0.00    -0.643 OA
ENDBRANCH  13  17
BRANCH  14  20
ATOM     20  O20 MOL d          43.884  15.171   2.563  0.00  0.00    -0.338 OA
BRANCH  20  21
ATOM     21  C21 MOL d          43.771  16.549   2.190  0.00  0.00     0.106 C 
ATOM     22  H5  MOL d          43.892  17.180   3.083  0.00  0.00     0.091 H 
ATOM     23  H6  MOL d          42.782  16.726   1.746  0.00  0.00     0.091 H 
BRANCH  21  24
ATOM     24  C22 MOL d          44.855  16.899   1.171  0.00  0.00     0.198 C 
ATOM     25  O25 MOL d          44.681  16.603  -0.025  0.00  0.00    -0.646 OA
ATOM     26  O26 MOL d          45.874  17.468   1.572  0.00  0.00    -0.646 OA
ENDBRANCH  21  24
ENDBRANCH  20  21
ENDBRANCH  14  20
ENDBRANCH   1  11
BRANCH   3  27
ATOM     27  N29 MOL d          49.336   8.968   1.734  0.00  0.00    -0.386 N 
ATOM     28  H7  MOL d          50.270   8.732   2.098  0.00  0.00     0.160 HD
BRANCH  27  29
ATOM     29  C30 MOL d          48.292   7.935   1.824  0.00  0.00     0.016 C 
ATOM     30  H8  MOL d          48.097   7.726   2.886  0.00  0.00     0.071 H 
ATOM     31  H9  MOL d          48.659   7.022   1.332  0.00  0.00     0.071 H 
BRANCH  29  32
ATOM     32  C31 MOL d          46.989   8.342   1.168  0.00  0.00    -0.041 A 
ATOM     33  C34 MOL d          45.862   8.704   1.989  0.00  0.00    -0.075 A 
ATOM     34  C35 MOL d          44.629   9.094   1.377  0.00  0.00    -0.082 A 
ATOM     35  H10 MOL d          45.948   8.680   3.070  0.00  0.00     0.084 H 
ATOM     36  C36 MOL d          44.541   9.118  -0.055  0.00  0.00    -0.083 A 
ATOM     37  H11 MOL d          43.775   9.368   1.986  0.00  0.00     0.083 H 
ATOM     38  C37 MOL d          45.664   8.757  -0.883  0.00  0.00    -0.082 A 
ATOM     39  H12 MOL d          43.610   9.413  -0.525  0.00  0.00     0.083 H 
ATOM     40  C38 MOL d          46.900   8.366  -0.264  0.00  0.00    -0.075 A 
ATOM     41  H13 MOL d          45.577   8.780  -1.964  0.00  0.00     0.083 H 
ATOM     42  H14 MOL d          47.755   8.092  -0.871  0.00  0.00     0.084 H 
ENDBRANCH  29  32
ENDBRANCH  27  29
ENDBRANCH   3  27
TORSDOF 8
ENDMDL
MODEL 3
REMARK VINA RESULT:      -1.2      5.330      8.477
REMARK  8 active torsions:
REMARK  status: ('A' for Active; 'I' for Inactive)
REMARK    1  A    between atoms: C2_2  and  C6_6 
REMARK    2  A    between atoms: C3_3  and  O20_16 
REMARK    3  A    between atoms: C5_5  and  C9_9 
REMARK    4  A    between atoms: C11_11  and  N29_21 
REMARK    5  A    between atoms: O20_16  and  C21_17 
REMARK    6  A    between atoms: C21_17  and  C22_18 
REMARK    7  A    between atoms: N29_21  and  C30_22 
REMARK    8  A    between atoms: C30_22  and  C31_23 
ROOT
ATOM      1  C9  MOL d          47.660  10.390   1.672  0.00  0.00    -0.015 A 
ATOM      2  C10 MOL d          47.263  11.214   0.565  0.00  0.00    -0.046 A 
ATOM      3  C11 MOL d          46.384  12.319   0.767  0.00  0.00     0.029 A 
ATOM      4  C12 MOL d          45.890  12.613   2.094  0.00  0.00    -0.058 A 
ATOM      5  C13 MOL d          46.282  11.797   3.207  0.00  0.00    -0.080 A 
ATOM      6  C14 MOL d          47.164  10.690   2.984  0.00  0.00    -0.072 A 
ATOM      7  H1  MOL d          47.634  10.995  -0.430  0.00  0.00     0.088 H 
ATOM      8  H2  MOL d          45.221  13.451   2.248  0.00  0.00     0.086 H 
ATOM      9  H3  MOL d          45.917  12.016   4.204  0.00  0.00     0.083 H 
ATOM     10  H4  MOL d          47.461  10.069   3.822  0.00  0.00     0.084 H 
ENDROOT
BRANCH   1  11
ATOM     11  C5  MOL d          48.577   9.220   1.483  0.00  0.00     0.036 A 
ATOM     12  S1  MOL d          48.777   8.506  -0.030  0.00  0.00    -0.078 SA
ATOM     13  C2  MOL d          49.893   7.318   0.480  0.00  0.00     0.117 A 
ATOM     14  C3  MOL d          50.138   7.464   1.871  0.00  0.00     0.112 A 
ATOM     15  C4  MOL d          49.388   8.537   2.425  0.00  0.00     0.064 A 
ATOM     16 BR19 MOL d          49.498   8.983   4.263  0.00  0.00    -0.047 Br
BRANCH  13  17
ATOM     17  C6  MOL d          50.424   6.388  -0.442  0.00  0.00     0.219 C 
ATOM     18  O7  MOL d          51.591   6.470  -0.823  0.00  0.00    -0.643 OA
ATOM     19  O8  MOL d          49.674   5.494  -0.847  0.00  0.00    -0.643 OA
ENDBRANCH  13  17
BRANCH  14  20
ATOM     20  O20 MOL d          51.022   6.671   2.682  0.00  0.00    -0.338 OA
BRANCH  20  21
ATOM     21  C21 MOL d          50.433   5.498   3.255  0.00  0.00     0.106 C 
ATOM     22  H5  MOL d          51.063   4.624   3.028  0.00  0.00     0.091 H 
ATOM     23  H6  MOL d          49.430   5.348   2.830  0.00  0.00     0.091 H 
BRANCH  21  24
ATOM     24  C22 MOL d          50.322   5.663   4.770  0.00  0.00     0.198 C 
ATOM     25  O25 MOL d          51.342   5.535   5.471  0.00  0.00    -0.646 OA
ATOM     26  O26 MOL d          49.215   5.922   5.251  0.00  0.00    -0.646 OA
ENDBRANCH  21  24
ENDBRANCH  20  21
ENDBRANCH  14  20
ENDBRANCH   1  11
BRANCH   3  27
ATOM     27  N29 MOL d          46.044  13.063  -0.348  0.00  0.00    -0.386 N 
ATOM     28  H7  MOL d          46.719  13.086  -1.126  0.00  0.00     0.160 HD
BRANCH  27  29
ATOM     29  C30 MOL d          44.795  13.825  -0.513  0.00  0.00     0.016 C 
ATOM     30  H8  MOL d          43.948  13.160  -0.290  0.00  0.00     0.071 H 
ATOM     31  H9  MOL d          44.729  14.167  -1.557  0.00  0.00     0.071 H 
BRANCH  29  32
ATOM     32  C31 MOL d          44.708  15.034   0.395  0.00  0.00    -0.041 A 
ATOM     33  C34 MOL d          44.457  14.851   1.801  0.00  0.00    -0.075 A 
ATOM     34  C35 MOL d          44.378  15.989   2.666  0.00  0.00    -0.082 A 
ATOM     35  H10 MOL d          44.327  13.853   2.204  0.00  0.00     0.084 H 
ATOM     36  C36 MOL d          44.553  17.299   2.107  0.00  0.00    -0.083 A 
ATOM     37  H11 MOL d          44.189  15.862   3.726  0.00  0.00     0.083 H 
ATOM     38  C37 MOL d          44.804  17.490   0.702  0.00  0.00    -0.082 A 
ATOM     39  H12 MOL d          44.494  18.165   2.758  0.00  0.00     0.083 H 
ATOM     40  C38 MOL d          44.883  16.346  -0.162  0.00  0.00    -0.075 A 
ATOM     41  H13 MOL d          44.932  18.489   0.299  0.00  0.00     0.083 H 
ATOM     42  H14 MOL d          45.072  16.470  -1.222  0.00  0.00     0.084 H 
ENDBRANCH  29  32
ENDBRANCH  27  29
ENDBRANCH   3  27
TORSDOF 8
ENDMDL
