REMARK  4 active torsions:
REMARK  status: ('A' for Active; 'I' for Inactive)
REMARK    1  A    between atoms: S1_4  and  N1_2 
REMARK    2  A    between atoms: C3_7  and  O1_3 
REMARK    3  A    between atoms: O1_3  and  C6_11 
REMARK    4  A    between atoms: C5_10  and  S1_4 
ROOT
ATOM      1  C1  M4S d           2.527  -5.567   7.656  0.00  0.00    -0.058 A 
ATOM      2  C2  M4S d           3.388  -5.613   8.741  0.00  0.00    -0.049 A 
ATOM      3  C3  M4S d           4.640  -6.208   8.644  0.00  0.00     0.068 A 
ATOM      4  C4  M4S d           5.064  -6.745   7.425  0.00  0.00    -0.049 A 
ATOM      5  C5  M4S d           2.919  -6.119   6.437  0.00  0.00     0.079 A 
ATOM      6  C7  M4S d           4.190  -6.708   6.327  0.00  0.00    -0.058 A 
ATOM      7  H1  M4S d           1.552  -5.104   7.755  0.00  0.00     0.086 H 
ATOM      8  H4  M4S d           3.079  -5.176   9.684  0.00  0.00     0.087 H 
ATOM      9  H5  M4S d           6.051  -7.183   7.329  0.00  0.00     0.087 H 
ATOM     10  H9  M4S d           4.500  -7.139   5.382  0.00  0.00     0.086 H 
ENDROOT
BRANCH   5  11
ATOM     11  S1  M4S d           1.913  -6.075   5.175  0.00  0.00     0.256 S 
ATOM     12  O2  M4S d           1.893  -7.475   4.660  0.00  0.00    -0.201 OA
ATOM     13  O3  M4S d           0.500  -5.678   5.441  0.00  0.00    -0.201 OA
BRANCH  11  14
ATOM     14  N1  M4S d           2.550  -5.190   4.166  0.00  0.00    -0.324 N 
ATOM     15  H2  M4S d           3.500  -5.345   3.894  0.00  0.00     0.169 HD
ATOM     16  H3  M4S d           2.029  -4.439   3.759  0.00  0.00     0.169 HD
ENDBRANCH  11  14
ENDBRANCH   5  11
BRANCH   3  17
ATOM     17  O1  M4S d           5.431  -6.235   9.766  0.00  0.00    -0.356 OA
BRANCH  17  18
ATOM     18  C6  M4S d           6.649  -6.973   9.783  0.00  0.00     0.010 C 
ATOM     19  H6  M4S d           7.129  -6.866  10.767  0.00  0.00     0.066 H 
ATOM     20  H7  M4S d           7.322  -6.588   9.003  0.00  0.00     0.066 H 
ATOM     21  H8  M4S d           6.437  -8.035   9.592  0.00  0.00     0.066 H 
ENDBRANCH  17  18
ENDBRANCH   3  17
TORSDOF 4
