MODEL 1
REMARK VINA RESULT:      -6.3      0.000      0.000
REMARK  4 active torsions:
REMARK  status: ('A' for Active; 'I' for Inactive)
REMARK    1  A    between atoms: S1_4  and  N1_2 
REMARK    2  A    between atoms: C3_7  and  O1_3 
REMARK    3  A    between atoms: O1_3  and  C6_11 
REMARK    4  A    between atoms: C5_10  and  S1_4 
ROOT
ATOM      1  C1  M4S d           4.983  -6.502   6.794  0.00  0.00    -0.058 A 
ATOM      2  C2  M4S d           6.130  -6.922   7.449  0.00  0.00    -0.049 A 
ATOM      3  C3  M4S d           6.163  -7.055   8.832  0.00  0.00     0.068 A 
ATOM      4  C4  M4S d           5.015  -6.797   9.585  0.00  0.00    -0.049 A 
ATOM      5  C5  M4S d           3.833  -6.214   7.528  0.00  0.00     0.079 A 
ATOM      6  C7  M4S d           3.854  -6.362   8.925  0.00  0.00    -0.058 A 
ATOM      7  H1  M4S d           4.980  -6.398   5.716  0.00  0.00     0.086 H 
ATOM      8  H4  M4S d           7.019  -7.150   6.872  0.00  0.00     0.087 H 
ATOM      9  H5  M4S d           5.020  -6.928  10.662  0.00  0.00     0.087 H 
ATOM     10  H9  M4S d           2.963  -6.139   9.501  0.00  0.00     0.086 H 
ENDROOT
BRANCH   5  11
ATOM     11  S1  M4S d           2.499  -5.716   6.767  0.00  0.00     0.256 S 
ATOM     12  O2  M4S d           2.972  -4.653   5.834  0.00  0.00    -0.201 OA
ATOM     13  O3  M4S d           1.758  -6.724   5.956  0.00  0.00    -0.201 OA
BRANCH  11  14
ATOM     14  N1  M4S d           1.631  -5.104   7.807  0.00  0.00    -0.324 N 
ATOM     15  H2  M4S d           2.009  -4.882   8.706  0.00  0.00     0.169 HD
ATOM     16  H3  M4S d           0.669  -4.916   7.608  0.00  0.00     0.169 HD
ENDBRANCH  11  14
ENDBRANCH   5  11
BRANCH   3  17
ATOM     17  O1  M4S d           7.341  -7.456   9.414  0.00  0.00    -0.356 OA
BRANCH  17  18
ATOM     18  C6  M4S d           7.347  -8.086  10.691  0.00  0.00     0.010 C 
ATOM     19  H6  M4S d           7.207  -7.328  11.475  0.00  0.00     0.066 H 
ATOM     20  H7  M4S d           8.308  -8.598  10.843  0.00  0.00     0.066 H 
ATOM     21  H8  M4S d           6.530  -8.820  10.741  0.00  0.00     0.066 H 
ENDBRANCH  17  18
ENDBRANCH   3  17
TORSDOF 4
ENDMDL
MODEL 2
REMARK VINA RESULT:      -6.2      0.916      1.669
REMARK  4 active torsions:
REMARK  status: ('A' for Active; 'I' for Inactive)
REMARK    1  A    between atoms: S1_4  and  N1_2 
REMARK    2  A    between atoms: C3_7  and  O1_3 
REMARK    3  A    between atoms: O1_3  and  C6_11 
REMARK    4  A    between atoms: C5_10  and  S1_4 
ROOT
ATOM      1  C1  M4S d           3.047  -6.326   8.500  0.00  0.00    -0.058 A 
ATOM      2  C2  M4S d           4.121  -6.794   9.240  0.00  0.00    -0.049 A 
ATOM      3  C3  M4S d           5.369  -6.984   8.660  0.00  0.00     0.068 A 
ATOM      4  C4  M4S d           5.566  -6.670   7.312  0.00  0.00    -0.049 A 
ATOM      5  C5  M4S d           3.214  -6.030   7.148  0.00  0.00     0.079 A 
ATOM      6  C7  M4S d           4.478  -6.204   6.558  0.00  0.00    -0.058 A 
ATOM      7  H1  M4S d           2.080  -6.192   8.970  0.00  0.00     0.086 H 
ATOM      8  H4  M4S d           3.985  -7.017  10.293  0.00  0.00     0.087 H 
ATOM      9  H5  M4S d           6.544  -6.784   6.857  0.00  0.00     0.087 H 
ATOM     10  H9  M4S d           4.614  -5.976   5.507  0.00  0.00     0.086 H 
ENDROOT
BRANCH   5  11
ATOM     11  S1  M4S d           1.961  -5.494   6.282  0.00  0.00     0.256 S 
ATOM     12  O2  M4S d           2.572  -4.635   5.227  0.00  0.00    -0.201 OA
ATOM     13  O3  M4S d           1.120  -6.516   5.593  0.00  0.00    -0.201 OA
BRANCH  11  14
ATOM     14  N1  M4S d           1.154  -4.648   7.198  0.00  0.00    -0.324 N 
ATOM     15  H2  M4S d           1.572  -4.265   8.022  0.00  0.00     0.169 HD
ATOM     16  H3  M4S d           0.193  -4.461   6.990  0.00  0.00     0.169 HD
ENDBRANCH  11  14
ENDBRANCH   5  11
BRANCH   3  17
ATOM     17  O1  M4S d           6.381  -7.471   9.450  0.00  0.00    -0.356 OA
BRANCH  17  18
ATOM     18  C6  M4S d           7.527  -8.087   8.871  0.00  0.00     0.010 C 
ATOM     19  H6  M4S d           8.399  -7.427   8.991  0.00  0.00     0.066 H 
ATOM     20  H7  M4S d           7.347  -8.264   7.800  0.00  0.00     0.066 H 
ATOM     21  H8  M4S d           7.721  -9.046   9.373  0.00  0.00     0.066 H 
ENDBRANCH  17  18
ENDBRANCH   3  17
TORSDOF 4
ENDMDL
MODEL 3
REMARK VINA RESULT:      -5.5      2.759      5.095
REMARK  4 active torsions:
REMARK  status: ('A' for Active; 'I' for Inactive)
REMARK    1  A    between atoms: S1_4  and  N1_2 
REMARK    2  A    between atoms: C3_7  and  O1_3 
REMARK    3  A    between atoms: O1_3  and  C6_11 
REMARK    4  A    between atoms: C5_10  and  S1_4 
ROOT
ATOM      1  C1  M4S d           4.139  -6.736   9.267  0.00  0.00    -0.058 A 
ATOM      2  C2  M4S d           3.013  -6.333   8.568  0.00  0.00    -0.049 A 
ATOM      3  C3  M4S d           3.071  -6.047   7.209  0.00  0.00     0.068 A 
ATOM      4  C4  M4S d           4.275  -6.196   6.516  0.00  0.00    -0.049 A 
ATOM      5  C5  M4S d           5.358  -6.866   8.602  0.00  0.00     0.079 A 
ATOM      6  C7  M4S d           5.420  -6.594   7.224  0.00  0.00    -0.058 A 
ATOM      7  H1  M4S d           4.074  -6.948  10.328  0.00  0.00     0.086 H 
ATOM      8  H4  M4S d           2.067  -6.240   9.091  0.00  0.00     0.087 H 
ATOM      9  H5  M4S d           4.325  -6.006   5.450  0.00  0.00     0.087 H 
ATOM     10  H9  M4S d           6.365  -6.693   6.702  0.00  0.00     0.086 H 
ENDROOT
BRANCH   5  11
ATOM     11  S1  M4S d           6.673  -7.325   9.417  0.00  0.00     0.256 S 
ATOM     12  O2  M4S d           7.362  -6.050   9.770  0.00  0.00    -0.201 OA
ATOM     13  O3  M4S d           6.462  -8.083  10.684  0.00  0.00    -0.201 OA
BRANCH  11  14
ATOM     14  N1  M4S d           7.513  -8.087   8.457  0.00  0.00    -0.324 N 
ATOM     15  H2  M4S d           7.338  -9.059   8.302  0.00  0.00     0.169 HD
ATOM     16  H3  M4S d           8.254  -7.627   7.966  0.00  0.00     0.169 HD
ENDBRANCH  11  14
ENDBRANCH   5  11
BRANCH   3  17
ATOM     17  O1  M4S d           1.919  -5.634   6.587  0.00  0.00    -0.356 OA
BRANCH  17  18
ATOM     18  C6  M4S d           1.399  -6.343   5.466  0.00  0.00     0.010 C 
ATOM     19  H6  M4S d           0.824  -5.654   4.831  0.00  0.00     0.066 H 
ATOM     20  H7  M4S d           0.743  -7.153   5.817  0.00  0.00     0.066 H 
ATOM     21  H8  M4S d           2.230  -6.771   4.886  0.00  0.00     0.066 H 
ENDBRANCH  17  18
ENDBRANCH   3  17
TORSDOF 4
ENDMDL
MODEL 4
REMARK VINA RESULT:      -4.4      3.215      5.310
REMARK  4 active torsions:
REMARK  status: ('A' for Active; 'I' for Inactive)
REMARK    1  A    between atoms: S1_4  and  N1_2 
REMARK    2  A    between atoms: C3_7  and  O1_3 
REMARK    3  A    between atoms: O1_3  and  C6_11 
REMARK    4  A    between atoms: C5_10  and  S1_4 
ROOT
ATOM      1  C1  M4S d           3.194  -7.062   6.367  0.00  0.00    -0.058 A 
ATOM      2  C2  M4S d           2.354  -6.810   5.294  0.00  0.00    -0.049 A 
ATOM      3  C3  M4S d           1.364  -5.838   5.365  0.00  0.00     0.068 A 
ATOM      4  C4  M4S d           1.223  -5.069   6.524  0.00  0.00    -0.049 A 
ATOM      5  C5  M4S d           3.055  -6.324   7.542  0.00  0.00     0.079 A 
ATOM      6  C7  M4S d           2.067  -5.328   7.616  0.00  0.00    -0.058 A 
ATOM      7  H1  M4S d           3.955  -7.829   6.293  0.00  0.00     0.086 H 
ATOM      8  H4  M4S d           2.471  -7.383   4.381  0.00  0.00     0.087 H 
ATOM      9  H5  M4S d           0.476  -4.286   6.579  0.00  0.00     0.087 H 
ATOM     10  H9  M4S d           1.955  -4.752   8.527  0.00  0.00     0.086 H 
ENDROOT
BRANCH   5  11
ATOM     11  S1  M4S d           4.027  -6.623   8.797  0.00  0.00     0.256 S 
ATOM     12  O2  M4S d           4.128  -5.319   9.514  0.00  0.00    -0.201 OA
ATOM     13  O3  M4S d           3.571  -7.641   9.787  0.00  0.00    -0.201 OA
BRANCH  11  14
ATOM     14  N1  M4S d           5.352  -6.971   8.223  0.00  0.00    -0.324 N 
ATOM     15  H2  M4S d           5.832  -7.791   8.536  0.00  0.00     0.169 HD
ATOM     16  H3  M4S d           5.764  -6.386   7.524  0.00  0.00     0.169 HD
ENDBRANCH  11  14
ENDBRANCH   5  11
BRANCH   3  17
ATOM     17  O1  M4S d           0.555  -5.658   4.270  0.00  0.00    -0.356 OA
BRANCH  17  18
ATOM     18  C6  M4S d           0.403  -4.372   3.678  0.00  0.00     0.010 C 
ATOM     19  H6  M4S d           1.389  -3.984   3.385  0.00  0.00     0.066 H 
ATOM     20  H7  M4S d          -0.060  -3.687   4.403  0.00  0.00     0.066 H 
ATOM     21  H8  M4S d          -0.239  -4.451   2.788  0.00  0.00     0.066 H 
ENDBRANCH  17  18
ENDBRANCH   3  17
TORSDOF 4
ENDMDL
