MODEL 1
REMARK VINA RESULT:      -5.8      0.000      0.000
REMARK  16 active torsions:
REMARK  status: ('A' for Active; 'I' for Inactive)
REMARK    1  A    between atoms: PA_1  and  O5_4 
REMARK    2  A    between atoms: O3A_8  and  PA_1 
REMARK    3  A    between atoms: O5_4  and  C5_23 
REMARK    4  A    between atoms: PB_5  and  O3A_8 
REMARK    5  A    between atoms: O3_38  and  PB_5 
REMARK    6  A    between atoms: O3_30  and  PG_9 
REMARK    7  A    between atoms: C1_26  and  N9A_13 
REMARK    8  A    between atoms: C5_23  and  C4_24 
REMARK    9  A    between atoms: C2_27  and  O2_28 
REMARK   10  A    between atoms: C3_29  and  O3_30 
REMARK   11  A    between atoms: C5_32  and  O5_31 
REMARK   12  A    between atoms: O5_31  and  PD_39 
REMARK   13  A    between atoms: C4_33  and  C5_32 
REMARK   14  A    between atoms: C1_35  and  N1T_43 
REMARK   15  A    between atoms: C3_37  and  O3_38 
REMARK   16  A    between atoms: C5T_50  and  CM5_51 
ROOT
ATOM      1  PA  PAX d         -30.194 -28.978  18.390  0.00  0.00     0.417 P 
ATOM      2  O1A PAX d         -29.825 -27.741  17.566  0.00  0.00    -0.624 OA
ATOM      3  O2A PAX d         -30.249 -28.790  19.910  0.00  0.00    -0.624 OA
ENDROOT
BRANCH   1   4
ATOM      4  O5  PAX d         -31.590 -29.585  17.918  0.00  0.00    -0.287 OA
BRANCH   4   5
ATOM      5  C5  PAX d         -32.557 -28.779  17.282  0.00  0.00     0.058 C 
ATOM      6  H5  PAX d         -32.377 -27.723  17.535  0.00  0.00     0.079 H 
ATOM      7  H6  PAX d         -33.561 -29.072  17.623  0.00  0.00     0.079 H 
BRANCH   5   8
ATOM      8  C4  PAX d         -32.461 -28.959  15.800  0.00  0.00     0.090 C 
ATOM      9  O4  PAX d         -31.492 -30.011  15.477  0.00  0.00    -0.353 OA
ATOM     10  C1  PAX d         -31.940 -30.677  14.317  0.00  0.00     0.140 C 
ATOM     11  C2  PAX d         -33.459 -30.765  14.563  0.00  0.00     0.106 C 
ATOM     12  H8  PAX d         -31.775 -30.041  13.435  0.00  0.00     0.122 H 
ATOM     13  C3  PAX d         -33.778 -29.379  15.144  0.00  0.00     0.107 C 
ATOM     14  H9  PAX d         -33.666 -31.534  15.321  0.00  0.00     0.093 H 
ATOM     15  H11 PAX d         -34.608 -29.426  15.865  0.00  0.00     0.092 H 
ATOM     16  H7  PAX d         -32.132 -28.007  15.360  0.00  0.00     0.090 H 
BRANCH  10  17
ATOM     17  N9A PAX d         -31.157 -31.930  14.086  0.00  0.00    -0.294 N 
ATOM     18  C4A PAX d         -30.682 -32.887  14.974  0.00  0.00     0.167 A 
ATOM     19  N3A PAX d         -30.823 -32.915  16.336  0.00  0.00    -0.222 NA
ATOM     20  C5A PAX d         -30.016 -33.846  14.178  0.00  0.00     0.149 A 
ATOM     21  C2A PAX d         -30.225 -34.015  16.892  0.00  0.00     0.091 A 
ATOM     22  N1A PAX d         -29.548 -35.019  16.248  0.00  0.00    -0.222 NA
ATOM     23  H1  PAX d         -30.295 -34.102  17.970  0.00  0.00     0.146 H 
ATOM     24  C6A PAX d         -29.425 -34.962  14.877  0.00  0.00     0.155 A 
ATOM     25  N6A PAX d         -28.769 -35.945  14.267  0.00  0.00    -0.382 N 
ATOM     26  H2  PAX d         -28.659 -35.934  13.243  0.00  0.00     0.157 HD
ATOM     27  H3  PAX d         -28.370 -36.719  14.819  0.00  0.00     0.157 HD
ATOM     28  N7A PAX d         -30.073 -33.495  12.838  0.00  0.00    -0.236 NA
ATOM     29  C8A PAX d         -30.752 -32.366  12.834  0.00  0.00     0.071 A 
ATOM     30  H4  PAX d         -30.977 -31.819  11.920  0.00  0.00     0.144 H 
ENDBRANCH  10  17
BRANCH  11  31
ATOM     31  O2  PAX d         -34.205 -31.110  13.403  0.00  0.00    -0.388 OA
ATOM     32  H10 PAX d         -33.919 -31.958  13.084  0.00  0.00     0.210 HD
ENDBRANCH  11  31
BRANCH  13  33
ATOM     33  O3  PAX d         -34.058 -28.428  14.113  0.00  0.00    -0.272 OA
BRANCH  33  34
ATOM     34  PG  PAX d         -34.594 -26.917  14.437  0.00  0.00     0.422 P 
ATOM     35  O1G PAX d         -35.328 -26.438  13.187  0.00  0.00    -0.617 OA
ATOM     36  O2G PAX d         -35.497 -27.062  15.654  0.00  0.00    -0.617 OA
ATOM     37  O3G PAX d         -33.380 -26.021  14.746  0.00  0.00    -0.617 OA
ENDBRANCH  33  34
ENDBRANCH  13  33
ENDBRANCH   5   8
ENDBRANCH   4   5
ENDBRANCH   1   4
BRANCH   1  38
ATOM     38  O3A PAX d         -29.211 -30.175  18.048  0.00  0.00    -0.180 OA
BRANCH  38  39
ATOM     39  PB  PAX d         -28.019 -30.865  18.818  0.00  0.00     0.418 P 
ATOM     40  O1B PAX d         -26.961 -29.864  19.053  0.00  0.00    -0.624 OA
ATOM     41  O2B PAX d         -28.588 -31.587  19.978  0.00  0.00    -0.624 OA
BRANCH  39  42
ATOM     42  O3  PAX d         -27.557 -32.039  17.791  0.00  0.00    -0.281 OA
BRANCH  42  43
ATOM     43  C3  PAX d         -26.507 -31.832  16.843  0.00  0.00     0.081 C 
ATOM     44  C4  PAX d         -26.598 -32.901  15.747  0.00  0.00     0.087 C 
ATOM     45  O4  PAX d         -25.508 -33.834  15.988  0.00  0.00    -0.356 OA
ATOM     46  H14 PAX d         -27.559 -33.426  15.844  0.00  0.00     0.090 H 
ATOM     47  C1  PAX d         -24.927 -33.564  17.248  0.00  0.00     0.116 C 
ATOM     48  C2  PAX d         -25.160 -32.080  17.501  0.00  0.00     0.003 C 
ATOM     49  H15 PAX d         -25.425 -34.156  18.030  0.00  0.00     0.118 H 
ATOM     50  H16 PAX d         -24.372 -31.471  17.033  0.00  0.00     0.043 H 
ATOM     51  H17 PAX d         -25.200 -31.864  18.579  0.00  0.00     0.043 H 
ATOM     52  H18 PAX d         -26.566 -30.818  16.422  0.00  0.00     0.088 H 
BRANCH  44  53
ATOM     53  C5  PAX d         -26.506 -32.337  14.338  0.00  0.00     0.059 C 
ATOM     54  H12 PAX d         -27.340 -32.731  13.737  0.00  0.00     0.079 H 
ATOM     55  H13 PAX d         -26.574 -31.240  14.384  0.00  0.00     0.079 H 
BRANCH  53  56
ATOM     56  O5  PAX d         -25.252 -32.710  13.715  0.00  0.00    -0.280 OA
BRANCH  56  57
ATOM     57  PD  PAX d         -24.130 -31.594  13.264  0.00  0.00     0.422 P 
ATOM     58  O1D PAX d         -23.700 -30.902  14.572  0.00  0.00    -0.617 OA
ATOM     59  O2D PAX d         -24.838 -30.631  12.284  0.00  0.00    -0.617 OA
ATOM     60  O3D PAX d         -22.982 -32.382  12.608  0.00  0.00    -0.617 OA
ENDBRANCH  56  57
ENDBRANCH  53  56
ENDBRANCH  44  53
BRANCH  47  61
ATOM     61  N1T PAX d         -23.469 -33.922  17.221  0.00  0.00    -0.282 N 
ATOM     62  C6T PAX d         -22.740 -34.005  16.007  0.00  0.00    -0.002 A 
ATOM     63  C5T PAX d         -21.425 -34.322  15.956  0.00  0.00     0.022 A 
ATOM     64  H19 PAX d         -23.263 -33.804  15.072  0.00  0.00     0.113 H 
ATOM     65  C4T PAX d         -20.711 -34.592  17.209  0.00  0.00     0.256 A 
ATOM     66  N3T PAX d         -21.489 -34.498  18.380  0.00  0.00    -0.275 N 
ATOM     67  O4T PAX d         -19.516 -34.877  17.316  0.00  0.00    -0.267 OA
ATOM     68  C2T PAX d         -22.842 -34.175  18.465  0.00  0.00     0.331 A 
ATOM     69  H20 PAX d         -21.019 -34.683  19.243  0.00  0.00     0.173 HD
ATOM     70  O2T PAX d         -23.423 -34.118  19.524  0.00  0.00    -0.246 OA
BRANCH  63  71
ATOM     71  CM5 PAX d         -20.722 -34.385  14.638  0.00  0.00    -0.045 C 
ATOM     72  H21 PAX d         -21.443 -34.204  13.828  0.00  0.00     0.033 H 
ATOM     73  H22 PAX d         -20.271 -35.381  14.510  0.00  0.00     0.033 H 
ATOM     74  H23 PAX d         -19.934 -33.619  14.605  0.00  0.00     0.033 H 
ENDBRANCH  63  71
ENDBRANCH  47  61
ENDBRANCH  42  43
ENDBRANCH  39  42
ENDBRANCH  38  39
ENDBRANCH   1  38
TORSDOF 16
ENDMDL
MODEL 2
REMARK VINA RESULT:      -4.9      3.716      7.118
REMARK  16 active torsions:
REMARK  status: ('A' for Active; 'I' for Inactive)
REMARK    1  A    between atoms: PA_1  and  O5_4 
REMARK    2  A    between atoms: O3A_8  and  PA_1 
REMARK    3  A    between atoms: O5_4  and  C5_23 
REMARK    4  A    between atoms: PB_5  and  O3A_8 
REMARK    5  A    between atoms: O3_38  and  PB_5 
REMARK    6  A    between atoms: O3_30  and  PG_9 
REMARK    7  A    between atoms: C1_26  and  N9A_13 
REMARK    8  A    between atoms: C5_23  and  C4_24 
REMARK    9  A    between atoms: C2_27  and  O2_28 
REMARK   10  A    between atoms: C3_29  and  O3_30 
REMARK   11  A    between atoms: C5_32  and  O5_31 
REMARK   12  A    between atoms: O5_31  and  PD_39 
REMARK   13  A    between atoms: C4_33  and  C5_32 
REMARK   14  A    between atoms: C1_35  and  N1T_43 
REMARK   15  A    between atoms: C3_37  and  O3_38 
REMARK   16  A    between atoms: C5T_50  and  CM5_51 
ROOT
ATOM      1  PA  PAX d         -33.550 -33.068  17.686  0.00  0.00     0.417 P 
ATOM      2  O1A PAX d         -33.820 -34.190  18.693  0.00  0.00    -0.624 OA
ATOM      3  O2A PAX d         -34.767 -32.257  17.230  0.00  0.00    -0.624 OA
ENDROOT
BRANCH   1   4
ATOM      4  O5  PAX d         -32.458 -32.048  18.243  0.00  0.00    -0.287 OA
BRANCH   4   5
ATOM      5  C5  PAX d         -31.095 -32.405  18.307  0.00  0.00     0.058 C 
ATOM      6  H5  PAX d         -30.909 -33.264  17.645  0.00  0.00     0.079 H 
ATOM      7  H6  PAX d         -30.836 -32.677  19.341  0.00  0.00     0.079 H 
BRANCH   5   8
ATOM      8  C4  PAX d         -30.255 -31.247  17.871  0.00  0.00     0.090 C 
ATOM      9  O4  PAX d         -31.088 -30.055  17.686  0.00  0.00    -0.353 OA
ATOM     10  C1  PAX d         -30.321 -28.926  18.042  0.00  0.00     0.140 C 
ATOM     11  C2  PAX d         -29.566 -29.429  19.288  0.00  0.00     0.106 C 
ATOM     12  H8  PAX d         -29.579 -28.717  17.257  0.00  0.00     0.122 H 
ATOM     13  C3  PAX d         -29.172 -30.856  18.878  0.00  0.00     0.107 C 
ATOM     14  H9  PAX d         -30.256 -29.474  20.143  0.00  0.00     0.093 H 
ATOM     15  H11 PAX d         -29.145 -31.531  19.747  0.00  0.00     0.092 H 
ATOM     16  H7  PAX d         -29.775 -31.513  16.917  0.00  0.00     0.090 H 
BRANCH  10  17
ATOM     17  N9A PAX d         -31.182 -27.707  18.143  0.00  0.00    -0.294 N 
ATOM     18  C4A PAX d         -31.816 -26.952  17.164  0.00  0.00     0.167 A 
ATOM     19  N3A PAX d         -31.806 -27.152  15.808  0.00  0.00    -0.222 NA
ATOM     20  C5A PAX d         -32.490 -25.921  17.856  0.00  0.00     0.149 A 
ATOM     21  C2A PAX d         -32.545 -26.210  15.144  0.00  0.00     0.091 A 
ATOM     22  N1A PAX d         -33.246 -25.161  15.681  0.00  0.00    -0.222 NA
ATOM     23  H1  PAX d         -32.581 -26.306  14.065  0.00  0.00     0.146 H 
ATOM     24  C6A PAX d         -33.237 -24.987  17.048  0.00  0.00     0.155 A 
ATOM     25  N6A PAX d         -33.924 -23.967  17.553  0.00  0.00    -0.382 N 
ATOM     26  H2  PAX d         -33.940 -23.809  18.570  0.00  0.00     0.157 HD
ATOM     27  H3  PAX d         -34.442 -23.334  16.926  0.00  0.00     0.157 HD
ATOM     28  N7A PAX d         -32.279 -26.029  19.222  0.00  0.00    -0.236 NA
ATOM     29  C8A PAX d         -31.508 -27.090  19.341  0.00  0.00     0.071 A 
ATOM     30  H4  PAX d         -31.154 -27.454  20.304  0.00  0.00     0.144 H 
ENDBRANCH  10  17
BRANCH  11  31
ATOM     31  O2  PAX d         -28.479 -28.597  19.670  0.00  0.00    -0.388 OA
ATOM     32  H10 PAX d         -27.948 -28.401  18.907  0.00  0.00     0.210 HD
ENDBRANCH  11  31
BRANCH  13  33
ATOM     33  O3  PAX d         -27.922 -30.877  18.183  0.00  0.00    -0.272 OA
BRANCH  33  34
ATOM     34  PG  PAX d         -26.900 -32.152  18.257  0.00  0.00     0.422 P 
ATOM     35  O1G PAX d         -27.399 -33.046  19.390  0.00  0.00    -0.617 OA
ATOM     36  O2G PAX d         -26.979 -32.810  16.886  0.00  0.00    -0.617 OA
ATOM     37  O3G PAX d         -25.481 -31.628  18.545  0.00  0.00    -0.617 OA
ENDBRANCH  33  34
ENDBRANCH  13  33
ENDBRANCH   5   8
ENDBRANCH   4   5
ENDBRANCH   1   4
BRANCH   1  38
ATOM     38  O3A PAX d         -32.803 -33.647  16.413  0.00  0.00    -0.180 OA
BRANCH  38  39
ATOM     39  PB  PAX d         -32.637 -35.096  15.807  0.00  0.00     0.418 P 
ATOM     40  O1B PAX d         -31.899 -35.934  16.771  0.00  0.00    -0.624 OA
ATOM     41  O2B PAX d         -33.968 -35.547  15.342  0.00  0.00    -0.624 OA
BRANCH  39  42
ATOM     42  O3  PAX d         -31.797 -34.822  14.441  0.00  0.00    -0.281 OA
BRANCH  42  43
ATOM     43  C3  PAX d         -31.015 -33.638  14.269  0.00  0.00     0.081 C 
ATOM     44  C4  PAX d         -30.723 -33.437  12.777  0.00  0.00     0.087 C 
ATOM     45  O4  PAX d         -29.323 -33.780  12.579  0.00  0.00    -0.356 OA
ATOM     46  H14 PAX d         -31.355 -34.125  12.197  0.00  0.00     0.090 H 
ATOM     47  C1  PAX d         -28.818 -34.390  13.750  0.00  0.00     0.116 C 
ATOM     48  C2  PAX d         -29.645 -33.827  14.899  0.00  0.00     0.003 C 
ATOM     49  H15 PAX d         -28.951 -35.481  13.698  0.00  0.00     0.118 H 
ATOM     50  H16 PAX d         -29.234 -32.869  15.249  0.00  0.00     0.043 H 
ATOM     51  H17 PAX d         -29.689 -34.536  15.739  0.00  0.00     0.043 H 
ATOM     52  H18 PAX d         -31.536 -32.769  14.698  0.00  0.00     0.088 H 
BRANCH  44  53
ATOM     53  C5  PAX d         -30.992 -32.023  12.290  0.00  0.00     0.059 C 
ATOM     54  H12 PAX d         -31.050 -32.025  11.191  0.00  0.00     0.079 H 
ATOM     55  H13 PAX d         -31.948 -31.673  12.706  0.00  0.00     0.079 H 
BRANCH  53  56
ATOM     56  O5  PAX d         -29.935 -31.124  12.709  0.00  0.00    -0.280 OA
BRANCH  56  57
ATOM     57  PD  PAX d         -30.206 -29.869  13.739  0.00  0.00     0.422 P 
ATOM     58  O1D PAX d         -31.610 -30.122  14.321  0.00  0.00    -0.617 OA
ATOM     59  O2D PAX d         -30.135 -28.581  12.889  0.00  0.00    -0.617 OA
ATOM     60  O3D PAX d         -29.101 -29.947  14.808  0.00  0.00    -0.617 OA
ENDBRANCH  56  57
ENDBRANCH  53  56
ENDBRANCH  44  53
BRANCH  47  61
ATOM     61  N1T PAX d         -27.355 -34.085  13.890  0.00  0.00    -0.282 N 
ATOM     62  C6T PAX d         -26.793 -32.874  13.411  0.00  0.00    -0.002 A 
ATOM     63  C5T PAX d         -25.478 -32.574  13.528  0.00  0.00     0.022 A 
ATOM     64  H19 PAX d         -27.449 -32.152  12.927  0.00  0.00     0.113 H 
ATOM     65  C4T PAX d         -24.585 -33.537  14.181  0.00  0.00     0.256 A 
ATOM     66  N3T PAX d         -25.201 -34.722  14.631  0.00  0.00    -0.275 N 
ATOM     67  O4T PAX d         -23.375 -33.393  14.369  0.00  0.00    -0.267 OA
ATOM     68  C2T PAX d         -26.548 -35.060  14.525  0.00  0.00     0.331 A 
ATOM     69  H20 PAX d         -24.606 -35.392  15.075  0.00  0.00     0.173 HD
ATOM     70  O2T PAX d         -26.982 -36.107  14.948  0.00  0.00    -0.246 OA
BRANCH  63  71
ATOM     71  CM5 PAX d         -24.958 -31.273  13.002  0.00  0.00    -0.045 C 
ATOM     72  H21 PAX d         -24.553 -30.678  13.833  0.00  0.00     0.033 H 
ATOM     73  H22 PAX d         -25.778 -30.719  12.520  0.00  0.00     0.033 H 
ATOM     74  H23 PAX d         -24.163 -31.466  12.267  0.00  0.00     0.033 H 
ENDBRANCH  63  71
ENDBRANCH  47  61
ENDBRANCH  42  43
ENDBRANCH  39  42
ENDBRANCH  38  39
ENDBRANCH   1  38
TORSDOF 16
ENDMDL
MODEL 3
REMARK VINA RESULT:      -4.7      3.710      6.890
REMARK  16 active torsions:
REMARK  status: ('A' for Active; 'I' for Inactive)
REMARK    1  A    between atoms: PA_1  and  O5_4 
REMARK    2  A    between atoms: O3A_8  and  PA_1 
REMARK    3  A    between atoms: O5_4  and  C5_23 
REMARK    4  A    between atoms: PB_5  and  O3A_8 
REMARK    5  A    between atoms: O3_38  and  PB_5 
REMARK    6  A    between atoms: O3_30  and  PG_9 
REMARK    7  A    between atoms: C1_26  and  N9A_13 
REMARK    8  A    between atoms: C5_23  and  C4_24 
REMARK    9  A    between atoms: C2_27  and  O2_28 
REMARK   10  A    between atoms: C3_29  and  O3_30 
REMARK   11  A    between atoms: C5_32  and  O5_31 
REMARK   12  A    between atoms: O5_31  and  PD_39 
REMARK   13  A    between atoms: C4_33  and  C5_32 
REMARK   14  A    between atoms: C1_35  and  N1T_43 
REMARK   15  A    between atoms: C3_37  and  O3_38 
REMARK   16  A    between atoms: C5T_50  and  CM5_51 
ROOT
ATOM      1  PA  PAX d         -32.224 -34.356  16.332  0.00  0.00     0.417 P 
ATOM      2  O1A PAX d         -32.651 -35.826  16.379  0.00  0.00    -0.624 OA
ATOM      3  O2A PAX d         -30.763 -34.062  16.688  0.00  0.00    -0.624 OA
ENDROOT
BRANCH   1   4
ATOM      4  O5  PAX d         -32.521 -33.719  14.901  0.00  0.00    -0.287 OA
BRANCH   4   5
ATOM      5  C5  PAX d         -32.608 -32.322  14.731  0.00  0.00     0.058 C 
ATOM      6  H5  PAX d         -32.256 -31.819  15.644  0.00  0.00     0.079 H 
ATOM      7  H6  PAX d         -33.654 -32.041  14.538  0.00  0.00     0.079 H 
BRANCH   5   8
ATOM      8  C4  PAX d         -31.758 -31.906  13.573  0.00  0.00     0.090 C 
ATOM      9  O4  PAX d         -31.959 -30.485  13.277  0.00  0.00    -0.353 OA
ATOM     10  C1  PAX d         -30.736 -29.957  12.814  0.00  0.00     0.140 C 
ATOM     11  C2  PAX d         -29.716 -30.645  13.742  0.00  0.00     0.106 C 
ATOM     12  H8  PAX d         -30.547 -30.301  11.786  0.00  0.00     0.122 H 
ATOM     13  C3  PAX d         -30.257 -32.081  13.816  0.00  0.00     0.107 C 
ATOM     14  H9  PAX d         -29.760 -30.188  14.741  0.00  0.00     0.093 H 
ATOM     15  H11 PAX d         -30.042 -32.542  14.791  0.00  0.00     0.092 H 
ATOM     16  H7  PAX d         -32.050 -32.510  12.700  0.00  0.00     0.090 H 
BRANCH  10  17
ATOM     17  N9A PAX d         -30.788 -28.463  12.755  0.00  0.00    -0.294 N 
ATOM     18  C4A PAX d         -29.780 -27.510  12.835  0.00  0.00     0.167 A 
ATOM     19  N3A PAX d         -28.435 -27.719  12.994  0.00  0.00    -0.222 NA
ATOM     20  C5A PAX d         -30.428 -26.260  12.713  0.00  0.00     0.149 A 
ATOM     21  C2A PAX d         -27.734 -26.543  13.029  0.00  0.00     0.091 A 
ATOM     22  N1A PAX d         -28.225 -25.267  12.926  0.00  0.00    -0.222 NA
ATOM     23  H1  PAX d         -26.661 -26.632  13.155  0.00  0.00     0.146 H 
ATOM     24  C6A PAX d         -29.583 -25.091  12.765  0.00  0.00     0.155 A 
ATOM     25  N6A PAX d         -30.044 -23.848  12.662  0.00  0.00    -0.382 N 
ATOM     26  H2  PAX d         -31.053 -23.681  12.541  0.00  0.00     0.157 HD
ATOM     27  H3  PAX d         -29.392 -23.052  12.704  0.00  0.00     0.157 HD
ATOM     28  N7A PAX d         -31.796 -26.430  12.565  0.00  0.00    -0.236 NA
ATOM     29  C8A PAX d         -31.958 -27.738  12.595  0.00  0.00     0.071 A 
ATOM     30  H4  PAX d         -32.934 -28.211  12.501  0.00  0.00     0.144 H 
ENDBRANCH  10  17
BRANCH  11  31
ATOM     31  O2  PAX d         -28.372 -30.538  13.290  0.00  0.00    -0.388 OA
ATOM     32  H10 PAX d         -28.039 -29.672  13.495  0.00  0.00     0.210 HD
ENDBRANCH  11  31
BRANCH  13  33
ATOM     33  O3  PAX d         -29.749 -32.890  12.751  0.00  0.00    -0.272 OA
BRANCH  33  34
ATOM     34  PG  PAX d         -28.506 -33.933  12.960  0.00  0.00     0.422 P 
ATOM     35  O1G PAX d         -28.304 -34.073  14.467  0.00  0.00    -0.617 OA
ATOM     36  O2G PAX d         -28.946 -35.224  12.283  0.00  0.00    -0.617 OA
ATOM     37  O3G PAX d         -27.254 -33.345  12.283  0.00  0.00    -0.617 OA
ENDBRANCH  33  34
ENDBRANCH  13  33
ENDBRANCH   5   8
ENDBRANCH   4   5
ENDBRANCH   1   4
BRANCH   1  38
ATOM     38  O3A PAX d         -33.172 -33.484  17.256  0.00  0.00    -0.180 OA
BRANCH  38  39
ATOM     39  PB  PAX d         -32.913 -32.380  18.354  0.00  0.00     0.418 P 
ATOM     40  O1B PAX d         -34.140 -31.578  18.522  0.00  0.00    -0.624 OA
ATOM     41  O2B PAX d         -32.331 -33.048  19.540  0.00  0.00    -0.624 OA
BRANCH  39  42
ATOM     42  O3  PAX d         -31.684 -31.522  17.722  0.00  0.00    -0.281 OA
BRANCH  42  43
ATOM     43  C3  PAX d         -30.616 -31.034  18.536  0.00  0.00     0.081 C 
ATOM     44  C4  PAX d         -30.014 -29.784  17.884  0.00  0.00     0.087 C 
ATOM     45  O4  PAX d         -28.731 -30.184  17.329  0.00  0.00    -0.356 OA
ATOM     46  H14 PAX d         -30.678 -29.453  17.072  0.00  0.00     0.090 H 
ATOM     47  C1  PAX d         -28.617 -31.592  17.374  0.00  0.00     0.116 C 
ATOM     48  C2  PAX d         -29.476 -32.038  18.550  0.00  0.00     0.003 C 
ATOM     49  H15 PAX d         -29.003 -32.035  16.444  0.00  0.00     0.118 H 
ATOM     50  H16 PAX d         -28.913 -31.985  19.494  0.00  0.00     0.043 H 
ATOM     51  H17 PAX d         -29.848 -33.063  18.402  0.00  0.00     0.043 H 
ATOM     52  H18 PAX d         -30.976 -30.824  19.554  0.00  0.00     0.088 H 
BRANCH  44  53
ATOM     53  C5  PAX d         -29.831 -28.622  18.849  0.00  0.00     0.059 C 
ATOM     54  H12 PAX d         -30.525 -28.743  19.694  0.00  0.00     0.079 H 
ATOM     55  H13 PAX d         -28.796 -28.622  19.221  0.00  0.00     0.079 H 
BRANCH  53  56
ATOM     56  O5  PAX d         -30.099 -27.360  18.191  0.00  0.00    -0.280 OA
BRANCH  56  57
ATOM     57  PD  PAX d         -31.543 -26.582  18.336  0.00  0.00     0.422 P 
ATOM     58  O1D PAX d         -31.833 -26.550  19.849  0.00  0.00    -0.617 OA
ATOM     59  O2D PAX d         -32.573 -27.422  17.547  0.00  0.00    -0.617 OA
ATOM     60  O3D PAX d         -31.334 -25.177  17.745  0.00  0.00    -0.617 OA
ENDBRANCH  56  57
ENDBRANCH  53  56
ENDBRANCH  44  53
BRANCH  47  61
ATOM     61  N1T PAX d         -27.175 -31.979  17.535  0.00  0.00    -0.282 N 
ATOM     62  C6T PAX d         -26.610 -33.075  16.835  0.00  0.00    -0.002 A 
ATOM     63  C5T PAX d         -25.314 -33.442  16.961  0.00  0.00     0.022 A 
ATOM     64  H19 PAX d         -27.250 -33.648  16.165  0.00  0.00     0.113 H 
ATOM     65  C4T PAX d         -24.442 -32.676  17.859  0.00  0.00     0.256 A 
ATOM     66  N3T PAX d         -25.061 -31.602  18.529  0.00  0.00    -0.275 N 
ATOM     67  O4T PAX d         -23.244 -32.885  18.060  0.00  0.00    -0.267 OA
ATOM     68  C2T PAX d         -26.391 -31.201  18.422  0.00  0.00     0.331 A 
ATOM     69  H20 PAX d         -24.483 -31.071  19.149  0.00  0.00     0.173 HD
ATOM     70  O2T PAX d         -26.829 -30.258  19.041  0.00  0.00    -0.246 OA
BRANCH  63  71
ATOM     71  CM5 PAX d         -24.788 -34.608  16.185  0.00  0.00    -0.045 C 
ATOM     72  H21 PAX d         -24.338 -35.336  16.876  0.00  0.00     0.033 H 
ATOM     73  H22 PAX d         -24.025 -34.260  15.472  0.00  0.00     0.033 H 
ATOM     74  H23 PAX d         -25.613 -35.086  15.636  0.00  0.00     0.033 H 
ENDBRANCH  63  71
ENDBRANCH  47  61
ENDBRANCH  42  43
ENDBRANCH  39  42
ENDBRANCH  38  39
ENDBRANCH   1  38
TORSDOF 16
ENDMDL
MODEL 4
REMARK VINA RESULT:      -4.7      3.566      5.612
REMARK  16 active torsions:
REMARK  status: ('A' for Active; 'I' for Inactive)
REMARK    1  A    between atoms: PA_1  and  O5_4 
REMARK    2  A    between atoms: O3A_8  and  PA_1 
REMARK    3  A    between atoms: O5_4  and  C5_23 
REMARK    4  A    between atoms: PB_5  and  O3A_8 
REMARK    5  A    between atoms: O3_38  and  PB_5 
REMARK    6  A    between atoms: O3_30  and  PG_9 
REMARK    7  A    between atoms: C1_26  and  N9A_13 
REMARK    8  A    between atoms: C5_23  and  C4_24 
REMARK    9  A    between atoms: C2_27  and  O2_28 
REMARK   10  A    between atoms: C3_29  and  O3_30 
REMARK   11  A    between atoms: C5_32  and  O5_31 
REMARK   12  A    between atoms: O5_31  and  PD_39 
REMARK   13  A    between atoms: C4_33  and  C5_32 
REMARK   14  A    between atoms: C1_35  and  N1T_43 
REMARK   15  A    between atoms: C3_37  and  O3_38 
REMARK   16  A    between atoms: C5T_50  and  CM5_51 
ROOT
ATOM      1  PA  PAX d         -29.131 -30.542  18.888  0.00  0.00     0.417 P 
ATOM      2  O1A PAX d         -29.107 -29.210  18.132  0.00  0.00    -0.624 OA
ATOM      3  O2A PAX d         -28.507 -30.539  20.288  0.00  0.00    -0.624 OA
ENDROOT
BRANCH   1   4
ATOM      4  O5  PAX d         -30.618 -31.103  19.013  0.00  0.00    -0.287 OA
BRANCH   4   5
ATOM      5  C5  PAX d         -31.245 -31.749  17.928  0.00  0.00     0.058 C 
ATOM      6  H5  PAX d         -31.674 -32.704  18.267  0.00  0.00     0.079 H 
ATOM      7  H6  PAX d         -30.505 -31.940  17.137  0.00  0.00     0.079 H 
BRANCH   5   8
ATOM      8  C4  PAX d         -32.335 -30.876  17.390  0.00  0.00     0.090 C 
ATOM      9  O4  PAX d         -32.285 -29.553  18.019  0.00  0.00    -0.353 OA
ATOM     10  C1  PAX d         -32.699 -28.600  17.066  0.00  0.00     0.140 C 
ATOM     11  C2  PAX d         -32.026 -29.117  15.779  0.00  0.00     0.106 C 
ATOM     12  H8  PAX d         -33.788 -28.661  16.927  0.00  0.00     0.122 H 
ATOM     13  C3  PAX d         -32.243 -30.634  15.882  0.00  0.00     0.107 C 
ATOM     14  H9  PAX d         -30.948 -28.900  15.815  0.00  0.00     0.093 H 
ATOM     15  H11 PAX d         -31.415 -31.191  15.418  0.00  0.00     0.092 H 
ATOM     16  H7  PAX d         -33.299 -31.355  17.615  0.00  0.00     0.090 H 
BRANCH  10  17
ATOM     17  N9A PAX d         -32.413 -27.211  17.541  0.00  0.00    -0.294 N 
ATOM     18  C4A PAX d         -32.493 -25.987  16.887  0.00  0.00     0.167 A 
ATOM     19  N3A PAX d         -32.871 -25.747  15.592  0.00  0.00    -0.222 NA
ATOM     20  C5A PAX d         -32.104 -25.020  17.841  0.00  0.00     0.149 A 
ATOM     21  C2A PAX d         -32.834 -24.413  15.285  0.00  0.00     0.091 A 
ATOM     22  N1A PAX d         -32.479 -23.372  16.103  0.00  0.00    -0.222 NA
ATOM     23  H1  PAX d         -33.120 -24.149  14.273  0.00  0.00     0.146 H 
ATOM     24  C6A PAX d         -32.105 -23.646  17.401  0.00  0.00     0.155 A 
ATOM     25  N6A PAX d         -31.767 -22.625  18.183  0.00  0.00    -0.382 N 
ATOM     26  H2  PAX d         -31.483 -22.795  19.158  0.00  0.00     0.157 HD
ATOM     27  H3  PAX d         -31.789 -21.663  17.814  0.00  0.00     0.157 HD
ATOM     28  N7A PAX d         -31.790 -25.624  19.050  0.00  0.00    -0.236 NA
ATOM     29  C8A PAX d         -31.987 -26.907  18.824  0.00  0.00     0.071 A 
ATOM     30  H4  PAX d         -31.827 -27.669  19.586  0.00  0.00     0.144 H 
ENDBRANCH  10  17
BRANCH  11  31
ATOM     31  O2  PAX d         -32.532 -28.522  14.592  0.00  0.00    -0.388 OA
ATOM     32  H10 PAX d         -33.328 -28.970  14.328  0.00  0.00     0.210 HD
ENDBRANCH  11  31
BRANCH  13  33
ATOM     33  O3  PAX d         -33.496 -31.025  15.315  0.00  0.00    -0.272 OA
BRANCH  33  34
ATOM     34  PG  PAX d         -33.840 -32.579  14.936  0.00  0.00     0.422 P 
ATOM     35  O1G PAX d         -34.642 -32.543  13.637  0.00  0.00    -0.617 OA
ATOM     36  O2G PAX d         -32.489 -33.268  14.798  0.00  0.00    -0.617 OA
ATOM     37  O3G PAX d         -34.665 -33.192  16.083  0.00  0.00    -0.617 OA
ENDBRANCH  33  34
ENDBRANCH  13  33
ENDBRANCH   5   8
ENDBRANCH   4   5
ENDBRANCH   1   4
BRANCH   1  38
ATOM     38  O3A PAX d         -28.450 -31.677  18.016  0.00  0.00    -0.180 OA
BRANCH  38  39
ATOM     39  PB  PAX d         -28.041 -33.175  18.298  0.00  0.00     0.418 P 
ATOM     40  O1B PAX d         -28.036 -33.402  19.756  0.00  0.00    -0.624 OA
ATOM     41  O2B PAX d         -28.883 -34.044  17.445  0.00  0.00    -0.624 OA
BRANCH  39  42
ATOM     42  O3  PAX d         -26.555 -33.273  17.643  0.00  0.00    -0.281 OA
BRANCH  42  43
ATOM     43  C3  PAX d         -26.348 -33.137  16.235  0.00  0.00     0.081 C 
ATOM     44  C4  PAX d         -26.345 -34.526  15.587  0.00  0.00     0.087 C 
ATOM     45  O4  PAX d         -24.962 -34.822  15.248  0.00  0.00    -0.356 OA
ATOM     46  H14 PAX d         -26.708 -35.260  16.322  0.00  0.00     0.090 H 
ATOM     47  C1  PAX d         -24.116 -33.858  15.842  0.00  0.00     0.116 C 
ATOM     48  C2  PAX d         -24.954 -32.593  15.968  0.00  0.00     0.003 C 
ATOM     49  H15 PAX d         -23.799 -34.194  16.841  0.00  0.00     0.118 H 
ATOM     50  H16 PAX d         -24.930 -32.007  15.037  0.00  0.00     0.043 H 
ATOM     51  H17 PAX d         -24.606 -31.968  16.803  0.00  0.00     0.043 H 
ATOM     52  H18 PAX d         -27.121 -32.489  15.796  0.00  0.00     0.088 H 
BRANCH  44  53
ATOM     53  C5  PAX d         -27.223 -34.622  14.349  0.00  0.00     0.059 C 
ATOM     54  H12 PAX d         -26.756 -35.310  13.629  0.00  0.00     0.079 H 
ATOM     55  H13 PAX d         -28.211 -35.008  14.637  0.00  0.00     0.079 H 
BRANCH  53  56
ATOM     56  O5  PAX d         -27.382 -33.322  13.730  0.00  0.00    -0.280 OA
BRANCH  56  57
ATOM     57  PD  PAX d         -28.863 -32.669  13.427  0.00  0.00     0.422 P 
ATOM     58  O1D PAX d         -28.613 -31.575  12.371  0.00  0.00    -0.617 OA
ATOM     59  O2D PAX d         -29.373 -32.099  14.770  0.00  0.00    -0.617 OA
ATOM     60  O3D PAX d         -29.736 -33.818  12.891  0.00  0.00    -0.617 OA
ENDBRANCH  56  57
ENDBRANCH  53  56
ENDBRANCH  44  53
BRANCH  47  61
ATOM     61  N1T PAX d         -22.898 -33.658  14.987  0.00  0.00    -0.282 N 
ATOM     62  C6T PAX d         -21.591 -33.629  15.539  0.00  0.00    -0.002 A 
ATOM     63  C5T PAX d         -20.478 -33.453  14.790  0.00  0.00     0.022 A 
ATOM     64  H19 PAX d         -21.479 -33.754  16.615  0.00  0.00     0.113 H 
ATOM     65  C4T PAX d         -20.617 -33.285  13.339  0.00  0.00     0.256 A 
ATOM     66  N3T PAX d         -21.938 -33.319  12.852  0.00  0.00    -0.275 N 
ATOM     67  O4T PAX d         -19.695 -33.132  12.534  0.00  0.00    -0.267 OA
ATOM     68  C2T PAX d         -23.103 -33.497  13.595  0.00  0.00     0.331 A 
ATOM     69  H20 PAX d         -22.052 -33.203  11.865  0.00  0.00     0.173 HD
ATOM     70  O2T PAX d         -24.197 -33.513  13.080  0.00  0.00    -0.246 OA
BRANCH  63  71
ATOM     71  CM5 PAX d         -19.132 -33.439  15.443  0.00  0.00    -0.045 C 
ATOM     72  H21 PAX d         -18.601 -34.372  15.207  0.00  0.00     0.033 H 
ATOM     73  H22 PAX d         -19.254 -33.352  16.533  0.00  0.00     0.033 H 
ATOM     74  H23 PAX d         -18.552 -32.583  15.069  0.00  0.00     0.033 H 
ENDBRANCH  63  71
ENDBRANCH  47  61
ENDBRANCH  42  43
ENDBRANCH  39  42
ENDBRANCH  38  39
ENDBRANCH   1  38
TORSDOF 16
ENDMDL
MODEL 5
REMARK VINA RESULT:      -4.5      3.275      5.279
REMARK  16 active torsions:
REMARK  status: ('A' for Active; 'I' for Inactive)
REMARK    1  A    between atoms: PA_1  and  O5_4 
REMARK    2  A    between atoms: O3A_8  and  PA_1 
REMARK    3  A    between atoms: O5_4  and  C5_23 
REMARK    4  A    between atoms: PB_5  and  O3A_8 
REMARK    5  A    between atoms: O3_38  and  PB_5 
REMARK    6  A    between atoms: O3_30  and  PG_9 
REMARK    7  A    between atoms: C1_26  and  N9A_13 
REMARK    8  A    between atoms: C5_23  and  C4_24 
REMARK    9  A    between atoms: C2_27  and  O2_28 
REMARK   10  A    between atoms: C3_29  and  O3_30 
REMARK   11  A    between atoms: C5_32  and  O5_31 
REMARK   12  A    between atoms: O5_31  and  PD_39 
REMARK   13  A    between atoms: C4_33  and  C5_32 
REMARK   14  A    between atoms: C1_35  and  N1T_43 
REMARK   15  A    between atoms: C3_37  and  O3_38 
REMARK   16  A    between atoms: C5T_50  and  CM5_51 
ROOT
ATOM      1  PA  PAX d         -29.147 -30.818  18.443  0.00  0.00     0.417 P 
ATOM      2  O1A PAX d         -29.266 -29.722  17.380  0.00  0.00    -0.624 OA
ATOM      3  O2A PAX d         -28.236 -30.509  19.636  0.00  0.00    -0.624 OA
ENDROOT
BRANCH   1   4
ATOM      4  O5  PAX d         -30.581 -31.225  19.010  0.00  0.00    -0.287 OA
BRANCH   4   5
ATOM      5  C5  PAX d         -31.219 -32.410  18.591  0.00  0.00     0.058 C 
ATOM      6  H5  PAX d         -31.710 -32.886  19.453  0.00  0.00     0.079 H 
ATOM      7  H6  PAX d         -30.472 -33.099  18.168  0.00  0.00     0.079 H 
BRANCH   5   8
ATOM      8  C4  PAX d         -32.243 -32.085  17.550  0.00  0.00     0.090 C 
ATOM      9  O4  PAX d         -32.624 -30.672  17.636  0.00  0.00    -0.353 OA
ATOM     10  C1  PAX d         -32.908 -30.216  16.331  0.00  0.00     0.140 C 
ATOM     11  C2  PAX d         -31.802 -30.901  15.504  0.00  0.00     0.106 C 
ATOM     12  H8  PAX d         -33.877 -30.616  16.000  0.00  0.00     0.122 H 
ATOM     13  C3  PAX d         -31.757 -32.308  16.117  0.00  0.00     0.107 C 
ATOM     14  H9  PAX d         -30.842 -30.395  15.682  0.00  0.00     0.093 H 
ATOM     15  H11 PAX d         -30.742 -32.731  16.080  0.00  0.00     0.092 H 
ATOM     16  H7  PAX d         -33.126 -32.716  17.730  0.00  0.00     0.090 H 
BRANCH  10  17
ATOM     17  N9A PAX d         -33.034 -28.726  16.303  0.00  0.00    -0.294 N 
ATOM     18  C4A PAX d         -32.618 -27.756  17.207  0.00  0.00     0.167 A 
ATOM     19  N3A PAX d         -31.962 -27.940  18.396  0.00  0.00    -0.222 NA
ATOM     20  C5A PAX d         -33.010 -26.520  16.646  0.00  0.00     0.149 A 
ATOM     21  C2A PAX d         -31.706 -26.753  19.030  0.00  0.00     0.091 A 
ATOM     22  N1A PAX d         -32.026 -25.489  18.607  0.00  0.00    -0.222 NA
ATOM     23  H1  PAX d         -31.189 -26.822  19.980  0.00  0.00     0.146 H 
ATOM     24  C6A PAX d         -32.685 -25.338  17.406  0.00  0.00     0.155 A 
ATOM     25  N6A PAX d         -32.984 -24.105  17.009  0.00  0.00    -0.382 N 
ATOM     26  H2  PAX d         -33.476 -23.956  16.116  0.00  0.00     0.157 HD
ATOM     27  H3  PAX d         -32.724 -23.297  17.593  0.00  0.00     0.157 HD
ATOM     28  N7A PAX d         -33.651 -26.715  15.432  0.00  0.00    -0.236 NA
ATOM     29  C8A PAX d         -33.641 -28.023  15.274  0.00  0.00     0.071 A 
ATOM     30  H4  PAX d         -34.074 -28.513  14.403  0.00  0.00     0.144 H 
ENDBRANCH  10  17
BRANCH  11  31
ATOM     31  O2  PAX d         -32.038 -30.869  14.102  0.00  0.00    -0.388 OA
ATOM     32  H10 PAX d         -32.447 -30.043  13.869  0.00  0.00     0.210 HD
ENDBRANCH  11  31
BRANCH  13  33
ATOM     33  O3  PAX d         -32.694 -33.187  15.487  0.00  0.00    -0.272 OA
BRANCH  33  34
ATOM     34  PG  PAX d         -32.224 -34.444  14.552  0.00  0.00     0.422 P 
ATOM     35  O1G PAX d         -31.312 -35.312  15.416  0.00  0.00    -0.617 OA
ATOM     36  O2G PAX d         -33.513 -35.141  14.138  0.00  0.00    -0.617 OA
ATOM     37  O3G PAX d         -31.470 -33.891  13.329  0.00  0.00    -0.617 OA
ENDBRANCH  33  34
ENDBRANCH  13  33
ENDBRANCH   5   8
ENDBRANCH   4   5
ENDBRANCH   1   4
BRANCH   1  38
ATOM     38  O3A PAX d         -28.687 -32.179  17.775  0.00  0.00    -0.180 OA
BRANCH  38  39
ATOM     39  PB  PAX d         -27.726 -33.348  18.224  0.00  0.00     0.418 P 
ATOM     40  O1B PAX d         -27.824 -33.510  19.687  0.00  0.00    -0.624 OA
ATOM     41  O2B PAX d         -27.998 -34.517  17.358  0.00  0.00    -0.624 OA
BRANCH  39  42
ATOM     42  O3  PAX d         -26.264 -32.817  17.748  0.00  0.00    -0.281 OA
BRANCH  42  43
ATOM     43  C3  PAX d         -26.044 -32.315  16.428  0.00  0.00     0.081 C 
ATOM     44  C4  PAX d         -26.433 -33.392  15.407  0.00  0.00     0.087 C 
ATOM     45  O4  PAX d         -25.189 -33.918  14.867  0.00  0.00    -0.356 OA
ATOM     46  H14 PAX d         -26.975 -34.194  15.928  0.00  0.00     0.090 H 
ATOM     47  C1  PAX d         -24.103 -33.436  15.631  0.00  0.00     0.116 C 
ATOM     48  C2  PAX d         -24.558 -32.097  16.198  0.00  0.00     0.003 C 
ATOM     49  H15 PAX d         -23.879 -34.130  16.454  0.00  0.00     0.118 H 
ATOM     50  H16 PAX d         -24.383 -31.283  15.479  0.00  0.00     0.043 H 
ATOM     51  H17 PAX d         -24.040 -31.871  17.142  0.00  0.00     0.043 H 
ATOM     52  H18 PAX d         -26.613 -31.387  16.271  0.00  0.00     0.088 H 
BRANCH  44  53
ATOM     53  C5  PAX d         -27.317 -32.874  14.284  0.00  0.00     0.059 C 
ATOM     54  H12 PAX d         -26.810 -33.036  13.321  0.00  0.00     0.079 H 
ATOM     55  H13 PAX d         -28.270 -33.423  14.293  0.00  0.00     0.079 H 
BRANCH  53  56
ATOM     56  O5  PAX d         -27.583 -31.459  14.449  0.00  0.00    -0.280 OA
BRANCH  56  57
ATOM     57  PD  PAX d         -28.274 -30.551  13.262  0.00  0.00     0.422 P 
ATOM     58  O1D PAX d         -29.158 -29.528  14.001  0.00  0.00    -0.617 OA
ATOM     59  O2D PAX d         -29.092 -31.525  12.385  0.00  0.00    -0.617 OA
ATOM     60  O3D PAX d         -27.113 -29.886  12.501  0.00  0.00    -0.617 OA
ENDBRANCH  56  57
ENDBRANCH  53  56
ENDBRANCH  44  53
BRANCH  47  61
ATOM     61  N1T PAX d         -22.887 -33.308  14.759  0.00  0.00    -0.282 N 
ATOM     62  C6T PAX d         -21.688 -34.014  15.036  0.00  0.00    -0.002 A 
ATOM     63  C5T PAX d         -20.580 -33.917  14.264  0.00  0.00     0.022 A 
ATOM     64  H19 PAX d         -21.658 -34.664  15.909  0.00  0.00     0.113 H 
ATOM     65  C4T PAX d         -20.610 -33.047  13.084  0.00  0.00     0.256 A 
ATOM     66  N3T PAX d         -21.826 -32.369  12.864  0.00  0.00    -0.275 N 
ATOM     67  O4T PAX d         -19.686 -32.873  12.286  0.00  0.00    -0.267 OA
ATOM     68  C2T PAX d         -22.981 -32.446  13.639  0.00  0.00     0.331 A 
ATOM     69  H20 PAX d         -21.863 -31.768  12.066  0.00  0.00     0.173 HD
ATOM     70  O2T PAX d         -23.981 -31.823  13.364  0.00  0.00    -0.246 OA
BRANCH  63  71
ATOM     71  CM5 PAX d         -19.354 -34.698  14.616  0.00  0.00    -0.045 C 
ATOM     72  H21 PAX d         -19.172 -35.461  13.847  0.00  0.00     0.033 H 
ATOM     73  H22 PAX d         -19.498 -35.188  15.591  0.00  0.00     0.033 H 
ATOM     74  H23 PAX d         -18.490 -34.019  14.671  0.00  0.00     0.033 H 
ENDBRANCH  63  71
ENDBRANCH  47  61
ENDBRANCH  42  43
ENDBRANCH  39  42
ENDBRANCH  38  39
ENDBRANCH   1  38
TORSDOF 16
ENDMDL
MODEL 6
REMARK VINA RESULT:      -4.5      3.255      4.815
REMARK  16 active torsions:
REMARK  status: ('A' for Active; 'I' for Inactive)
REMARK    1  A    between atoms: PA_1  and  O5_4 
REMARK    2  A    between atoms: O3A_8  and  PA_1 
REMARK    3  A    between atoms: O5_4  and  C5_23 
REMARK    4  A    between atoms: PB_5  and  O3A_8 
REMARK    5  A    between atoms: O3_38  and  PB_5 
REMARK    6  A    between atoms: O3_30  and  PG_9 
REMARK    7  A    between atoms: C1_26  and  N9A_13 
REMARK    8  A    between atoms: C5_23  and  C4_24 
REMARK    9  A    between atoms: C2_27  and  O2_28 
REMARK   10  A    between atoms: C3_29  and  O3_30 
REMARK   11  A    between atoms: C5_32  and  O5_31 
REMARK   12  A    between atoms: O5_31  and  PD_39 
REMARK   13  A    between atoms: C4_33  and  C5_32 
REMARK   14  A    between atoms: C1_35  and  N1T_43 
REMARK   15  A    between atoms: C3_37  and  O3_38 
REMARK   16  A    between atoms: C5T_50  and  CM5_51 
ROOT
ATOM      1  PA  PAX d         -33.121 -26.598  18.573  0.00  0.00     0.417 P 
ATOM      2  O1A PAX d         -33.052 -25.735  17.310  0.00  0.00    -0.624 OA
ATOM      3  O2A PAX d         -32.644 -25.941  19.872  0.00  0.00    -0.624 OA
ENDROOT
BRANCH   1   4
ATOM      4  O5  PAX d         -34.599 -27.146  18.812  0.00  0.00    -0.287 OA
BRANCH   4   5
ATOM      5  C5  PAX d         -35.469 -27.389  17.729  0.00  0.00     0.058 C 
ATOM      6  H5  PAX d         -35.731 -26.435  17.249  0.00  0.00     0.079 H 
ATOM      7  H6  PAX d         -36.383 -27.879  18.096  0.00  0.00     0.079 H 
BRANCH   5   8
ATOM      8  C4  PAX d         -34.792 -28.279  16.735  0.00  0.00     0.090 C 
ATOM      9  O4  PAX d         -34.721 -29.652  17.246  0.00  0.00    -0.353 OA
ATOM     10  C1  PAX d         -34.834 -30.532  16.149  0.00  0.00     0.140 C 
ATOM     11  C2  PAX d         -35.914 -29.843  15.293  0.00  0.00     0.106 C 
ATOM     12  H8  PAX d         -33.895 -30.534  15.575  0.00  0.00     0.122 H 
ATOM     13  C3  PAX d         -35.515 -28.363  15.390  0.00  0.00     0.107 C 
ATOM     14  H9  PAX d         -36.900 -29.985  15.759  0.00  0.00     0.093 H 
ATOM     15  H11 PAX d         -36.396 -27.705  15.346  0.00  0.00     0.092 H 
ATOM     16  H7  PAX d         -33.774 -27.894  16.569  0.00  0.00     0.090 H 
BRANCH  10  17
ATOM     17  N9A PAX d         -35.046 -31.938  16.614  0.00  0.00    -0.294 N 
ATOM     18  C4A PAX d         -34.505 -32.638  17.686  0.00  0.00     0.167 A 
ATOM     19  N3A PAX d         -33.607 -32.188  18.617  0.00  0.00    -0.222 NA
ATOM     20  C5A PAX d         -35.079 -33.927  17.626  0.00  0.00     0.149 A 
ATOM     21  C2A PAX d         -33.293 -33.154  19.536  0.00  0.00     0.091 A 
ATOM     22  N1A PAX d         -33.768 -34.438  19.601  0.00  0.00    -0.222 NA
ATOM     23  H1  PAX d         -32.584 -32.868  20.304  0.00  0.00     0.146 H 
ATOM     24  C6A PAX d         -34.672 -34.859  18.649  0.00  0.00     0.155 A 
ATOM     25  N6A PAX d         -35.126 -36.107  18.728  0.00  0.00    -0.382 N 
ATOM     26  H2  PAX d         -35.803 -36.454  18.033  0.00  0.00     0.157 HD
ATOM     27  H3  PAX d         -34.801 -36.727  19.484  0.00  0.00     0.157 HD
ATOM     28  N7A PAX d         -35.948 -34.027  16.550  0.00  0.00    -0.236 NA
ATOM     29  C8A PAX d         -35.895 -32.837  15.988  0.00  0.00     0.071 A 
ATOM     30  H4  PAX d         -36.473 -32.579  15.101  0.00  0.00     0.144 H 
ENDBRANCH  10  17
BRANCH  11  31
ATOM     31  O2  PAX d         -36.001 -30.351  13.968  0.00  0.00    -0.388 OA
ATOM     32  H10 PAX d         -36.910 -30.356  13.690  0.00  0.00     0.210 HD
ENDBRANCH  11  31
BRANCH  13  33
ATOM     33  O3  PAX d         -34.568 -28.006  14.379  0.00  0.00    -0.272 OA
BRANCH  33  34
ATOM     34  PG  PAX d         -34.673 -26.611  13.532  0.00  0.00     0.422 P 
ATOM     35  O1G PAX d         -35.519 -26.914  12.297  0.00  0.00    -0.617 OA
ATOM     36  O2G PAX d         -35.321 -25.612  14.481  0.00  0.00    -0.617 OA
ATOM     37  O3G PAX d         -33.252 -26.167  13.138  0.00  0.00    -0.617 OA
ENDBRANCH  33  34
ENDBRANCH  13  33
ENDBRANCH   5   8
ENDBRANCH   4   5
ENDBRANCH   1   4
BRANCH   1  38
ATOM     38  O3A PAX d         -32.327 -27.953  18.352  0.00  0.00    -0.180 OA
BRANCH  38  39
ATOM     39  PB  PAX d         -30.799 -28.344  18.401  0.00  0.00     0.418 P 
ATOM     40  O1B PAX d         -30.084 -27.610  17.340  0.00  0.00    -0.624 OA
ATOM     41  O2B PAX d         -30.339 -28.201  19.801  0.00  0.00    -0.624 OA
BRANCH  39  42
ATOM     42  O3  PAX d         -30.829 -29.950  18.142  0.00  0.00    -0.281 OA
BRANCH  42  43
ATOM     43  C3  PAX d         -30.102 -30.548  17.066  0.00  0.00     0.081 C 
ATOM     44  C4  PAX d         -30.568 -31.998  16.885  0.00  0.00     0.087 C 
ATOM     45  O4  PAX d         -29.503 -32.842  17.402  0.00  0.00    -0.356 OA
ATOM     46  H14 PAX d         -31.480 -32.153  17.479  0.00  0.00     0.090 H 
ATOM     47  C1  PAX d         -28.559 -32.044  18.087  0.00  0.00     0.116 C 
ATOM     48  C2  PAX d         -28.633 -30.668  17.438  0.00  0.00     0.003 C 
ATOM     49  H15 PAX d         -28.828 -31.966  19.151  0.00  0.00     0.118 H 
ATOM     50  H16 PAX d         -27.993 -30.617  16.544  0.00  0.00     0.043 H 
ATOM     51  H17 PAX d         -28.338 -29.879  18.146  0.00  0.00     0.043 H 
ATOM     52  H18 PAX d         -30.235 -29.964  16.144  0.00  0.00     0.088 H 
BRANCH  44  53
ATOM     53  C5  PAX d         -30.875 -32.362  15.441  0.00  0.00     0.059 C 
ATOM     54  H12 PAX d         -31.001 -31.440  14.855  0.00  0.00     0.079 H 
ATOM     55  H13 PAX d         -30.038 -32.946  15.031  0.00  0.00     0.079 H 
BRANCH  53  56
ATOM     56  O5  PAX d         -32.089 -33.149  15.356  0.00  0.00    -0.280 OA
BRANCH  56  57
ATOM     57  PD  PAX d         -32.066 -34.783  15.157  0.00  0.00     0.422 P 
ATOM     58  O1D PAX d         -33.434 -35.133  14.542  0.00  0.00    -0.617 OA
ATOM     59  O2D PAX d         -31.869 -35.392  16.564  0.00  0.00    -0.617 OA
ATOM     60  O3D PAX d         -30.895 -35.081  14.203  0.00  0.00    -0.617 OA
ENDBRANCH  56  57
ENDBRANCH  53  56
ENDBRANCH  44  53
BRANCH  47  61
ATOM     61  N1T PAX d         -27.195 -32.660  17.974  0.00  0.00    -0.282 N 
ATOM     62  C6T PAX d         -26.323 -32.358  16.897  0.00  0.00    -0.002 A 
ATOM     63  C5T PAX d         -25.088 -32.899  16.773  0.00  0.00     0.022 A 
ATOM     64  H19 PAX d         -26.663 -31.659  16.134  0.00  0.00     0.113 H 
ATOM     65  C4T PAX d         -24.619 -33.840  17.797  0.00  0.00     0.256 A 
ATOM     66  N3T PAX d         -25.531 -34.103  18.838  0.00  0.00    -0.275 N 
ATOM     67  O4T PAX d         -23.518 -34.395  17.822  0.00  0.00    -0.267 OA
ATOM     68  C2T PAX d         -26.807 -33.565  18.992  0.00  0.00     0.331 A 
ATOM     69  H20 PAX d         -25.229 -34.745  19.542  0.00  0.00     0.173 HD
ATOM     70  O2T PAX d         -27.516 -33.854  19.928  0.00  0.00    -0.246 OA
BRANCH  63  71
ATOM     71  CM5 PAX d         -24.222 -32.527  15.611  0.00  0.00    -0.045 C 
ATOM     72  H21 PAX d         -23.311 -32.033  15.977  0.00  0.00     0.033 H 
ATOM     73  H22 PAX d         -24.771 -31.840  14.950  0.00  0.00     0.033 H 
ATOM     74  H23 PAX d         -23.949 -33.434  15.053  0.00  0.00     0.033 H 
ENDBRANCH  63  71
ENDBRANCH  47  61
ENDBRANCH  42  43
ENDBRANCH  39  42
ENDBRANCH  38  39
ENDBRANCH   1  38
TORSDOF 16
ENDMDL
MODEL 7
REMARK VINA RESULT:      -4.4      3.143      5.105
REMARK  16 active torsions:
REMARK  status: ('A' for Active; 'I' for Inactive)
REMARK    1  A    between atoms: PA_1  and  O5_4 
REMARK    2  A    between atoms: O3A_8  and  PA_1 
REMARK    3  A    between atoms: O5_4  and  C5_23 
REMARK    4  A    between atoms: PB_5  and  O3A_8 
REMARK    5  A    between atoms: O3_38  and  PB_5 
REMARK    6  A    between atoms: O3_30  and  PG_9 
REMARK    7  A    between atoms: C1_26  and  N9A_13 
REMARK    8  A    between atoms: C5_23  and  C4_24 
REMARK    9  A    between atoms: C2_27  and  O2_28 
REMARK   10  A    between atoms: C3_29  and  O3_30 
REMARK   11  A    between atoms: C5_32  and  O5_31 
REMARK   12  A    between atoms: O5_31  and  PD_39 
REMARK   13  A    between atoms: C4_33  and  C5_32 
REMARK   14  A    between atoms: C1_35  and  N1T_43 
REMARK   15  A    between atoms: C3_37  and  O3_38 
REMARK   16  A    between atoms: C5T_50  and  CM5_51 
ROOT
ATOM      1  PA  PAX d         -29.572 -30.884  18.712  0.00  0.00     0.417 P 
ATOM      2  O1A PAX d         -29.810 -29.810  17.647  0.00  0.00    -0.624 OA
ATOM      3  O2A PAX d         -28.916 -30.413  20.015  0.00  0.00    -0.624 OA
ENDROOT
BRANCH   1   4
ATOM      4  O5  PAX d         -30.930 -31.631  19.086  0.00  0.00    -0.287 OA
BRANCH   4   5
ATOM      5  C5  PAX d         -31.321 -32.808  18.414  0.00  0.00     0.058 C 
ATOM      6  H5  PAX d         -31.510 -33.604  19.150  0.00  0.00     0.079 H 
ATOM      7  H6  PAX d         -30.520 -33.123  17.730  0.00  0.00     0.079 H 
BRANCH   5   8
ATOM      8  C4  PAX d         -32.569 -32.544  17.633  0.00  0.00     0.090 C 
ATOM      9  O4  PAX d         -33.018 -31.164  17.840  0.00  0.00    -0.353 OA
ATOM     10  C1  PAX d         -33.613 -30.713  16.643  0.00  0.00     0.140 C 
ATOM     11  C2  PAX d         -32.673 -31.304  15.574  0.00  0.00     0.106 C 
ATOM     12  H8  PAX d         -34.602 -31.179  16.521  0.00  0.00     0.122 H 
ATOM     13  C3  PAX d         -32.398 -32.713  16.122  0.00  0.00     0.107 C 
ATOM     14  H9  PAX d         -31.734 -30.732  15.552  0.00  0.00     0.093 H 
ATOM     15  H11 PAX d         -31.389 -33.060  15.851  0.00  0.00     0.092 H 
ATOM     16  H7  PAX d         -33.345 -33.241  17.983  0.00  0.00     0.090 H 
BRANCH  10  17
ATOM     17  N9A PAX d         -33.844 -29.236  16.686  0.00  0.00    -0.294 N 
ATOM     18  C4A PAX d         -33.193 -28.190  16.043  0.00  0.00     0.167 A 
ATOM     19  N3A PAX d         -32.136 -28.264  15.175  0.00  0.00    -0.222 NA
ATOM     20  C5A PAX d         -33.853 -27.015  16.465  0.00  0.00     0.149 A 
ATOM     21  C2A PAX d         -31.750 -27.028  14.729  0.00  0.00     0.091 A 
ATOM     22  N1A PAX d         -32.293 -25.811  15.052  0.00  0.00    -0.222 NA
ATOM     23  H1  PAX d         -30.915 -27.010  14.038  0.00  0.00     0.146 H 
ATOM     24  C6A PAX d         -33.357 -25.771  15.927  0.00  0.00     0.155 A 
ATOM     25  N6A PAX d         -33.875 -24.584  16.227  0.00  0.00    -0.382 N 
ATOM     26  H2  PAX d         -34.671 -24.518  16.878  0.00  0.00     0.157 HD
ATOM     27  H3  PAX d         -33.480 -23.729  15.810  0.00  0.00     0.157 HD
ATOM     28  N7A PAX d         -34.880 -27.319  17.345  0.00  0.00    -0.236 NA
ATOM     29  C8A PAX d         -34.836 -28.633  17.443  0.00  0.00     0.071 A 
ATOM     30  H4  PAX d         -35.524 -29.199  18.069  0.00  0.00     0.144 H 
ENDBRANCH  10  17
BRANCH  11  31
ATOM     31  O2  PAX d         -33.214 -31.272  14.260  0.00  0.00    -0.388 OA
ATOM     32  H10 PAX d         -34.163 -31.265  14.308  0.00  0.00     0.210 HD
ENDBRANCH  11  31
BRANCH  13  33
ATOM     33  O3  PAX d         -33.388 -33.649  15.687  0.00  0.00    -0.272 OA
BRANCH  33  34
ATOM     34  PG  PAX d         -33.013 -35.178  15.242  0.00  0.00     0.422 P 
ATOM     35  O1G PAX d         -31.823 -35.075  14.291  0.00  0.00    -0.617 OA
ATOM     36  O2G PAX d         -32.692 -35.908  16.539  0.00  0.00    -0.617 OA
ATOM     37  O3G PAX d         -34.235 -35.798  14.539  0.00  0.00    -0.617 OA
ENDBRANCH  33  34
ENDBRANCH  13  33
ENDBRANCH   5   8
ENDBRANCH   4   5
ENDBRANCH   1   4
BRANCH   1  38
ATOM     38  O3A PAX d         -28.725 -32.078  18.103  0.00  0.00    -0.180 OA
BRANCH  38  39
ATOM     39  PB  PAX d         -27.686 -33.100  18.708  0.00  0.00     0.418 P 
ATOM     40  O1B PAX d         -28.077 -33.413  20.096  0.00  0.00    -0.624 OA
ATOM     41  O2B PAX d         -27.531 -34.212  17.743  0.00  0.00    -0.624 OA
BRANCH  39  42
ATOM     42  O3  PAX d         -26.282 -32.283  18.621  0.00  0.00    -0.281 OA
BRANCH  42  43
ATOM     43  C3  PAX d         -25.630 -32.048  17.371  0.00  0.00     0.081 C 
ATOM     44  C4  PAX d         -26.170 -33.032  16.326  0.00  0.00     0.087 C 
ATOM     45  O4  PAX d         -25.124 -34.019  16.108  0.00  0.00    -0.356 OA
ATOM     46  H14 PAX d         -27.062 -33.528  16.735  0.00  0.00     0.090 H 
ATOM     47  C1  PAX d         -24.116 -33.861  17.086  0.00  0.00     0.116 C 
ATOM     48  C2  PAX d         -24.154 -32.391  17.485  0.00  0.00     0.003 C 
ATOM     49  H15 PAX d         -24.335 -34.488  17.963  0.00  0.00     0.118 H 
ATOM     50  H16 PAX d         -23.551 -31.779  16.798  0.00  0.00     0.043 H 
ATOM     51  H17 PAX d         -23.793 -32.251  18.515  0.00  0.00     0.043 H 
ATOM     52  H18 PAX d         -25.775 -31.004  17.054  0.00  0.00     0.088 H 
BRANCH  44  53
ATOM     53  C5  PAX d         -26.554 -32.373  15.011  0.00  0.00     0.059 C 
ATOM     54  H12 PAX d         -26.146 -31.351  14.987  0.00  0.00     0.079 H 
ATOM     55  H13 PAX d         -26.133 -32.955  14.179  0.00  0.00     0.079 H 
BRANCH  53  56
ATOM     56  O5  PAX d         -27.995 -32.313  14.868  0.00  0.00    -0.280 OA
BRANCH  56  57
ATOM     57  PD  PAX d         -28.726 -31.371  13.733  0.00  0.00     0.422 P 
ATOM     58  O1D PAX d         -29.359 -30.207  14.521  0.00  0.00    -0.617 OA
ATOM     59  O2D PAX d         -29.779 -32.262  13.036  0.00  0.00    -0.617 OA
ATOM     60  O3D PAX d         -27.611 -30.902  12.782  0.00  0.00    -0.617 OA
ENDBRANCH  56  57
ENDBRANCH  53  56
ENDBRANCH  44  53
BRANCH  47  61
ATOM     61  N1T PAX d         -22.788 -34.268  16.516  0.00  0.00    -0.282 N 
ATOM     62  C6T PAX d         -22.524 -34.222  15.123  0.00  0.00    -0.002 A 
ATOM     63  C5T PAX d         -21.335 -34.581  14.586  0.00  0.00     0.022 A 
ATOM     64  H19 PAX d         -23.315 -33.883  14.456  0.00  0.00     0.113 H 
ATOM     65  C4T PAX d         -20.261 -35.038  15.476  0.00  0.00     0.256 A 
ATOM     66  N3T PAX d         -20.585 -35.065  16.847  0.00  0.00    -0.275 N 
ATOM     67  O4T PAX d         -19.128 -35.380  15.130  0.00  0.00    -0.267 OA
ATOM     68  C2T PAX d         -21.798 -34.704  17.430  0.00  0.00     0.331 A 
ATOM     69  H20 PAX d         -19.866 -35.377  17.468  0.00  0.00     0.173 HD
ATOM     70  O2T PAX d         -21.977 -34.761  18.625  0.00  0.00    -0.246 OA
BRANCH  63  71
ATOM     71  CM5 PAX d         -21.129 -34.502  13.106  0.00  0.00    -0.045 C 
ATOM     72  H21 PAX d         -21.388 -33.493  12.754  0.00  0.00     0.033 H 
ATOM     73  H22 PAX d         -21.772 -35.240  12.606  0.00  0.00     0.033 H 
ATOM     74  H23 PAX d         -20.075 -34.713  12.871  0.00  0.00     0.033 H 
ENDBRANCH  63  71
ENDBRANCH  47  61
ENDBRANCH  42  43
ENDBRANCH  39  42
ENDBRANCH  38  39
ENDBRANCH   1  38
TORSDOF 16
ENDMDL
MODEL 8
REMARK VINA RESULT:      -3.7      3.004      5.182
REMARK  16 active torsions:
REMARK  status: ('A' for Active; 'I' for Inactive)
REMARK    1  A    between atoms: PA_1  and  O5_4 
REMARK    2  A    between atoms: O3A_8  and  PA_1 
REMARK    3  A    between atoms: O5_4  and  C5_23 
REMARK    4  A    between atoms: PB_5  and  O3A_8 
REMARK    5  A    between atoms: O3_38  and  PB_5 
REMARK    6  A    between atoms: O3_30  and  PG_9 
REMARK    7  A    between atoms: C1_26  and  N9A_13 
REMARK    8  A    between atoms: C5_23  and  C4_24 
REMARK    9  A    between atoms: C2_27  and  O2_28 
REMARK   10  A    between atoms: C3_29  and  O3_30 
REMARK   11  A    between atoms: C5_32  and  O5_31 
REMARK   12  A    between atoms: O5_31  and  PD_39 
REMARK   13  A    between atoms: C4_33  and  C5_32 
REMARK   14  A    between atoms: C1_35  and  N1T_43 
REMARK   15  A    between atoms: C3_37  and  O3_38 
REMARK   16  A    between atoms: C5T_50  and  CM5_51 
ROOT
ATOM      1  PA  PAX d         -33.933 -26.912  18.530  0.00  0.00     0.417 P 
ATOM      2  O1A PAX d         -33.818 -25.894  17.392  0.00  0.00    -0.624 OA
ATOM      3  O2A PAX d         -33.848 -26.351  19.954  0.00  0.00    -0.624 OA
ENDROOT
BRANCH   1   4
ATOM      4  O5  PAX d         -35.282 -27.754  18.412  0.00  0.00    -0.287 OA
BRANCH   4   5
ATOM      5  C5  PAX d         -35.898 -27.969  17.162  0.00  0.00     0.058 C 
ATOM      6  H5  PAX d         -36.434 -27.058  16.856  0.00  0.00     0.079 H 
ATOM      7  H6  PAX d         -36.610 -28.803  17.243  0.00  0.00     0.079 H 
BRANCH   5   8
ATOM      8  C4  PAX d         -34.855 -28.300  16.142  0.00  0.00     0.090 C 
ATOM      9  O4  PAX d         -34.685 -29.753  16.041  0.00  0.00    -0.353 OA
ATOM     10  C1  PAX d         -34.372 -30.065  14.702  0.00  0.00     0.140 C 
ATOM     11  C2  PAX d         -35.304 -29.115  13.924  0.00  0.00     0.106 C 
ATOM     12  H8  PAX d         -33.333 -29.774  14.485  0.00  0.00     0.122 H 
ATOM     13  C3  PAX d         -35.195 -27.813  14.732  0.00  0.00     0.107 C 
ATOM     14  H9  PAX d         -36.336 -29.490  13.974  0.00  0.00     0.093 H 
ATOM     15  H11 PAX d         -36.135 -27.241  14.702  0.00  0.00     0.092 H 
ATOM     16  H7  PAX d         -33.908 -27.839  16.459  0.00  0.00     0.090 H 
BRANCH  10  17
ATOM     17  N9A PAX d         -34.455 -31.539  14.463  0.00  0.00    -0.294 N 
ATOM     18  C4A PAX d         -33.461 -32.492  14.280  0.00  0.00     0.167 A 
ATOM     19  N3A PAX d         -32.104 -32.303  14.275  0.00  0.00    -0.222 NA
ATOM     20  C5A PAX d         -34.139 -33.719  14.102  0.00  0.00     0.149 A 
ATOM     21  C2A PAX d         -31.423 -33.473  14.066  0.00  0.00     0.091 A 
ATOM     22  N1A PAX d         -31.945 -34.727  13.879  0.00  0.00    -0.222 NA
ATOM     23  H1  PAX d         -30.342 -33.399  14.048  0.00  0.00     0.146 H 
ATOM     24  C6A PAX d         -33.314 -34.884  13.892  0.00  0.00     0.155 A 
ATOM     25  N6A PAX d         -33.805 -36.107  13.712  0.00  0.00    -0.382 N 
ATOM     26  H2  PAX d         -34.823 -36.260  13.716  0.00  0.00     0.157 HD
ATOM     27  H3  PAX d         -33.166 -36.903  13.568  0.00  0.00     0.157 HD
ATOM     28  N7A PAX d         -35.512 -33.534  14.170  0.00  0.00    -0.236 NA
ATOM     29  C8A PAX d         -35.648 -32.241  14.383  0.00  0.00     0.071 A 
ATOM     30  H4  PAX d         -36.620 -31.762  14.488  0.00  0.00     0.144 H 
ENDBRANCH  10  17
BRANCH  11  31
ATOM     31  O2  PAX d         -34.971 -28.991  12.547  0.00  0.00    -0.388 OA
ATOM     32  H10 PAX d         -34.107 -28.602  12.465  0.00  0.00     0.210 HD
ENDBRANCH  11  31
BRANCH  13  33
ATOM     33  O3  PAX d         -34.099 -27.009  14.288  0.00  0.00    -0.272 OA
BRANCH  33  34
ATOM     34  PG  PAX d         -34.310 -25.523  13.636  0.00  0.00     0.422 P 
ATOM     35  O1G PAX d         -32.921 -24.904  13.506  0.00  0.00    -0.617 OA
ATOM     36  O2G PAX d         -34.995 -25.765  12.298  0.00  0.00    -0.617 OA
ATOM     37  O3G PAX d         -35.202 -24.696  14.579  0.00  0.00    -0.617 OA
ENDBRANCH  33  34
ENDBRANCH  13  33
ENDBRANCH   5   8
ENDBRANCH   4   5
ENDBRANCH   1   4
BRANCH   1  38
ATOM     38  O3A PAX d         -32.846 -28.053  18.353  0.00  0.00    -0.180 OA
BRANCH  38  39
ATOM     39  PB  PAX d         -31.358 -28.074  17.827  0.00  0.00     0.418 P 
ATOM     40  O1B PAX d         -31.374 -28.051  16.352  0.00  0.00    -0.624 OA
ATOM     41  O2B PAX d         -30.608 -27.021  18.548  0.00  0.00    -0.624 OA
BRANCH  39  42
ATOM     42  O3  PAX d         -30.783 -29.472  18.427  0.00  0.00    -0.281 OA
BRANCH  42  43
ATOM     43  C3  PAX d         -30.560 -30.610  17.591  0.00  0.00     0.081 C 
ATOM     44  C4  PAX d         -30.840 -31.888  18.391  0.00  0.00     0.087 C 
ATOM     45  O4  PAX d         -29.546 -32.485  18.682  0.00  0.00    -0.356 OA
ATOM     46  H14 PAX d         -31.338 -31.614  19.332  0.00  0.00     0.090 H 
ATOM     47  C1  PAX d         -28.521 -31.573  18.346  0.00  0.00     0.116 C 
ATOM     48  C2  PAX d         -29.087 -30.706  17.229  0.00  0.00     0.003 C 
ATOM     49  H15 PAX d         -28.272 -30.944  19.213  0.00  0.00     0.118 H 
ATOM     50  H16 PAX d         -28.951 -31.185  16.248  0.00  0.00     0.043 H 
ATOM     51  H17 PAX d         -28.616 -29.712  17.221  0.00  0.00     0.043 H 
ATOM     52  H18 PAX d         -31.190 -30.552  16.691  0.00  0.00     0.088 H 
BRANCH  44  53
ATOM     53  C5  PAX d         -31.726 -32.883  17.658  0.00  0.00     0.059 C 
ATOM     54  H12 PAX d         -32.564 -32.343  17.190  0.00  0.00     0.079 H 
ATOM     55  H13 PAX d         -31.135 -33.387  16.879  0.00  0.00     0.079 H 
BRANCH  53  56
ATOM     56  O5  PAX d         -32.252 -33.876  18.573  0.00  0.00    -0.280 OA
BRANCH  56  57
ATOM     57  PD  PAX d         -33.485 -34.885  18.160  0.00  0.00     0.422 P 
ATOM     58  O1D PAX d         -33.849 -35.628  19.460  0.00  0.00    -0.617 OA
ATOM     59  O2D PAX d         -32.931 -35.828  17.068  0.00  0.00    -0.617 OA
ATOM     60  O3D PAX d         -34.626 -33.984  17.656  0.00  0.00    -0.617 OA
ENDBRANCH  56  57
ENDBRANCH  53  56
ENDBRANCH  44  53
BRANCH  47  61
ATOM     61  N1T PAX d         -27.292 -32.325  17.923  0.00  0.00    -0.282 N 
ATOM     62  C6T PAX d         -26.559 -31.971  16.761  0.00  0.00    -0.002 A 
ATOM     63  C5T PAX d         -25.448 -32.632  16.360  0.00  0.00     0.022 A 
ATOM     64  H19 PAX d         -26.907 -31.130  16.164  0.00  0.00     0.113 H 
ATOM     65  C4T PAX d         -24.968 -33.765  17.158  0.00  0.00     0.256 A 
ATOM     66  N3T PAX d         -25.740 -34.071  18.297  0.00  0.00    -0.275 N 
ATOM     67  O4T PAX d         -23.967 -34.447  16.923  0.00  0.00    -0.267 OA
ATOM     68  C2T PAX d         -26.887 -33.413  18.735  0.00  0.00     0.331 A 
ATOM     69  H20 PAX d         -25.430 -34.844  18.851  0.00  0.00     0.173 HD
ATOM     70  O2T PAX d         -27.480 -33.752  19.733  0.00  0.00    -0.246 OA
BRANCH  63  71
ATOM     71  CM5 PAX d         -24.724 -32.196  15.125  0.00  0.00    -0.045 C 
ATOM     72  H21 PAX d         -25.396 -32.280  14.258  0.00  0.00     0.033 H 
ATOM     73  H22 PAX d         -23.845 -32.838  14.970  0.00  0.00     0.033 H 
ATOM     74  H23 PAX d         -24.401 -31.152  15.238  0.00  0.00     0.033 H 
ENDBRANCH  63  71
ENDBRANCH  47  61
ENDBRANCH  42  43
ENDBRANCH  39  42
ENDBRANCH  38  39
ENDBRANCH   1  38
TORSDOF 16
ENDMDL
MODEL 9
REMARK VINA RESULT:      -3.6      3.814      7.762
REMARK  16 active torsions:
REMARK  status: ('A' for Active; 'I' for Inactive)
REMARK    1  A    between atoms: PA_1  and  O5_4 
REMARK    2  A    between atoms: O3A_8  and  PA_1 
REMARK    3  A    between atoms: O5_4  and  C5_23 
REMARK    4  A    between atoms: PB_5  and  O3A_8 
REMARK    5  A    between atoms: O3_38  and  PB_5 
REMARK    6  A    between atoms: O3_30  and  PG_9 
REMARK    7  A    between atoms: C1_26  and  N9A_13 
REMARK    8  A    between atoms: C5_23  and  C4_24 
REMARK    9  A    between atoms: C2_27  and  O2_28 
REMARK   10  A    between atoms: C3_29  and  O3_30 
REMARK   11  A    between atoms: C5_32  and  O5_31 
REMARK   12  A    between atoms: O5_31  and  PD_39 
REMARK   13  A    between atoms: C4_33  and  C5_32 
REMARK   14  A    between atoms: C1_35  and  N1T_43 
REMARK   15  A    between atoms: C3_37  and  O3_38 
REMARK   16  A    between atoms: C5T_50  and  CM5_51 
ROOT
ATOM      1  PA  PAX d         -33.525 -32.370  18.082  0.00  0.00     0.417 P 
ATOM      2  O1A PAX d         -34.352 -33.129  19.124  0.00  0.00    -0.624 OA
ATOM      3  O2A PAX d         -34.125 -31.058  17.564  0.00  0.00    -0.624 OA
ENDROOT
BRANCH   1   4
ATOM      4  O5  PAX d         -32.060 -32.060  18.629  0.00  0.00    -0.287 OA
BRANCH   4   5
ATOM      5  C5  PAX d         -30.916 -32.392  17.874  0.00  0.00     0.058 C 
ATOM      6  H5  PAX d         -31.225 -32.790  16.896  0.00  0.00     0.079 H 
ATOM      7  H6  PAX d         -30.331 -33.153  18.411  0.00  0.00     0.079 H 
BRANCH   5   8
ATOM      8  C4  PAX d         -30.078 -31.169  17.672  0.00  0.00     0.090 C 
ATOM      9  O4  PAX d         -30.927 -30.018  17.350  0.00  0.00    -0.353 OA
ATOM     10  C1  PAX d         -30.331 -28.866  17.905  0.00  0.00     0.140 C 
ATOM     11  C2  PAX d         -29.833 -29.386  19.268  0.00  0.00     0.106 C 
ATOM     12  H8  PAX d         -29.452 -28.579  17.310  0.00  0.00     0.122 H 
ATOM     13  C3  PAX d         -29.267 -30.767  18.906  0.00  0.00     0.107 C 
ATOM     14  H9  PAX d         -30.688 -29.510  19.949  0.00  0.00     0.093 H 
ATOM     15  H11 PAX d         -29.386 -31.481  19.735  0.00  0.00     0.092 H 
ATOM     16  H7  PAX d         -29.386 -31.362  16.839  0.00  0.00     0.090 H 
BRANCH  10  17
ATOM     17  N9A PAX d         -31.270 -27.704  17.857  0.00  0.00    -0.294 N 
ATOM     18  C4A PAX d         -31.088 -26.399  17.413  0.00  0.00     0.167 A 
ATOM     19  N3A PAX d         -29.953 -25.840  16.888  0.00  0.00    -0.222 NA
ATOM     20  C5A PAX d         -32.329 -25.754  17.610  0.00  0.00     0.149 A 
ATOM     21  C2A PAX d         -30.136 -24.524  16.554  0.00  0.00     0.091 A 
ATOM     22  N1A PAX d         -31.275 -23.774  16.689  0.00  0.00    -0.222 NA
ATOM     23  H1  PAX d         -29.277 -24.016  16.133  0.00  0.00     0.146 H 
ATOM     24  C6A PAX d         -32.401 -24.367  17.220  0.00  0.00     0.155 A 
ATOM     25  N6A PAX d         -33.499 -23.626  17.340  0.00  0.00    -0.382 N 
ATOM     26  H2  PAX d         -34.358 -24.038  17.733  0.00  0.00     0.157 HD
ATOM     27  H3  PAX d         -33.492 -22.640  17.041  0.00  0.00     0.157 HD
ATOM     28  N7A PAX d         -33.254 -26.628  18.162  0.00  0.00    -0.236 NA
ATOM     29  C8A PAX d         -32.587 -27.757  18.287  0.00  0.00     0.071 A 
ATOM     30  H4  PAX d         -33.034 -28.662  18.697  0.00  0.00     0.144 H 
ENDBRANCH  10  17
BRANCH  11  31
ATOM     31  O2  PAX d         -28.911 -28.514  19.908  0.00  0.00    -0.388 OA
ATOM     32  H10 PAX d         -28.075 -28.552  19.457  0.00  0.00     0.210 HD
ENDBRANCH  11  31
BRANCH  13  33
ATOM     33  O3  PAX d         -27.898 -30.685  18.502  0.00  0.00    -0.272 OA
BRANCH  33  34
ATOM     34  PG  PAX d         -27.004 -32.012  18.158  0.00  0.00     0.422 P 
ATOM     35  O1G PAX d         -27.180 -32.280  16.665  0.00  0.00    -0.617 OA
ATOM     36  O2G PAX d         -25.578 -31.648  18.546  0.00  0.00    -0.617 OA
ATOM     37  O3G PAX d         -27.530 -33.189  19.000  0.00  0.00    -0.617 OA
ENDBRANCH  33  34
ENDBRANCH  13  33
ENDBRANCH   5   8
ENDBRANCH   4   5
ENDBRANCH   1   4
BRANCH   1  38
ATOM     38  O3A PAX d         -33.196 -33.315  16.852  0.00  0.00    -0.180 OA
BRANCH  38  39
ATOM     39  PB  PAX d         -33.042 -34.877  16.684  0.00  0.00     0.418 P 
ATOM     40  O1B PAX d         -32.425 -35.429  17.905  0.00  0.00    -0.624 OA
ATOM     41  O2B PAX d         -34.346 -35.416  16.237  0.00  0.00    -0.624 OA
BRANCH  39  42
ATOM     42  O3  PAX d         -32.077 -35.006  15.381  0.00  0.00    -0.281 OA
BRANCH  42  43
ATOM     43  C3  PAX d         -31.580 -33.851  14.701  0.00  0.00     0.081 C 
ATOM     44  C4  PAX d         -31.671 -34.077  13.187  0.00  0.00     0.087 C 
ATOM     45  O4  PAX d         -30.313 -34.310  12.721  0.00  0.00    -0.356 OA
ATOM     46  H14 PAX d         -32.282 -34.972  12.999  0.00  0.00     0.090 H 
ATOM     47  C1  PAX d         -29.457 -34.482  13.832  0.00  0.00     0.116 C 
ATOM     48  C2  PAX d         -30.092 -33.693  14.970  0.00  0.00     0.003 C 
ATOM     49  H15 PAX d         -29.399 -35.546  14.106  0.00  0.00     0.118 H 
ATOM     50  H16 PAX d         -29.793 -32.634  14.933  0.00  0.00     0.043 H 
ATOM     51  H17 PAX d         -29.819 -34.117  15.947  0.00  0.00     0.043 H 
ATOM     52  H18 PAX d         -32.139 -32.955  15.009  0.00  0.00     0.088 H 
BRANCH  44  53
ATOM     53  C5  PAX d         -32.293 -32.912  12.434  0.00  0.00     0.059 C 
ATOM     54  H12 PAX d         -31.751 -31.988  12.687  0.00  0.00     0.079 H 
ATOM     55  H13 PAX d         -32.216 -33.098  11.353  0.00  0.00     0.079 H 
BRANCH  53  56
ATOM     56  O5  PAX d         -33.689 -32.756  12.791  0.00  0.00    -0.280 OA
BRANCH  56  57
ATOM     57  PD  PAX d         -34.245 -31.441  13.611  0.00  0.00     0.422 P 
ATOM     58  O1D PAX d         -34.797 -30.494  12.528  0.00  0.00    -0.617 OA
ATOM     59  O2D PAX d         -33.031 -30.848  14.361  0.00  0.00    -0.617 OA
ATOM     60  O3D PAX d         -35.342 -31.959  14.557  0.00  0.00    -0.617 OA
ENDBRANCH  56  57
ENDBRANCH  53  56
ENDBRANCH  44  53
BRANCH  47  61
ATOM     61  N1T PAX d         -28.079 -33.991  13.492  0.00  0.00    -0.282 N 
ATOM     62  C6T PAX d         -26.914 -34.704  13.874  0.00  0.00    -0.002 A 
ATOM     63  C5T PAX d         -25.662 -34.285  13.577  0.00  0.00     0.022 A 
ATOM     64  H19 PAX d         -27.032 -35.632  14.432  0.00  0.00     0.113 H 
ATOM     65  C4T PAX d         -25.490 -33.038  12.823  0.00  0.00     0.256 A 
ATOM     66  N3T PAX d         -26.683 -32.374  12.476  0.00  0.00    -0.275 N 
ATOM     67  O4T PAX d         -24.416 -32.544  12.471  0.00  0.00    -0.267 OA
ATOM     68  C2T PAX d         -27.984 -32.778  12.768  0.00  0.00     0.331 A 
ATOM     69  H20 PAX d         -26.585 -31.519  11.965  0.00  0.00     0.173 HD
ATOM     70  O2T PAX d         -28.949 -32.135  12.422  0.00  0.00    -0.246 OA
BRANCH  63  71
ATOM     71  CM5 PAX d         -24.480 -35.094  14.009  0.00  0.00    -0.045 C 
ATOM     72  H21 PAX d         -24.185 -34.798  15.026  0.00  0.00     0.033 H 
ATOM     73  H22 PAX d         -23.642 -34.916  13.319  0.00  0.00     0.033 H 
ATOM     74  H23 PAX d         -24.743 -36.162  14.000  0.00  0.00     0.033 H 
ENDBRANCH  63  71
ENDBRANCH  47  61
ENDBRANCH  42  43
ENDBRANCH  39  42
ENDBRANCH  38  39
ENDBRANCH   1  38
TORSDOF 16
ENDMDL
MODEL 10
REMARK VINA RESULT:      -3.0      3.897      7.492
REMARK  16 active torsions:
REMARK  status: ('A' for Active; 'I' for Inactive)
REMARK    1  A    between atoms: PA_1  and  O5_4 
REMARK    2  A    between atoms: O3A_8  and  PA_1 
REMARK    3  A    between atoms: O5_4  and  C5_23 
REMARK    4  A    between atoms: PB_5  and  O3A_8 
REMARK    5  A    between atoms: O3_38  and  PB_5 
REMARK    6  A    between atoms: O3_30  and  PG_9 
REMARK    7  A    between atoms: C1_26  and  N9A_13 
REMARK    8  A    between atoms: C5_23  and  C4_24 
REMARK    9  A    between atoms: C2_27  and  O2_28 
REMARK   10  A    between atoms: C3_29  and  O3_30 
REMARK   11  A    between atoms: C5_32  and  O5_31 
REMARK   12  A    between atoms: O5_31  and  PD_39 
REMARK   13  A    between atoms: C4_33  and  C5_32 
REMARK   14  A    between atoms: C1_35  and  N1T_43 
REMARK   15  A    between atoms: C3_37  and  O3_38 
REMARK   16  A    between atoms: C5T_50  and  CM5_51 
ROOT
ATOM      1  PA  PAX d         -33.208 -34.062  15.352  0.00  0.00     0.417 P 
ATOM      2  O1A PAX d         -33.618 -35.355  14.641  0.00  0.00    -0.624 OA
ATOM      3  O2A PAX d         -31.877 -34.098  16.111  0.00  0.00    -0.624 OA
ENDROOT
BRANCH   1   4
ATOM      4  O5  PAX d         -33.161 -32.837  14.333  0.00  0.00    -0.287 OA
BRANCH   4   5
ATOM      5  C5  PAX d         -32.221 -31.797  14.488  0.00  0.00     0.058 C 
ATOM      6  H5  PAX d         -31.732 -31.889  15.470  0.00  0.00     0.079 H 
ATOM      7  H6  PAX d         -32.734 -30.827  14.423  0.00  0.00     0.079 H 
BRANCH   5   8
ATOM      8  C4  PAX d         -31.191 -31.891  13.407  0.00  0.00     0.090 C 
ATOM      9  O4  PAX d         -30.629 -30.567  13.124  0.00  0.00    -0.353 OA
ATOM     10  C1  PAX d         -29.275 -30.734  12.767  0.00  0.00     0.140 C 
ATOM     11  C2  PAX d         -28.812 -31.822  13.757  0.00  0.00     0.106 C 
ATOM     12  H8  PAX d         -29.207 -31.150  11.751  0.00  0.00     0.122 H 
ATOM     13  C3  PAX d         -30.005 -32.790  13.761  0.00  0.00     0.107 C 
ATOM     14  H9  PAX d         -28.697 -31.382  14.758  0.00  0.00     0.093 H 
ATOM     15  H11 PAX d         -30.126 -33.275  14.741  0.00  0.00     0.092 H 
ATOM     16  H7  PAX d         -31.679 -32.285  12.503  0.00  0.00     0.090 H 
BRANCH  10  17
ATOM     17  N9A PAX d         -28.565 -29.418  12.733  0.00  0.00    -0.294 N 
ATOM     18  C4A PAX d         -28.981 -28.146  13.106  0.00  0.00     0.167 A 
ATOM     19  N3A PAX d         -30.197 -27.774  13.617  0.00  0.00    -0.222 NA
ATOM     20  C5A PAX d         -27.881 -27.296  12.852  0.00  0.00     0.149 A 
ATOM     21  C2A PAX d         -30.257 -26.430  13.873  0.00  0.00     0.091 A 
ATOM     22  N1A PAX d         -29.276 -25.493  13.677  0.00  0.00    -0.222 NA
ATOM     23  H1  PAX d         -31.193 -26.064  14.279  0.00  0.00     0.146 H 
ATOM     24  C6A PAX d         -28.064 -25.899  13.162  0.00  0.00     0.155 A 
ATOM     25  N6A PAX d         -27.121 -24.979  12.982  0.00  0.00    -0.382 N 
ATOM     26  H2  PAX d         -26.204 -25.248  12.599  0.00  0.00     0.157 HD
ATOM     27  H3  PAX d         -27.308 -23.995  13.225  0.00  0.00     0.157 HD
ATOM     28  N7A PAX d         -26.815 -28.017  12.335  0.00  0.00    -0.236 NA
ATOM     29  C8A PAX d         -27.264 -29.255  12.285  0.00  0.00     0.071 A 
ATOM     30  H4  PAX d         -26.660 -30.084  11.920  0.00  0.00     0.144 H 
ENDBRANCH  10  17
BRANCH  11  31
ATOM     31  O2  PAX d         -27.567 -32.413  13.412  0.00  0.00    -0.388 OA
ATOM     32  H10 PAX d         -27.577 -33.333  13.652  0.00  0.00     0.210 HD
ENDBRANCH  11  31
BRANCH  13  33
ATOM     33  O3  PAX d         -29.893 -33.767  12.723  0.00  0.00    -0.272 OA
BRANCH  33  34
ATOM     34  PG  PAX d         -29.632 -35.352  13.037  0.00  0.00     0.422 P 
ATOM     35  O1G PAX d         -30.858 -36.104  12.525  0.00  0.00    -0.617 OA
ATOM     36  O2G PAX d         -28.350 -35.703  12.294  0.00  0.00    -0.617 OA
ATOM     37  O3G PAX d         -29.463 -35.530  14.557  0.00  0.00    -0.617 OA
ENDBRANCH  33  34
ENDBRANCH  13  33
ENDBRANCH   5   8
ENDBRANCH   4   5
ENDBRANCH   1   4
BRANCH   1  38
ATOM     38  O3A PAX d         -34.358 -33.594  16.338  0.00  0.00    -0.180 OA
BRANCH  38  39
ATOM     39  PB  PAX d         -34.437 -32.522  17.494  0.00  0.00     0.418 P 
ATOM     40  O1B PAX d         -35.832 -32.057  17.618  0.00  0.00    -0.624 OA
ATOM     41  O2B PAX d         -33.766 -33.090  18.685  0.00  0.00    -0.624 OA
BRANCH  39  42
ATOM     42  O3  PAX d         -33.430 -31.355  16.974  0.00  0.00    -0.281 OA
BRANCH  42  43
ATOM     43  C3  PAX d         -32.548 -30.675  17.870  0.00  0.00     0.081 C 
ATOM     44  C4  PAX d         -31.974 -29.436  17.171  0.00  0.00     0.087 C 
ATOM     45  O4  PAX d         -30.590 -29.745  16.850  0.00  0.00    -0.356 OA
ATOM     46  H14 PAX d         -32.536 -29.261  16.242  0.00  0.00     0.090 H 
ATOM     47  C1  PAX d         -30.352 -31.121  17.070  0.00  0.00     0.116 C 
ATOM     48  C2  PAX d         -31.333 -31.542  18.157  0.00  0.00     0.003 C 
ATOM     49  H15 PAX d         -30.550 -31.693  16.151  0.00  0.00     0.118 H 
ATOM     50  H16 PAX d         -30.927 -31.335  19.158  0.00  0.00     0.043 H 
ATOM     51  H17 PAX d         -31.581 -32.610  18.075  0.00  0.00     0.043 H 
ATOM     52  H18 PAX d         -33.076 -30.406  18.797  0.00  0.00     0.088 H 
BRANCH  44  53
ATOM     53  C5  PAX d         -32.049 -28.173  18.014  0.00  0.00     0.059 C 
ATOM     54  H12 PAX d         -33.029 -28.130  18.514  0.00  0.00     0.079 H 
ATOM     55  H13 PAX d         -31.252 -28.196  18.771  0.00  0.00     0.079 H 
BRANCH  53  56
ATOM     56  O5  PAX d         -31.886 -26.993  17.189  0.00  0.00    -0.280 OA
BRANCH  56  57
ATOM     57  PD  PAX d         -31.864 -25.474  17.823  0.00  0.00     0.422 P 
ATOM     58  O1D PAX d         -31.470 -25.659  19.301  0.00  0.00    -0.617 OA
ATOM     59  O2D PAX d         -33.292 -24.907  17.651  0.00  0.00    -0.617 OA
ATOM     60  O3D PAX d         -30.806 -24.692  17.024  0.00  0.00    -0.617 OA
ENDBRANCH  56  57
ENDBRANCH  53  56
ENDBRANCH  44  53
BRANCH  47  61
ATOM     61  N1T PAX d         -28.921 -31.330  17.475  0.00  0.00    -0.282 N 
ATOM     62  C6T PAX d         -28.153 -32.415  16.980  0.00  0.00    -0.002 A 
ATOM     63  C5T PAX d         -26.861 -32.623  17.327  0.00  0.00     0.022 A 
ATOM     64  H19 PAX d         -28.624 -33.112  16.289  0.00  0.00     0.113 H 
ATOM     65  C4T PAX d         -26.216 -31.688  18.255  0.00  0.00     0.256 A 
ATOM     66  N3T PAX d         -27.031 -30.635  18.715  0.00  0.00    -0.275 N 
ATOM     67  O4T PAX d         -25.047 -31.744  18.647  0.00  0.00    -0.267 OA
ATOM     68  C2T PAX d         -28.361 -30.394  18.378  0.00  0.00     0.331 A 
ATOM     69  H20 PAX d         -26.608 -29.990  19.352  0.00  0.00     0.173 HD
ATOM     70  O2T PAX d         -28.977 -29.455  18.828  0.00  0.00    -0.246 OA
BRANCH  63  71
ATOM     71  CM5 PAX d         -26.113 -33.787  16.760  0.00  0.00    -0.045 C 
ATOM     72  H21 PAX d         -25.328 -34.097  17.464  0.00  0.00     0.033 H 
ATOM     73  H22 PAX d         -25.653 -33.496  15.804  0.00  0.00     0.033 H 
ATOM     74  H23 PAX d         -26.807 -34.623  16.593  0.00  0.00     0.033 H 
ENDBRANCH  63  71
ENDBRANCH  47  61
ENDBRANCH  42  43
ENDBRANCH  39  42
ENDBRANCH  38  39
ENDBRANCH   1  38
TORSDOF 16
ENDMDL
