MODEL 1
REMARK VINA RESULT:      -9.6      0.000      0.000
REMARK  6 active torsions:
REMARK  status: ('A' for Active; 'I' for Inactive)
REMARK    1  A    between atoms: C1_1  and  N1_2 
REMARK    2  A    between atoms: C14_5  and  C8_8 
REMARK    3  A    between atoms: C13_6  and  O3_28 
REMARK    4  A    between atoms: C2_11  and  C21_21 
REMARK    5  A    between atoms: C5_16  and  O5_17 
REMARK    6  A    between atoms: C7_19  and  O7_20 
ROOT
ATOM      1  C8  CPB d          39.146  37.369  30.785  0.00  0.00     0.017 A 
ATOM      2  C9  CPB d          38.419  36.219  30.435  0.00  0.00     0.102 A 
ATOM      3  O1  CPB d          38.636  35.662  29.197  0.00  0.00    -0.308 OA
ATOM      4  C2  CPB d          37.974  34.514  28.847  0.00  0.00     0.091 A 
ATOM      5  C3  CPB d          37.061  33.931  29.724  0.00  0.00    -0.000 A 
ATOM      6  C4  CPB d          36.806  34.504  30.966  0.00  0.00     0.190 A 
ATOM      7  O4  CPB d          35.993  33.975  31.727  0.00  0.00    -0.287 OA
ATOM      8  C10 CPB d          37.497  35.661  31.333  0.00  0.00     0.082 A 
ATOM      9  C5  CPB d          37.320  36.237  32.596  0.00  0.00     0.085 A 
ATOM     10  C6  CPB d          38.033  37.375  32.942  0.00  0.00    -0.017 A 
ATOM     11  C7  CPB d          38.936  37.946  32.047  0.00  0.00     0.077 A 
ATOM     12  H13 CPB d          36.542  33.019  29.434  0.00  0.00     0.094 H 
ATOM     13  H15 CPB d          37.887  37.825  33.918  0.00  0.00     0.092 H 
ENDROOT
BRANCH   1  14
ATOM     14  C14 CPB d          40.137  37.941  29.725  0.00  0.00     0.005 C 
ATOM     15  C15 CPB d          39.908  39.441  29.481  0.00  0.00    -0.033 C 
ATOM     16  C16 CPB d          40.882  39.958  28.406  0.00  0.00     0.084 C 
ATOM     17  H7  CPB d          38.874  39.600  29.142  0.00  0.00     0.036 H 
ATOM     18  H8  CPB d          40.076  39.991  30.418  0.00  0.00     0.036 H 
ATOM     19  N1  CPB d          42.282  39.647  28.779  0.00  0.00    -0.072 N 
ATOM     20  H5  CPB d          40.648  39.476  27.446  0.00  0.00     0.076 H 
ATOM     21  H6  CPB d          40.768  41.047  28.308  0.00  0.00     0.076 H 
ATOM     22  C12 CPB d          42.504  38.186  28.889  0.00  0.00     0.107 C 
ATOM     23  H4  CPB d          42.490  40.079  29.666  0.00  0.00     0.279 HD
ATOM     24  C13 CPB d          41.626  37.628  30.014  0.00  0.00     0.066 C 
ATOM     25  H11 CPB d          43.562  37.991  29.118  0.00  0.00     0.080 H 
ATOM     26  H12 CPB d          42.239  37.701  27.939  0.00  0.00     0.080 H 
ATOM     27  H10 CPB d          41.758  36.538  30.079  0.00  0.00     0.086 H 
ATOM     28  H9  CPB d          39.897  37.431  28.781  0.00  0.00     0.051 H 
BRANCH  19  29
ATOM     29  C1  CPB d          43.178  40.190  27.743  0.00  0.00     0.066 C 
ATOM     30  H1  CPB d          44.223  40.076  28.066  0.00  0.00     0.068 H 
ATOM     31  H2  CPB d          42.955  41.256  27.589  0.00  0.00     0.068 H 
ATOM     32  H3  CPB d          43.024  39.642  26.802  0.00  0.00     0.068 H 
ENDBRANCH  19  29
BRANCH  24  33
ATOM     33  O3  CPB d          42.039  38.232  31.237  0.00  0.00    -0.393 OA
ATOM     34  H21 CPB d          41.377  38.850  31.524  0.00  0.00     0.210 HD
ENDBRANCH  24  33
ENDBRANCH   1  14
BRANCH  11  35
ATOM     35  O7  CPB d          39.599  39.059  32.459  0.00  0.00    -0.360 OA
ATOM     36  H16 CPB d          39.556  39.119  33.406  0.00  0.00     0.217 HD
ENDBRANCH  11  35
BRANCH   4  37
ATOM     37  C21 CPB d          38.233  33.904  27.610  0.00  0.00     0.020 A 
ATOM     38  C22 CPB d          38.732  34.606  26.498  0.00  0.00     0.047 A 
ATOM     39 CL1  CPB d          39.042  36.305  26.552  0.00  0.00    -0.083 Cl
ATOM     40  C23 CPB d          38.985  33.943  25.297  0.00  0.00    -0.061 A 
ATOM     41  C24 CPB d          38.750  32.573  25.199  0.00  0.00    -0.081 A 
ATOM     42  H17 CPB d          39.365  34.492  24.442  0.00  0.00     0.086 H 
ATOM     43  C25 CPB d          38.264  31.867  26.300  0.00  0.00    -0.082 A 
ATOM     44  H18 CPB d          38.944  32.056  24.266  0.00  0.00     0.083 H 
ATOM     45  C26 CPB d          38.012  32.523  27.497  0.00  0.00    -0.069 A 
ATOM     46  H19 CPB d          38.084  30.801  26.220  0.00  0.00     0.083 H 
ATOM     47  H20 CPB d          37.641  31.965  28.349  0.00  0.00     0.085 H 
ENDBRANCH   4  37
BRANCH   9  48
ATOM     48  O5  CPB d          36.449  35.715  33.505  0.00  0.00    -0.360 OA
ATOM     49  H14 CPB d          36.337  34.786  33.336  0.00  0.00     0.217 HD
ENDBRANCH   9  48
TORSDOF 6
ENDMDL
MODEL 2
REMARK VINA RESULT:      -8.8      2.426      5.693
REMARK  6 active torsions:
REMARK  status: ('A' for Active; 'I' for Inactive)
REMARK    1  A    between atoms: C1_1  and  N1_2 
REMARK    2  A    between atoms: C14_5  and  C8_8 
REMARK    3  A    between atoms: C13_6  and  O3_28 
REMARK    4  A    between atoms: C2_11  and  C21_21 
REMARK    5  A    between atoms: C5_16  and  O5_17 
REMARK    6  A    between atoms: C7_19  and  O7_20 
ROOT
ATOM      1  C8  CPB d          38.995  35.795  28.593  0.00  0.00     0.017 A 
ATOM      2  C9  CPB d          38.576  36.101  29.899  0.00  0.00     0.102 A 
ATOM      3  O1  CPB d          39.090  37.224  30.501  0.00  0.00    -0.308 OA
ATOM      4  C2  CPB d          38.665  37.571  31.758  0.00  0.00     0.091 A 
ATOM      5  C3  CPB d          37.743  36.775  32.436  0.00  0.00    -0.000 A 
ATOM      6  C4  CPB d          37.241  35.617  31.850  0.00  0.00     0.190 A 
ATOM      7  O4  CPB d          36.428  34.924  32.466  0.00  0.00    -0.287 OA
ATOM      8  C10 CPB d          37.656  35.275  30.561  0.00  0.00     0.082 A 
ATOM      9  C5  CPB d          37.132  34.154  29.908  0.00  0.00     0.085 A 
ATOM     10  C6  CPB d          37.547  33.847  28.620  0.00  0.00    -0.017 A 
ATOM     11  C7  CPB d          38.476  34.653  27.964  0.00  0.00     0.077 A 
ATOM     12  H13 CPB d          37.413  37.062  33.432  0.00  0.00     0.094 H 
ATOM     13  H15 CPB d          37.146  32.973  28.120  0.00  0.00     0.092 H 
ENDROOT
BRANCH   1  14
ATOM     14  C14 CPB d          40.034  36.751  27.931  0.00  0.00     0.005 C 
ATOM     15  C15 CPB d          41.307  36.002  27.504  0.00  0.00    -0.033 C 
ATOM     16  C16 CPB d          42.319  36.985  26.888  0.00  0.00     0.084 C 
ATOM     17  H7  CPB d          41.758  35.521  28.385  0.00  0.00     0.036 H 
ATOM     18  H8  CPB d          41.046  35.235  26.761  0.00  0.00     0.036 H 
ATOM     19  N1  CPB d          41.699  37.740  25.773  0.00  0.00    -0.072 N 
ATOM     20  H5  CPB d          42.653  37.692  27.661  0.00  0.00     0.076 H 
ATOM     21  H6  CPB d          43.184  36.423  26.507  0.00  0.00     0.076 H 
ATOM     22  C12 CPB d          40.547  38.548  26.236  0.00  0.00     0.107 C 
ATOM     23  H4  CPB d          41.383  37.089  25.071  0.00  0.00     0.279 HD
ATOM     24  C13 CPB d          39.462  37.611  26.778  0.00  0.00     0.066 C 
ATOM     25  H11 CPB d          40.144  39.130  25.395  0.00  0.00     0.080 H 
ATOM     26  H12 CPB d          40.875  39.232  27.033  0.00  0.00     0.080 H 
ATOM     27  H10 CPB d          38.617  38.205  27.157  0.00  0.00     0.086 H 
ATOM     28  H9  CPB d          40.337  37.459  28.716  0.00  0.00     0.051 H 
BRANCH  19  29
ATOM     29  C1  CPB d          42.711  38.639  25.192  0.00  0.00     0.066 C 
ATOM     30  H1  CPB d          43.187  38.147  24.331  0.00  0.00     0.068 H 
ATOM     31  H2  CPB d          43.474  38.871  25.950  0.00  0.00     0.068 H 
ATOM     32  H3  CPB d          42.228  39.570  24.861  0.00  0.00     0.068 H 
ENDBRANCH  19  29
BRANCH  24  33
ATOM     33  O3  CPB d          39.019  36.784  25.704  0.00  0.00    -0.393 OA
ATOM     34  H21 CPB d          38.395  37.264  25.172  0.00  0.00     0.210 HD
ENDBRANCH  24  33
ENDBRANCH   1  14
BRANCH  11  35
ATOM     35  O7  CPB d          38.832  34.289  26.704  0.00  0.00    -0.360 OA
ATOM     36  H16 CPB d          38.289  34.752  26.076  0.00  0.00     0.217 HD
ENDBRANCH  11  35
BRANCH   4  37
ATOM     37  C21 CPB d          39.137  38.748  32.358  0.00  0.00     0.020 A 
ATOM     38  C22 CPB d          39.021  40.015  31.759  0.00  0.00     0.047 A 
ATOM     39 CL1  CPB d          38.305  40.229  30.200  0.00  0.00    -0.083 Cl
ATOM     40  C23 CPB d          39.496  41.154  32.411  0.00  0.00    -0.061 A 
ATOM     41  C24 CPB d          40.084  41.037  33.668  0.00  0.00    -0.081 A 
ATOM     42  H17 CPB d          39.407  42.126  31.940  0.00  0.00     0.086 H 
ATOM     43  C25 CPB d          40.195  39.786  34.274  0.00  0.00    -0.082 A 
ATOM     44  H18 CPB d          40.456  41.920  34.176  0.00  0.00     0.083 H 
ATOM     45  C26 CPB d          39.723  38.651  33.629  0.00  0.00    -0.069 A 
ATOM     46  H19 CPB d          40.653  39.699  35.254  0.00  0.00     0.083 H 
ATOM     47  H20 CPB d          39.808  37.683  34.111  0.00  0.00     0.085 H 
ENDBRANCH   4  37
BRANCH   9  48
ATOM     48  O5  CPB d          36.222  33.336  30.509  0.00  0.00    -0.360 OA
ATOM     49  H14 CPB d          36.475  32.430  30.377  0.00  0.00     0.217 HD
ENDBRANCH   9  48
TORSDOF 6
ENDMDL
MODEL 3
REMARK VINA RESULT:      -8.8      2.278      5.294
REMARK  6 active torsions:
REMARK  status: ('A' for Active; 'I' for Inactive)
REMARK    1  A    between atoms: C1_1  and  N1_2 
REMARK    2  A    between atoms: C14_5  and  C8_8 
REMARK    3  A    between atoms: C13_6  and  O3_28 
REMARK    4  A    between atoms: C2_11  and  C21_21 
REMARK    5  A    between atoms: C5_16  and  O5_17 
REMARK    6  A    between atoms: C7_19  and  O7_20 
ROOT
ATOM      1  C8  CPB d          39.625  37.089  27.148  0.00  0.00     0.017 A 
ATOM      2  C9  CPB d          38.984  36.201  28.029  0.00  0.00     0.102 A 
ATOM      3  O1  CPB d          38.808  36.593  29.335  0.00  0.00    -0.308 OA
ATOM      4  C2  CPB d          38.146  35.765  30.205  0.00  0.00     0.091 A 
ATOM      5  C3  CPB d          37.683  34.521  29.781  0.00  0.00    -0.000 A 
ATOM      6  C4  CPB d          37.886  34.098  28.471  0.00  0.00     0.190 A 
ATOM      7  O4  CPB d          37.472  32.993  28.114  0.00  0.00    -0.287 OA
ATOM      8  C10 CPB d          38.540  34.950  27.577  0.00  0.00     0.082 A 
ATOM      9  C5  CPB d          38.711  34.594  26.235  0.00  0.00     0.085 A 
ATOM     10  C6  CPB d          39.347  35.467  25.364  0.00  0.00    -0.017 A 
ATOM     11  C7  CPB d          39.808  36.704  25.811  0.00  0.00     0.077 A 
ATOM     12  H13 CPB d          37.159  33.873  30.481  0.00  0.00     0.094 H 
ATOM     13  H15 CPB d          39.486  35.185  24.327  0.00  0.00     0.092 H 
ENDROOT
BRANCH   1  14
ATOM     14  C14 CPB d          40.108  38.453  27.730  0.00  0.00     0.005 C 
ATOM     15  C15 CPB d          39.045  39.095  28.636  0.00  0.00    -0.033 C 
ATOM     16  C16 CPB d          39.546  40.452  29.162  0.00  0.00     0.084 C 
ATOM     17  H7  CPB d          38.120  39.246  28.060  0.00  0.00     0.036 H 
ATOM     18  H8  CPB d          38.842  38.428  29.487  0.00  0.00     0.036 H 
ATOM     19  N1  CPB d          40.855  40.299  29.838  0.00  0.00    -0.072 N 
ATOM     20  H5  CPB d          39.654  41.148  28.317  0.00  0.00     0.076 H 
ATOM     21  H6  CPB d          38.815  40.856  29.878  0.00  0.00     0.076 H 
ATOM     22  C12 CPB d          41.892  39.792  28.909  0.00  0.00     0.107 C 
ATOM     23  H4  CPB d          40.756  39.650  30.604  0.00  0.00     0.279 HD
ATOM     24  C13 CPB d          41.491  38.395  28.423  0.00  0.00     0.066 C 
ATOM     25  H11 CPB d          42.859  39.737  29.430  0.00  0.00     0.080 H 
ATOM     26  H12 CPB d          41.977  40.471  28.047  0.00  0.00     0.080 H 
ATOM     27  H10 CPB d          42.238  38.025  27.704  0.00  0.00     0.086 H 
ATOM     28  H9  CPB d          40.228  39.124  26.867  0.00  0.00     0.051 H 
BRANCH  19  29
ATOM     29  C1  CPB d          41.277  41.612  30.354  0.00  0.00     0.066 C 
ATOM     30  H1  CPB d          42.372  41.631  30.457  0.00  0.00     0.068 H 
ATOM     31  H2  CPB d          40.813  41.785  31.337  0.00  0.00     0.068 H 
ATOM     32  H3  CPB d          40.961  42.400  29.655  0.00  0.00     0.068 H 
ENDBRANCH  19  29
BRANCH  24  33
ATOM     33  O3  CPB d          41.451  37.530  29.555  0.00  0.00    -0.393 OA
ATOM     34  H21 CPB d          41.554  36.629  29.269  0.00  0.00     0.210 HD
ENDBRANCH  24  33
ENDBRANCH   1  14
BRANCH  11  35
ATOM     35  O7  CPB d          40.419  37.505  24.900  0.00  0.00    -0.360 OA
ATOM     36  H16 CPB d          41.349  37.306  24.878  0.00  0.00     0.217 HD
ENDBRANCH  11  35
BRANCH   4  37
ATOM     37  C21 CPB d          37.907  36.180  31.524  0.00  0.00     0.020 A 
ATOM     38  C22 CPB d          36.962  35.563  32.363  0.00  0.00     0.047 A 
ATOM     39 CL1  CPB d          35.982  34.245  31.824  0.00  0.00    -0.083 Cl
ATOM     40  C23 CPB d          36.778  36.009  33.672  0.00  0.00    -0.061 A 
ATOM     41  C24 CPB d          37.541  37.070  34.156  0.00  0.00    -0.081 A 
ATOM     42  H17 CPB d          36.044  35.531  34.311  0.00  0.00     0.086 H 
ATOM     43  C25 CPB d          38.487  37.682  33.334  0.00  0.00    -0.082 A 
ATOM     44  H18 CPB d          37.399  37.420  35.172  0.00  0.00     0.083 H 
ATOM     45  C26 CPB d          38.674  37.240  32.031  0.00  0.00    -0.069 A 
ATOM     46  H19 CPB d          39.080  38.506  33.714  0.00  0.00     0.083 H 
ATOM     47  H20 CPB d          39.416  37.718  31.401  0.00  0.00     0.085 H 
ENDBRANCH   4  37
BRANCH   9  48
ATOM     48  O5  CPB d          38.276  33.396  25.751  0.00  0.00    -0.360 OA
ATOM     49  H14 CPB d          38.957  33.007  25.215  0.00  0.00     0.217 HD
ENDBRANCH   9  48
TORSDOF 6
ENDMDL
MODEL 4
REMARK VINA RESULT:      -8.4      1.735      2.356
REMARK  6 active torsions:
REMARK  status: ('A' for Active; 'I' for Inactive)
REMARK    1  A    between atoms: C1_1  and  N1_2 
REMARK    2  A    between atoms: C14_5  and  C8_8 
REMARK    3  A    between atoms: C13_6  and  O3_28 
REMARK    4  A    between atoms: C2_11  and  C21_21 
REMARK    5  A    between atoms: C5_16  and  O5_17 
REMARK    6  A    between atoms: C7_19  and  O7_20 
ROOT
ATOM      1  C8  CPB d          39.988  37.995  30.089  0.00  0.00     0.017 A 
ATOM      2  C9  CPB d          39.154  36.870  29.968  0.00  0.00     0.102 A 
ATOM      3  O1  CPB d          39.203  36.145  28.801  0.00  0.00    -0.308 OA
ATOM      4  C2  CPB d          38.433  35.018  28.673  0.00  0.00     0.091 A 
ATOM      5  C3  CPB d          37.580  34.625  29.703  0.00  0.00    -0.000 A 
ATOM      6  C4  CPB d          37.496  35.370  30.876  0.00  0.00     0.190 A 
ATOM      7  O4  CPB d          36.735  35.008  31.775  0.00  0.00    -0.287 OA
ATOM      8  C10 CPB d          38.297  36.505  31.017  0.00  0.00     0.082 A 
ATOM      9  C5  CPB d          38.292  37.250  32.202  0.00  0.00     0.085 A 
ATOM     10  C6  CPB d          39.111  38.362  32.322  0.00  0.00    -0.017 A 
ATOM     11  C7  CPB d          39.950  38.742  31.276  0.00  0.00     0.077 A 
ATOM     12  H13 CPB d          36.975  33.728  29.589  0.00  0.00     0.094 H 
ATOM     13  H15 CPB d          39.098  38.942  33.238  0.00  0.00     0.092 H 
ENDROOT
BRANCH   1  14
ATOM     14  C14 CPB d          40.898  38.347  28.873  0.00  0.00     0.005 C 
ATOM     15  C15 CPB d          41.615  37.106  28.318  0.00  0.00    -0.033 C 
ATOM     16  C16 CPB d          42.527  37.502  27.143  0.00  0.00     0.084 C 
ATOM     17  H7  CPB d          42.223  36.652  29.114  0.00  0.00     0.036 H 
ATOM     18  H8  CPB d          40.867  36.379  27.969  0.00  0.00     0.036 H 
ATOM     19  N1  CPB d          41.756  38.226  26.106  0.00  0.00    -0.072 N 
ATOM     20  H5  CPB d          43.333  38.151  27.514  0.00  0.00     0.076 H 
ATOM     21  H6  CPB d          42.962  36.593  26.701  0.00  0.00     0.076 H 
ATOM     22  C12 CPB d          41.176  39.482  26.637  0.00  0.00     0.107 C 
ATOM     23  H4  CPB d          41.010  37.633  25.776  0.00  0.00     0.279 HD
ATOM     24  C13 CPB d          40.183  39.143  27.754  0.00  0.00     0.066 C 
ATOM     25  H11 CPB d          40.653  40.016  25.830  0.00  0.00     0.080 H 
ATOM     26  H12 CPB d          41.979  40.117  27.038  0.00  0.00     0.080 H 
ATOM     27  H10 CPB d          39.773  40.072  28.178  0.00  0.00     0.086 H 
ATOM     28  H9  CPB d          41.682  39.012  29.264  0.00  0.00     0.051 H 
BRANCH  19  29
ATOM     29  C1  CPB d          42.658  38.552  24.988  0.00  0.00     0.066 C 
ATOM     30  H1  CPB d          42.582  39.624  24.756  0.00  0.00     0.068 H 
ATOM     31  H2  CPB d          42.373  37.964  24.103  0.00  0.00     0.068 H 
ATOM     32  H3  CPB d          43.694  38.311  25.271  0.00  0.00     0.068 H 
ENDBRANCH  19  29
BRANCH  24  33
ATOM     33  O3  CPB d          39.126  38.373  27.184  0.00  0.00    -0.393 OA
ATOM     34  H21 CPB d          38.787  37.771  27.837  0.00  0.00     0.210 HD
ENDBRANCH  24  33
ENDBRANCH   1  14
BRANCH  11  35
ATOM     35  O7  CPB d          40.724  39.842  31.470  0.00  0.00    -0.360 OA
ATOM     36  H16 CPB d          40.311  40.410  32.110  0.00  0.00     0.217 HD
ENDBRANCH  11  35
BRANCH   4  37
ATOM     37  C21 CPB d          38.520  34.237  27.510  0.00  0.00     0.020 A 
ATOM     38  C22 CPB d          38.146  32.882  27.467  0.00  0.00     0.047 A 
ATOM     39 CL1  CPB d          37.569  32.046  28.865  0.00  0.00    -0.083 Cl
ATOM     40  C23 CPB d          38.240  32.159  26.278  0.00  0.00    -0.061 A 
ATOM     41  C24 CPB d          38.701  32.784  25.121  0.00  0.00    -0.081 A 
ATOM     42  H17 CPB d          37.954  31.113  26.253  0.00  0.00     0.086 H 
ATOM     43  C25 CPB d          39.065  34.130  25.152  0.00  0.00    -0.082 A 
ATOM     44  H18 CPB d          38.777  32.224  24.196  0.00  0.00     0.083 H 
ATOM     45  C26 CPB d          38.972  34.854  26.334  0.00  0.00    -0.069 A 
ATOM     46  H19 CPB d          39.422  34.614  24.250  0.00  0.00     0.083 H 
ATOM     47  H20 CPB d          39.251  35.901  26.348  0.00  0.00     0.085 H 
ENDBRANCH   4  37
BRANCH   9  48
ATOM     48  O5  CPB d          37.488  36.917  33.252  0.00  0.00    -0.360 OA
ATOM     49  H14 CPB d          37.964  36.348  33.845  0.00  0.00     0.217 HD
ENDBRANCH   9  48
TORSDOF 6
ENDMDL
MODEL 5
REMARK VINA RESULT:      -8.3      2.072      5.477
REMARK  6 active torsions:
REMARK  status: ('A' for Active; 'I' for Inactive)
REMARK    1  A    between atoms: C1_1  and  N1_2 
REMARK    2  A    between atoms: C14_5  and  C8_8 
REMARK    3  A    between atoms: C13_6  and  O3_28 
REMARK    4  A    between atoms: C2_11  and  C21_21 
REMARK    5  A    between atoms: C5_16  and  O5_17 
REMARK    6  A    between atoms: C7_19  and  O7_20 
ROOT
ATOM      1  C8  CPB d          37.335  34.691  29.899  0.00  0.00     0.017 A 
ATOM      2  C9  CPB d          38.089  35.829  30.232  0.00  0.00     0.102 A 
ATOM      3  O1  CPB d          38.911  36.369  29.272  0.00  0.00    -0.308 OA
ATOM      4  C2  CPB d          39.624  37.506  29.555  0.00  0.00     0.091 A 
ATOM      5  C3  CPB d          39.544  38.093  30.817  0.00  0.00    -0.000 A 
ATOM      6  C4  CPB d          38.742  37.535  31.808  0.00  0.00     0.190 A 
ATOM      7  O4  CPB d          38.686  38.067  32.919  0.00  0.00    -0.287 OA
ATOM      8  C10 CPB d          37.998  36.391  31.513  0.00  0.00     0.082 A 
ATOM      9  C5  CPB d          37.130  35.831  32.458  0.00  0.00     0.085 A 
ATOM     10  C6  CPB d          36.388  34.705  32.133  0.00  0.00    -0.017 A 
ATOM     11  C7  CPB d          36.489  34.130  30.868  0.00  0.00     0.077 A 
ATOM     12  H13 CPB d          40.115  38.995  31.029  0.00  0.00     0.094 H 
ATOM     13  H15 CPB d          35.724  34.269  32.870  0.00  0.00     0.092 H 
ENDROOT
BRANCH   1  14
ATOM     14  C14 CPB d          37.506  34.113  28.460  0.00  0.00     0.005 C 
ATOM     15  C15 CPB d          38.546  34.902  27.649  0.00  0.00    -0.033 C 
ATOM     16  C16 CPB d          38.659  34.322  26.227  0.00  0.00     0.084 C 
ATOM     17  H7  CPB d          38.236  35.955  27.588  0.00  0.00     0.036 H 
ATOM     18  H8  CPB d          39.523  34.834  28.147  0.00  0.00     0.036 H 
ATOM     19  N1  CPB d          38.955  32.871  26.277  0.00  0.00    -0.072 N 
ATOM     20  H5  CPB d          37.708  34.479  25.696  0.00  0.00     0.076 H 
ATOM     21  H6  CPB d          39.468  34.837  25.689  0.00  0.00     0.076 H 
ATOM     22  C12 CPB d          37.876  32.119  26.960  0.00  0.00     0.107 C 
ATOM     23  H4  CPB d          39.820  32.729  26.775  0.00  0.00     0.279 HD
ATOM     24  C13 CPB d          37.779  32.590  28.415  0.00  0.00     0.066 C 
ATOM     25  H11 CPB d          38.105  31.044  26.936  0.00  0.00     0.080 H 
ATOM     26  H12 CPB d          36.919  32.303  26.449  0.00  0.00     0.080 H 
ATOM     27  H10 CPB d          36.956  32.062  28.920  0.00  0.00     0.086 H 
ATOM     28  H9  CPB d          36.539  34.263  27.958  0.00  0.00     0.051 H 
BRANCH  19  29
ATOM     29  C1  CPB d          39.090  32.369  24.900  0.00  0.00     0.066 C 
ATOM     30  H1  CPB d          40.147  32.404  24.598  0.00  0.00     0.068 H 
ATOM     31  H2  CPB d          38.493  32.996  24.220  0.00  0.00     0.068 H 
ATOM     32  H3  CPB d          38.730  31.330  24.851  0.00  0.00     0.068 H 
ENDBRANCH  19  29
BRANCH  24  33
ATOM     33  O3  CPB d          39.012  32.280  29.061  0.00  0.00    -0.393 OA
ATOM     34  H21 CPB d          39.192  32.933  29.727  0.00  0.00     0.210 HD
ENDBRANCH  24  33
ENDBRANCH   1  14
BRANCH  11  35
ATOM     35  O7  CPB d          35.729  33.030  30.624  0.00  0.00    -0.360 OA
ATOM     36  H16 CPB d          35.808  32.424  31.352  0.00  0.00     0.217 HD
ENDBRANCH  11  35
BRANCH   4  37
ATOM     37  C21 CPB d          40.419  38.100  28.564  0.00  0.00     0.020 A 
ATOM     38  C22 CPB d          41.604  37.517  28.079  0.00  0.00     0.047 A 
ATOM     39 CL1  CPB d          42.203  36.016  28.691  0.00  0.00    -0.083 Cl
ATOM     40  C23 CPB d          42.347  38.148  27.080  0.00  0.00    -0.061 A 
ATOM     41  C24 CPB d          41.910  39.362  26.553  0.00  0.00    -0.081 A 
ATOM     42  H17 CPB d          43.262  37.695  26.715  0.00  0.00     0.086 H 
ATOM     43  C25 CPB d          40.731  39.942  27.021  0.00  0.00    -0.082 A 
ATOM     44  H18 CPB d          42.486  39.854  25.779  0.00  0.00     0.083 H 
ATOM     45  C26 CPB d          39.989  39.317  28.015  0.00  0.00    -0.069 A 
ATOM     46  H19 CPB d          40.393  40.886  26.608  0.00  0.00     0.083 H 
ATOM     47  H20 CPB d          39.070  39.773  28.368  0.00  0.00     0.085 H 
ENDBRANCH   4  37
BRANCH   9  48
ATOM     48  O5  CPB d          36.998  36.358  33.708  0.00  0.00    -0.360 OA
ATOM     49  H14 CPB d          37.431  37.203  33.741  0.00  0.00     0.217 HD
ENDBRANCH   9  48
TORSDOF 6
ENDMDL
MODEL 6
REMARK VINA RESULT:      -8.3      2.104      5.339
REMARK  6 active torsions:
REMARK  status: ('A' for Active; 'I' for Inactive)
REMARK    1  A    between atoms: C1_1  and  N1_2 
REMARK    2  A    between atoms: C14_5  and  C8_8 
REMARK    3  A    between atoms: C13_6  and  O3_28 
REMARK    4  A    between atoms: C2_11  and  C21_21 
REMARK    5  A    between atoms: C5_16  and  O5_17 
REMARK    6  A    between atoms: C7_19  and  O7_20 
ROOT
ATOM      1  C8  CPB d          39.017  35.662  28.432  0.00  0.00     0.017 A 
ATOM      2  C9  CPB d          38.625  36.008  29.736  0.00  0.00     0.102 A 
ATOM      3  O1  CPB d          39.183  37.127  30.308  0.00  0.00    -0.308 OA
ATOM      4  C2  CPB d          38.786  37.513  31.562  0.00  0.00     0.091 A 
ATOM      5  C3  CPB d          37.849  36.761  32.268  0.00  0.00    -0.000 A 
ATOM      6  C4  CPB d          37.303  35.607  31.714  0.00  0.00     0.190 A 
ATOM      7  O4  CPB d          36.477  34.953  32.354  0.00  0.00    -0.287 OA
ATOM      8  C10 CPB d          37.689  35.225  30.427  0.00  0.00     0.082 A 
ATOM      9  C5  CPB d          37.121  34.108  29.805  0.00  0.00     0.085 A 
ATOM     10  C6  CPB d          37.509  33.762  28.519  0.00  0.00    -0.017 A 
ATOM     11  C7  CPB d          38.454  34.524  27.834  0.00  0.00     0.077 A 
ATOM     12  H13 CPB d          37.541  37.079  33.263  0.00  0.00     0.094 H 
ATOM     13  H15 CPB d          37.074  32.891  28.042  0.00  0.00     0.092 H 
ENDROOT
BRANCH   1  14
ATOM     14  C14 CPB d          40.077  36.570  27.736  0.00  0.00     0.005 C 
ATOM     15  C15 CPB d          39.755  38.062  27.916  0.00  0.00    -0.033 C 
ATOM     16  C16 CPB d          40.804  38.922  27.188  0.00  0.00     0.084 C 
ATOM     17  H7  CPB d          38.760  38.272  27.499  0.00  0.00     0.036 H 
ATOM     18  H8  CPB d          39.764  38.309  28.988  0.00  0.00     0.036 H 
ATOM     19  N1  CPB d          42.171  38.574  27.642  0.00  0.00    -0.072 N 
ATOM     20  H5  CPB d          40.727  38.745  26.105  0.00  0.00     0.076 H 
ATOM     21  H6  CPB d          40.612  39.984  27.400  0.00  0.00     0.076 H 
ATOM     22  C12 CPB d          42.499  37.160  27.347  0.00  0.00     0.107 C 
ATOM     23  H4  CPB d          42.235  38.725  28.637  0.00  0.00     0.279 HD
ATOM     24  C13 CPB d          41.541  36.249  28.123  0.00  0.00     0.066 C 
ATOM     25  H11 CPB d          43.534  36.950  27.652  0.00  0.00     0.080 H 
ATOM     26  H12 CPB d          42.389  36.975  26.268  0.00  0.00     0.080 H 
ATOM     27  H10 CPB d          41.755  35.197  27.882  0.00  0.00     0.086 H 
ATOM     28  H9  CPB d          39.995  36.361  26.659  0.00  0.00     0.051 H 
BRANCH  19  29
ATOM     29  C1  CPB d          43.135  39.444  26.948  0.00  0.00     0.066 C 
ATOM     30  H1  CPB d          43.935  39.733  27.645  0.00  0.00     0.068 H 
ATOM     31  H2  CPB d          42.620  40.346  26.585  0.00  0.00     0.068 H 
ATOM     32  H3  CPB d          43.570  38.902  26.095  0.00  0.00     0.068 H 
ENDBRANCH  19  29
BRANCH  24  33
ATOM     33  O3  CPB d          41.755  36.471  29.515  0.00  0.00    -0.393 OA
ATOM     34  H21 CPB d          42.032  35.660  29.925  0.00  0.00     0.210 HD
ENDBRANCH  24  33
ENDBRANCH   1  14
BRANCH  11  35
ATOM     35  O7  CPB d          38.781  34.123  26.577  0.00  0.00    -0.360 OA
ATOM     36  H16 CPB d          39.369  33.378  26.627  0.00  0.00     0.217 HD
ENDBRANCH  11  35
BRANCH   4  37
ATOM     37  C21 CPB d          39.303  38.686  32.132  0.00  0.00     0.020 A 
ATOM     38  C22 CPB d          39.054  39.968  31.607  0.00  0.00     0.047 A 
ATOM     39 CL1  CPB d          38.103  40.206  30.183  0.00  0.00    -0.083 Cl
ATOM     40  C23 CPB d          39.582  41.101  32.226  0.00  0.00    -0.061 A 
ATOM     41  C24 CPB d          40.358  40.965  33.375  0.00  0.00    -0.081 A 
ATOM     42  H17 CPB d          39.390  42.085  31.813  0.00  0.00     0.086 H 
ATOM     43  C25 CPB d          40.602  39.699  33.908  0.00  0.00    -0.082 A 
ATOM     44  H18 CPB d          40.771  41.844  33.856  0.00  0.00     0.083 H 
ATOM     45  C26 CPB d          40.077  38.569  33.296  0.00  0.00    -0.069 A 
ATOM     46  H19 CPB d          41.205  39.598  34.803  0.00  0.00     0.083 H 
ATOM     47  H20 CPB d          40.267  37.590  33.720  0.00  0.00     0.085 H 
ENDBRANCH   4  37
BRANCH   9  48
ATOM     48  O5  CPB d          36.194  33.333  30.435  0.00  0.00    -0.360 OA
ATOM     49  H14 CPB d          36.154  33.573  31.353  0.00  0.00     0.217 HD
ENDBRANCH   9  48
TORSDOF 6
ENDMDL
MODEL 7
REMARK VINA RESULT:      -7.9      2.436      5.603
REMARK  6 active torsions:
REMARK  status: ('A' for Active; 'I' for Inactive)
REMARK    1  A    between atoms: C1_1  and  N1_2 
REMARK    2  A    between atoms: C14_5  and  C8_8 
REMARK    3  A    between atoms: C13_6  and  O3_28 
REMARK    4  A    between atoms: C2_11  and  C21_21 
REMARK    5  A    between atoms: C5_16  and  O5_17 
REMARK    6  A    between atoms: C7_19  and  O7_20 
ROOT
ATOM      1  C8  CPB d          39.621  36.532  27.268  0.00  0.00     0.017 A 
ATOM      2  C9  CPB d          38.980  36.035  28.415  0.00  0.00     0.102 A 
ATOM      3  O1  CPB d          39.140  36.718  29.598  0.00  0.00    -0.308 OA
ATOM      4  C2  CPB d          38.490  36.281  30.723  0.00  0.00     0.091 A 
ATOM      5  C3  CPB d          37.699  35.134  30.680  0.00  0.00    -0.000 A 
ATOM      6  C4  CPB d          37.558  34.414  29.498  0.00  0.00     0.190 A 
ATOM      7  O4  CPB d          36.856  33.401  29.480  0.00  0.00    -0.287 OA
ATOM      8  C10 CPB d          38.201  34.872  28.345  0.00  0.00     0.082 A 
ATOM      9  C5  CPB d          38.037  34.216  27.120  0.00  0.00     0.085 A 
ATOM     10  C6  CPB d          38.672  34.702  25.986  0.00  0.00    -0.017 A 
ATOM     11  C7  CPB d          39.464  35.847  26.053  0.00  0.00     0.077 A 
ATOM     12  H13 CPB d          37.188  34.798  31.581  0.00  0.00     0.094 H 
ATOM     13  H15 CPB d          38.551  34.187  25.040  0.00  0.00     0.092 H 
ENDROOT
BRANCH   1  14
ATOM     14  C14 CPB d          40.486  37.819  27.430  0.00  0.00     0.005 C 
ATOM     15  C15 CPB d          41.925  37.606  26.935  0.00  0.00    -0.033 C 
ATOM     16  C16 CPB d          42.754  38.887  27.144  0.00  0.00     0.084 C 
ATOM     17  H7  CPB d          42.385  36.780  27.498  0.00  0.00     0.036 H 
ATOM     18  H8  CPB d          41.908  37.355  25.864  0.00  0.00     0.036 H 
ATOM     19  N1  CPB d          42.093  40.045  26.498  0.00  0.00    -0.072 N 
ATOM     20  H5  CPB d          42.852  39.081  28.222  0.00  0.00     0.076 H 
ATOM     21  H6  CPB d          43.752  38.748  26.703  0.00  0.00     0.076 H 
ATOM     22  C12 CPB d          40.755  40.303  27.079  0.00  0.00     0.107 C 
ATOM     23  H4  CPB d          41.993  39.859  25.512  0.00  0.00     0.279 HD
ATOM     24  C13 CPB d          39.853  39.092  26.818  0.00  0.00     0.066 C 
ATOM     25  H11 CPB d          40.316  41.196  26.612  0.00  0.00     0.080 H 
ATOM     26  H12 CPB d          40.850  40.465  28.163  0.00  0.00     0.080 H 
ATOM     27  H10 CPB d          38.867  39.260  27.277  0.00  0.00     0.086 H 
ATOM     28  H9  CPB d          40.553  38.004  28.513  0.00  0.00     0.051 H 
BRANCH  19  29
ATOM     29  C1  CPB d          42.936  41.237  26.692  0.00  0.00     0.066 C 
ATOM     30  H1  CPB d          42.484  42.094  26.172  0.00  0.00     0.068 H 
ATOM     31  H2  CPB d          43.940  41.047  26.283  0.00  0.00     0.068 H 
ATOM     32  H3  CPB d          43.014  41.461  27.766  0.00  0.00     0.068 H 
ENDBRANCH  19  29
BRANCH  24  33
ATOM     33  O3  CPB d          39.703  38.952  25.407  0.00  0.00    -0.393 OA
ATOM     34  H21 CPB d          38.780  38.875  25.194  0.00  0.00     0.210 HD
ENDBRANCH  24  33
ENDBRANCH   1  14
BRANCH  11  35
ATOM     35  O7  CPB d          40.052  36.263  24.901  0.00  0.00    -0.360 OA
ATOM     36  H16 CPB d          40.705  36.924  25.100  0.00  0.00     0.217 HD
ENDBRANCH  11  35
BRANCH   4  37
ATOM     37  C21 CPB d          38.597  37.004  31.921  0.00  0.00     0.020 A 
ATOM     38  C22 CPB d          37.799  36.742  33.049  0.00  0.00     0.047 A 
ATOM     39 CL1  CPB d          36.585  35.512  33.046  0.00  0.00    -0.083 Cl
ATOM     40  C23 CPB d          37.961  37.484  34.219  0.00  0.00    -0.061 A 
ATOM     41  C24 CPB d          38.924  38.490  34.274  0.00  0.00    -0.081 A 
ATOM     42  H17 CPB d          37.339  37.280  35.083  0.00  0.00     0.086 H 
ATOM     43  C25 CPB d          39.726  38.750  33.163  0.00  0.00    -0.082 A 
ATOM     44  H18 CPB d          39.050  39.069  35.181  0.00  0.00     0.083 H 
ATOM     45  C26 CPB d          39.569  38.013  31.997  0.00  0.00    -0.069 A 
ATOM     46  H19 CPB d          40.476  39.532  33.210  0.00  0.00     0.083 H 
ATOM     47  H20 CPB d          40.202  38.218  31.141  0.00  0.00     0.085 H 
ENDBRANCH   4  37
BRANCH   9  48
ATOM     48  O5  CPB d          37.272  33.094  27.005  0.00  0.00    -0.360 OA
ATOM     49  H14 CPB d          37.192  32.859  26.088  0.00  0.00     0.217 HD
ENDBRANCH   9  48
TORSDOF 6
ENDMDL
MODEL 8
REMARK VINA RESULT:      -7.4      2.528      5.348
REMARK  6 active torsions:
REMARK  status: ('A' for Active; 'I' for Inactive)
REMARK    1  A    between atoms: C1_1  and  N1_2 
REMARK    2  A    between atoms: C14_5  and  C8_8 
REMARK    3  A    between atoms: C13_6  and  O3_28 
REMARK    4  A    between atoms: C2_11  and  C21_21 
REMARK    5  A    between atoms: C5_16  and  O5_17 
REMARK    6  A    between atoms: C7_19  and  O7_20 
ROOT
ATOM      1  C8  CPB d          40.893  37.843  28.336  0.00  0.00     0.017 A 
ATOM      2  C9  CPB d          39.890  36.919  28.677  0.00  0.00     0.102 A 
ATOM      3  O1  CPB d          39.395  36.940  29.959  0.00  0.00    -0.308 OA
ATOM      4  C2  CPB d          38.385  36.079  30.307  0.00  0.00     0.091 A 
ATOM      5  C3  CPB d          37.885  35.167  29.379  0.00  0.00    -0.000 A 
ATOM      6  C4  CPB d          38.402  35.113  28.089  0.00  0.00     0.190 A 
ATOM      7  O4  CPB d          37.949  34.298  27.283  0.00  0.00    -0.287 OA
ATOM      8  C10 CPB d          39.415  36.004  27.727  0.00  0.00     0.082 A 
ATOM      9  C5  CPB d          39.923  36.029  26.423  0.00  0.00     0.085 A 
ATOM     10  C6  CPB d          40.915  36.937  26.085  0.00  0.00    -0.017 A 
ATOM     11  C7  CPB d          41.406  37.836  27.030  0.00  0.00     0.077 A 
ATOM     12  H13 CPB d          37.083  34.490  29.668  0.00  0.00     0.094 H 
ATOM     13  H15 CPB d          41.313  36.947  25.076  0.00  0.00     0.092 H 
ENDROOT
BRANCH   1  14
ATOM     14  C14 CPB d          41.383  38.814  29.454  0.00  0.00     0.005 C 
ATOM     15  C15 CPB d          42.916  38.851  29.545  0.00  0.00    -0.033 C 
ATOM     16  C16 CPB d          43.357  39.794  30.680  0.00  0.00     0.084 C 
ATOM     17  H7  CPB d          43.292  37.838  29.748  0.00  0.00     0.036 H 
ATOM     18  H8  CPB d          43.329  39.212  28.592  0.00  0.00     0.036 H 
ATOM     19  N1  CPB d          42.763  41.139  30.500  0.00  0.00    -0.072 N 
ATOM     20  H5  CPB d          43.026  39.378  31.643  0.00  0.00     0.076 H 
ATOM     21  H6  CPB d          44.454  39.879  30.675  0.00  0.00     0.076 H 
ATOM     22  C12 CPB d          41.283  41.091  30.537  0.00  0.00     0.107 C 
ATOM     23  H4  CPB d          43.058  41.513  29.611  0.00  0.00     0.279 HD
ATOM     24  C13 CPB d          40.780  40.238  29.367  0.00  0.00     0.066 C 
ATOM     25  H11 CPB d          40.879  42.110  30.449  0.00  0.00     0.080 H 
ATOM     26  H12 CPB d          40.953  40.645  31.487  0.00  0.00     0.080 H 
ATOM     27  H10 CPB d          39.683  40.167  29.407  0.00  0.00     0.086 H 
ATOM     28  H9  CPB d          41.023  38.390  30.402  0.00  0.00     0.051 H 
BRANCH  19  29
ATOM     29  C1  CPB d          43.240  42.015  31.585  0.00  0.00     0.066 C 
ATOM     30  H1  CPB d          42.377  42.441  32.117  0.00  0.00     0.068 H 
ATOM     31  H2  CPB d          43.848  42.827  31.160  0.00  0.00     0.068 H 
ATOM     32  H3  CPB d          43.850  41.429  32.288  0.00  0.00     0.068 H 
ENDBRANCH  19  29
BRANCH  24  33
ATOM     33  O3  CPB d          41.172  40.878  28.155  0.00  0.00    -0.393 OA
ATOM     34  H21 CPB d          41.376  41.789  28.331  0.00  0.00     0.210 HD
ENDBRANCH  24  33
ENDBRANCH   1  14
BRANCH  11  35
ATOM     35  O7  CPB d          42.376  38.695  26.624  0.00  0.00    -0.360 OA
ATOM     36  H16 CPB d          42.760  39.120  27.382  0.00  0.00     0.217 HD
ENDBRANCH  11  35
BRANCH   4  37
ATOM     37  C21 CPB d          37.830  36.133  31.594  0.00  0.00     0.020 A 
ATOM     38  C22 CPB d          36.853  35.227  32.047  0.00  0.00     0.047 A 
ATOM     39 CL1  CPB d          36.225  33.975  31.033  0.00  0.00    -0.083 Cl
ATOM     40  C23 CPB d          36.348  35.319  33.344  0.00  0.00    -0.061 A 
ATOM     41  C24 CPB d          36.818  36.311  34.202  0.00  0.00    -0.081 A 
ATOM     42  H17 CPB d          35.592  34.620  33.684  0.00  0.00     0.086 H 
ATOM     43  C25 CPB d          37.793  37.208  33.765  0.00  0.00    -0.082 A 
ATOM     44  H18 CPB d          36.426  36.386  35.209  0.00  0.00     0.083 H 
ATOM     45  C26 CPB d          38.299  37.119  32.475  0.00  0.00    -0.069 A 
ATOM     46  H19 CPB d          38.158  37.978  34.435  0.00  0.00     0.083 H 
ATOM     47  H20 CPB d          39.062  37.816  32.146  0.00  0.00     0.085 H 
ENDBRANCH   4  37
BRANCH   9  48
ATOM     48  O5  CPB d          39.474  35.169  25.464  0.00  0.00    -0.360 OA
ATOM     49  H14 CPB d          38.639  34.806  25.733  0.00  0.00     0.217 HD
ENDBRANCH   9  48
TORSDOF 6
ENDMDL
