MODEL 1
REMARK VINA RESULT:      -7.7      0.000      0.000
REMARK  17 active torsions:
REMARK  status: ('A' for Active; 'I' for Inactive)
REMARK    1  A    between atoms: C24_4  and  C22_7 
REMARK    2  A    between atoms: C22_7  and  O23_8 
REMARK    3  A    between atoms: O23_8  and  C21_9 
REMARK       I    between atoms: C21_9  and  N20_11 
REMARK    4  A    between atoms: N20_11  and  C19_12 
REMARK    5  A    between atoms: C19_12  and  C32_13 
REMARK    6  A    between atoms: C19_12  and  C17_20 
REMARK    7  A    between atoms: C32_13  and  C38_14 
REMARK    8  A    between atoms: C17_20  and  O18_21 
REMARK    9  A    between atoms: C17_20  and  C16_22 
REMARK   10  A    between atoms: C16_22  and  N11_23 
REMARK   11  A    between atoms: N11_23  and  C12_24 
REMARK   12  A    between atoms: N11_23  and  S8_29 
REMARK   13  A    between atoms: C12_24  and  C13_25 
REMARK   14  A    between atoms: C13_25  and  C14_26 
REMARK   15  A    between atoms: C13_25  and  C15_27 
REMARK   16  A    between atoms: C15_27  and  C18_28 
REMARK   17  A    between atoms: S8_29  and  C5_32 
ROOT
ATOM      1  C17 MOL d          17.688  30.793  14.703  0.00  0.00     0.067 C 
ATOM      2  H18 MOL d          16.600  30.767  14.859  0.00  0.00     0.088 H 
ENDROOT
BRANCH   1   3
ATOM      3  C19 MOL d          18.227  32.059  15.374  0.00  0.00     0.044 C 
ATOM      4  H10 MOL d          18.687  32.681  14.593  0.00  0.00     0.077 H 
BRANCH   3   5
ATOM      5  N20 MOL d          17.127  32.796  15.975  0.00  0.00    -0.329 N 
ATOM      6  C21 MOL d          16.440  33.778  15.398  0.00  0.00     0.361 C 
ATOM      7  O22 MOL d          16.585  34.176  14.254  0.00  0.00    -0.239 OA
ATOM      8  H9  MOL d          16.863  32.542  16.905  0.00  0.00     0.165 HD
BRANCH   6   9
ATOM      9  O23 MOL d          15.461  34.442  16.242  0.00  0.00    -0.302 OA
BRANCH   9  10
ATOM     10  C22 MOL d          15.413  34.150  17.639  0.00  0.00     0.049 C 
ATOM     11  H7  MOL d          14.394  33.858  17.932  0.00  0.00     0.078 H 
ATOM     12  H8  MOL d          16.112  33.336  17.882  0.00  0.00     0.078 H 
BRANCH  10  13
ATOM     13  C24 MOL d          15.821  35.424  18.359  0.00  0.00     0.034 C 
ATOM     14  N29 MOL d          17.253  35.473  18.482  0.00  0.00    -0.354 N 
ATOM     15  C27 MOL d          17.825  36.407  17.742  0.00  0.00     0.218 C 
ATOM     16  H1  MOL d          17.770  34.856  19.075  0.00  0.00     0.162 HD
ATOM     17  O28 MOL d          19.012  36.623  17.671  0.00  0.00    -0.274 OA
ATOM     18  C26 MOL d          16.788  37.211  16.999  0.00  0.00     0.011 C 
ATOM     19  C25 MOL d          15.479  36.686  17.567  0.00  0.00    -0.036 C 
ATOM     20  H5  MOL d          16.850  37.032  15.915  0.00  0.00     0.047 H 
ATOM     21  H6  MOL d          16.903  38.287  17.199  0.00  0.00     0.047 H 
ATOM     22  H3  MOL d          15.024  37.438  18.229  0.00  0.00     0.036 H 
ATOM     23  H4  MOL d          14.781  36.445  16.751  0.00  0.00     0.036 H 
ATOM     24  H2  MOL d          15.339  35.451  19.347  0.00  0.00     0.075 H 
ENDBRANCH  10  13
ENDBRANCH   9  10
ENDBRANCH   6   9
ENDBRANCH   3   5
BRANCH   3  25
ATOM     25  C32 MOL d          19.281  31.801  16.455  0.00  0.00    -0.020 C 
ATOM     26  H11 MOL d          19.569  30.739  16.428  0.00  0.00     0.043 H 
ATOM     27  H12 MOL d          18.853  32.041  17.438  0.00  0.00     0.043 H 
BRANCH  25  28
ATOM     28  C38 MOL d          20.521  32.655  16.233  0.00  0.00    -0.056 A 
ATOM     29  C37 MOL d          20.395  33.907  15.643  0.00  0.00    -0.077 A 
ATOM     30  C36 MOL d          21.521  34.702  15.438  0.00  0.00    -0.082 A 
ATOM     31  H13 MOL d          19.418  34.266  15.341  0.00  0.00     0.084 H 
ATOM     32  C35 MOL d          22.776  34.251  15.829  0.00  0.00    -0.083 A 
ATOM     33  H14 MOL d          21.417  35.675  14.973  0.00  0.00     0.083 H 
ATOM     34  C34 MOL d          22.904  33.001  16.421  0.00  0.00    -0.082 A 
ATOM     35  H15 MOL d          23.651  34.872  15.672  0.00  0.00     0.083 H 
ATOM     36  C33 MOL d          21.775  32.212  16.628  0.00  0.00    -0.077 A 
ATOM     37  H16 MOL d          23.881  32.640  16.723  0.00  0.00     0.083 H 
ATOM     38  H17 MOL d          21.877  31.242  17.101  0.00  0.00     0.084 H 
ENDBRANCH  25  28
ENDBRANCH   3  25
ENDBRANCH   1   3
BRANCH   1  39
ATOM     39  O18 MOL d          18.270  29.633  15.306  0.00  0.00    -0.392 OA
ATOM     40  H19 MOL d          18.116  28.878  14.751  0.00  0.00     0.210 HD
ENDBRANCH   1  39
BRANCH   1  41
ATOM     41  C16 MOL d          17.957  30.737  13.193  0.00  0.00     0.019 C 
ATOM     42  H20 MOL d          18.663  31.533  12.913  0.00  0.00     0.061 H 
ATOM     43  H21 MOL d          17.014  30.874  12.644  0.00  0.00     0.061 H 
BRANCH  41  44
ATOM     44  N11 MOL d          18.541  29.411  12.858  0.00  0.00    -0.204 NA
BRANCH  44  45
ATOM     45  C12 MOL d          19.832  29.536  12.143  0.00  0.00    -0.004 C 
ATOM     46  H22 MOL d          19.985  30.589  11.865  0.00  0.00     0.058 H 
ATOM     47  H23 MOL d          19.796  28.918  11.233  0.00  0.00     0.058 H 
BRANCH  45  48
ATOM     48  C13 MOL d          21.015  29.074  13.012  0.00  0.00    -0.046 C 
ATOM     49  H24 MOL d          20.600  28.600  13.913  0.00  0.00     0.041 H 
BRANCH  48  50
ATOM     50  C14 MOL d          21.928  28.050  12.337  0.00  0.00    -0.072 C 
ATOM     51  H25 MOL d          22.502  27.509  13.103  0.00  0.00     0.028 H 
ATOM     52  H26 MOL d          22.622  28.569  11.658  0.00  0.00     0.028 H 
ATOM     53  H27 MOL d          21.319  27.336  11.763  0.00  0.00     0.028 H 
ENDBRANCH  48  50
BRANCH  48  54
ATOM     54  C15 MOL d          21.827  30.302  13.439  0.00  0.00    -0.064 C 
ATOM     55  H28 MOL d          22.868  30.160  13.114  0.00  0.00     0.033 H 
ATOM     56  H29 MOL d          21.792  30.377  14.536  0.00  0.00     0.033 H 
BRANCH  54  57
ATOM     57  C18 MOL d          21.315  31.608  12.852  0.00  0.00    -0.076 C 
ATOM     58  H30 MOL d          20.625  32.084  13.565  0.00  0.00     0.027 H 
ATOM     59  H31 MOL d          20.786  31.404  11.909  0.00  0.00     0.027 H 
ATOM     60  H32 MOL d          22.164  32.281  12.659  0.00  0.00     0.027 H 
ENDBRANCH  54  57
ENDBRANCH  48  54
ENDBRANCH  45  48
ENDBRANCH  44  45
BRANCH  44  61
ATOM     61  S8  MOL d          17.505  28.364  12.162  0.00  0.00     0.243 S 
ATOM     62  O10 MOL d          16.566  29.140  11.411  0.00  0.00    -0.206 OA
ATOM     63  O9  MOL d          16.923  27.609  13.247  0.00  0.00    -0.206 OA
BRANCH  61  64
ATOM     64  C5  MOL d          18.294  27.311  11.176  0.00  0.00     0.076 A 
ATOM     65  C6  MOL d          18.302  27.576   9.805  0.00  0.00    -0.059 A 
ATOM     66  C7  MOL d          19.000  26.764   8.913  0.00  0.00    -0.052 A 
ATOM     67  H33 MOL d          17.756  28.432   9.428  0.00  0.00     0.086 H 
ATOM     68  C2  MOL d          19.693  25.656   9.357  0.00  0.00     0.074 A 
ATOM     69  H34 MOL d          18.997  27.005   7.856  0.00  0.00     0.087 H 
ATOM     70  C3  MOL d          19.693  25.350  10.719  0.00  0.00     0.036 A 
ATOM     71  N1  MOL d          20.417  24.748   8.661  0.00  0.00    -0.253 NA
ATOM     72  C4  MOL d          18.997  26.178  11.615  0.00  0.00    -0.042 A 
ATOM     73  S1  MOL d          20.580  23.948  11.144  0.00  0.00    -0.081 SA
ATOM     74  H35 MOL d          19.003  25.936  12.672  0.00  0.00     0.088 H 
ATOM     75  C1  MOL d          20.941  23.798   9.452  0.00  0.00     0.041 A 
ATOM     76  H36 MOL d          21.552  22.986   9.058  0.00  0.00     0.126 H 
ENDBRANCH  61  64
ENDBRANCH  44  61
ENDBRANCH  41  44
ENDBRANCH   1  41
TORSDOF 17
ENDMDL
MODEL 2
REMARK VINA RESULT:      -7.5      2.895      8.856
REMARK  17 active torsions:
REMARK  status: ('A' for Active; 'I' for Inactive)
REMARK    1  A    between atoms: C24_4  and  C22_7 
REMARK    2  A    between atoms: C22_7  and  O23_8 
REMARK    3  A    between atoms: O23_8  and  C21_9 
REMARK       I    between atoms: C21_9  and  N20_11 
REMARK    4  A    between atoms: N20_11  and  C19_12 
REMARK    5  A    between atoms: C19_12  and  C32_13 
REMARK    6  A    between atoms: C19_12  and  C17_20 
REMARK    7  A    between atoms: C32_13  and  C38_14 
REMARK    8  A    between atoms: C17_20  and  O18_21 
REMARK    9  A    between atoms: C17_20  and  C16_22 
REMARK   10  A    between atoms: C16_22  and  N11_23 
REMARK   11  A    between atoms: N11_23  and  C12_24 
REMARK   12  A    between atoms: N11_23  and  S8_29 
REMARK   13  A    between atoms: C12_24  and  C13_25 
REMARK   14  A    between atoms: C13_25  and  C14_26 
REMARK   15  A    between atoms: C13_25  and  C15_27 
REMARK   16  A    between atoms: C15_27  and  C18_28 
REMARK   17  A    between atoms: S8_29  and  C5_32 
ROOT
ATOM      1  C17 MOL d          20.898  31.154  15.188  0.00  0.00     0.067 C 
ATOM      2  H18 MOL d          21.042  31.797  16.068  0.00  0.00     0.088 H 
ENDROOT
BRANCH   1   3
ATOM      3  C19 MOL d          22.229  31.089  14.434  0.00  0.00     0.044 C 
ATOM      4  H10 MOL d          22.902  30.429  15.002  0.00  0.00     0.077 H 
BRANCH   3   5
ATOM      5  N20 MOL d          22.013  30.517  13.115  0.00  0.00    -0.329 N 
ATOM      6  C21 MOL d          21.872  29.224  12.839  0.00  0.00     0.361 C 
ATOM      7  O22 MOL d          21.843  28.318  13.655  0.00  0.00    -0.239 OA
ATOM      8  H9  MOL d          21.966  31.154  12.346  0.00  0.00     0.165 HD
BRANCH   6   9
ATOM      9  O23 MOL d          21.783  28.887  11.429  0.00  0.00    -0.302 OA
BRANCH   9  10
ATOM     10  C22 MOL d          22.837  28.151  10.807  0.00  0.00     0.049 C 
ATOM     11  H7  MOL d          22.556  27.882   9.778  0.00  0.00     0.078 H 
ATOM     12  H8  MOL d          23.761  28.748  10.791  0.00  0.00     0.078 H 
BRANCH  10  13
ATOM     13  C24 MOL d          23.037  26.897  11.641  0.00  0.00     0.034 C 
ATOM     14  N29 MOL d          21.895  26.034  11.498  0.00  0.00    -0.354 N 
ATOM     15  C27 MOL d          22.143  24.919  10.832  0.00  0.00     0.218 C 
ATOM     16  H1  MOL d          20.994  26.257  11.869  0.00  0.00     0.162 HD
ATOM     17  O28 MOL d          21.337  24.056  10.574  0.00  0.00    -0.274 OA
ATOM     18  C26 MOL d          23.598  24.840  10.443  0.00  0.00     0.011 C 
ATOM     19  C25 MOL d          24.205  26.041  11.152  0.00  0.00    -0.036 C 
ATOM     20  H5  MOL d          23.723  24.919   9.353  0.00  0.00     0.047 H 
ATOM     21  H6  MOL d          24.052  23.902  10.797  0.00  0.00     0.047 H 
ATOM     22  H3  MOL d          24.816  25.709  12.005  0.00  0.00     0.036 H 
ATOM     23  H4  MOL d          24.831  26.616  10.454  0.00  0.00     0.036 H 
ATOM     24  H2  MOL d          23.185  27.183  12.692  0.00  0.00     0.075 H 
ENDBRANCH  10  13
ENDBRANCH   9  10
ENDBRANCH   6   9
ENDBRANCH   3   5
BRANCH   3  25
ATOM     25  C32 MOL d          22.926  32.442  14.266  0.00  0.00    -0.020 C 
ATOM     26  H11 MOL d          22.611  32.891  13.312  0.00  0.00     0.043 H 
ATOM     27  H12 MOL d          24.014  32.285  14.256  0.00  0.00     0.043 H 
BRANCH  25  28
ATOM     28  C38 MOL d          22.573  33.392  15.400  0.00  0.00    -0.056 A 
ATOM     29  C37 MOL d          22.039  34.641  15.108  0.00  0.00    -0.077 A 
ATOM     30  C36 MOL d          21.706  35.520  16.137  0.00  0.00    -0.082 A 
ATOM     31  H13 MOL d          21.881  34.933  14.076  0.00  0.00     0.084 H 
ATOM     32  C35 MOL d          21.899  35.150  17.462  0.00  0.00    -0.083 A 
ATOM     33  H14 MOL d          21.295  36.495  15.903  0.00  0.00     0.083 H 
ATOM     34  C34 MOL d          22.430  33.900  17.757  0.00  0.00    -0.082 A 
ATOM     35  H15 MOL d          21.637  35.833  18.263  0.00  0.00     0.083 H 
ATOM     36  C33 MOL d          22.757  33.024  16.725  0.00  0.00    -0.077 A 
ATOM     37  H16 MOL d          22.589  33.607  18.789  0.00  0.00     0.083 H 
ATOM     38  H17 MOL d          23.160  32.046  16.960  0.00  0.00     0.084 H 
ENDBRANCH  25  28
ENDBRANCH   3  25
ENDBRANCH   1   3
BRANCH   1  39
ATOM     39  O18 MOL d          20.518  29.847  15.627  0.00  0.00    -0.392 OA
ATOM     40  H19 MOL d          19.899  29.474  15.011  0.00  0.00     0.210 HD
ENDBRANCH   1  39
BRANCH   1  41
ATOM     41  C16 MOL d          19.747  31.735  14.353  0.00  0.00     0.019 C 
ATOM     42  H20 MOL d          20.044  31.780  13.295  0.00  0.00     0.061 H 
ATOM     43  H21 MOL d          19.507  32.747  14.709  0.00  0.00     0.061 H 
BRANCH  41  44
ATOM     44  N11 MOL d          18.556  30.857  14.502  0.00  0.00    -0.204 NA
BRANCH  44  45
ATOM     45  C12 MOL d          17.786  30.747  13.241  0.00  0.00    -0.004 C 
ATOM     46  H22 MOL d          18.066  31.579  12.578  0.00  0.00     0.058 H 
ATOM     47  H23 MOL d          16.713  30.809  13.474  0.00  0.00     0.058 H 
BRANCH  45  48
ATOM     48  C13 MOL d          18.063  29.418  12.517  0.00  0.00    -0.046 C 
ATOM     49  H24 MOL d          19.016  29.524  11.979  0.00  0.00     0.041 H 
BRANCH  48  50
ATOM     50  C14 MOL d          18.195  28.211  13.446  0.00  0.00    -0.072 C 
ATOM     51  H25 MOL d          17.919  27.297  12.902  0.00  0.00     0.028 H 
ATOM     52  H26 MOL d          17.526  28.339  14.310  0.00  0.00     0.028 H 
ATOM     53  H27 MOL d          19.235  28.129  13.796  0.00  0.00     0.028 H 
ENDBRANCH  48  50
BRANCH  48  54
ATOM     54  C15 MOL d          16.952  29.171  11.489  0.00  0.00    -0.064 C 
ATOM     55  H28 MOL d          16.606  30.144  11.112  0.00  0.00     0.033 H 
ATOM     56  H29 MOL d          16.121  28.655  11.993  0.00  0.00     0.033 H 
BRANCH  54  57
ATOM     57  C18 MOL d          17.392  28.326  10.304  0.00  0.00    -0.076 C 
ATOM     58  H30 MOL d          16.520  28.090   9.678  0.00  0.00     0.027 H 
ATOM     59  H31 MOL d          17.845  27.391  10.668  0.00  0.00     0.027 H 
ATOM     60  H32 MOL d          18.131  28.883   9.710  0.00  0.00     0.027 H 
ENDBRANCH  54  57
ENDBRANCH  48  54
ENDBRANCH  45  48
ENDBRANCH  44  45
BRANCH  44  61
ATOM     61  S8  MOL d          17.635  31.173  15.807  0.00  0.00     0.243 S 
ATOM     62  O10 MOL d          18.324  30.647  16.946  0.00  0.00    -0.206 OA
ATOM     63  O9  MOL d          16.357  30.552  15.544  0.00  0.00    -0.206 OA
BRANCH  61  64
ATOM     64  C5  MOL d          17.387  32.789  15.986  0.00  0.00     0.076 A 
ATOM     65  C6  MOL d          16.460  33.407  15.145  0.00  0.00    -0.059 A 
ATOM     66  C7  MOL d          16.151  34.760  15.275  0.00  0.00    -0.052 A 
ATOM     67  H33 MOL d          15.970  32.823  14.375  0.00  0.00     0.086 H 
ATOM     68  C2  MOL d          16.768  35.539  16.233  0.00  0.00     0.074 A 
ATOM     69  H34 MOL d          15.417  35.207  14.614  0.00  0.00     0.087 H 
ATOM     70  C3  MOL d          17.713  34.958  17.082  0.00  0.00     0.036 A 
ATOM     71  N1  MOL d          16.616  36.854  16.513  0.00  0.00    -0.253 NA
ATOM     72  C4  MOL d          18.012  33.592  16.953  0.00  0.00    -0.042 A 
ATOM     73  S1  MOL d          18.414  36.027  18.221  0.00  0.00    -0.081 SA
ATOM     74  H35 MOL d          18.745  33.147  17.616  0.00  0.00     0.088 H 
ATOM     75  C1  MOL d          17.405  37.257  17.522  0.00  0.00     0.041 A 
ATOM     76  H36 MOL d          17.412  38.286  17.879  0.00  0.00     0.126 H 
ENDBRANCH  61  64
ENDBRANCH  44  61
ENDBRANCH  41  44
ENDBRANCH   1  41
TORSDOF 17
ENDMDL
MODEL 3
REMARK VINA RESULT:      -7.4      2.514      6.901
REMARK  17 active torsions:
REMARK  status: ('A' for Active; 'I' for Inactive)
REMARK    1  A    between atoms: C24_4  and  C22_7 
REMARK    2  A    between atoms: C22_7  and  O23_8 
REMARK    3  A    between atoms: O23_8  and  C21_9 
REMARK       I    between atoms: C21_9  and  N20_11 
REMARK    4  A    between atoms: N20_11  and  C19_12 
REMARK    5  A    between atoms: C19_12  and  C32_13 
REMARK    6  A    between atoms: C19_12  and  C17_20 
REMARK    7  A    between atoms: C32_13  and  C38_14 
REMARK    8  A    between atoms: C17_20  and  O18_21 
REMARK    9  A    between atoms: C17_20  and  C16_22 
REMARK   10  A    between atoms: C16_22  and  N11_23 
REMARK   11  A    between atoms: N11_23  and  C12_24 
REMARK   12  A    between atoms: N11_23  and  S8_29 
REMARK   13  A    between atoms: C12_24  and  C13_25 
REMARK   14  A    between atoms: C13_25  and  C14_26 
REMARK   15  A    between atoms: C13_25  and  C15_27 
REMARK   16  A    between atoms: C15_27  and  C18_28 
REMARK   17  A    between atoms: S8_29  and  C5_32 
ROOT
ATOM      1  C17 MOL d          18.731  28.080  13.510  0.00  0.00     0.067 C 
ATOM      2  H18 MOL d          19.132  27.356  12.786  0.00  0.00     0.088 H 
ENDROOT
BRANCH   1   3
ATOM      3  C19 MOL d          17.525  28.767  12.865  0.00  0.00     0.044 C 
ATOM      4  H10 MOL d          16.618  28.259  13.226  0.00  0.00     0.077 H 
BRANCH   3   5
ATOM      5  N20 MOL d          17.479  30.160  13.280  0.00  0.00    -0.329 N 
ATOM      6  C21 MOL d          17.150  30.603  14.489  0.00  0.00     0.361 C 
ATOM      7  O22 MOL d          16.890  29.909  15.458  0.00  0.00    -0.239 OA
ATOM      8  H9  MOL d          17.718  30.846  12.593  0.00  0.00     0.165 HD
BRANCH   6   9
ATOM      9  O23 MOL d          17.064  32.046  14.629  0.00  0.00    -0.302 OA
BRANCH   9  10
ATOM     10  C22 MOL d          17.020  32.632  15.931  0.00  0.00     0.049 C 
ATOM     11  H7  MOL d          16.909  31.850  16.696  0.00  0.00     0.078 H 
ATOM     12  H8  MOL d          17.939  33.205  16.121  0.00  0.00     0.078 H 
BRANCH  10  13
ATOM     13  C24 MOL d          15.814  33.555  15.946  0.00  0.00     0.034 C 
ATOM     14  N29 MOL d          15.393  33.780  17.303  0.00  0.00    -0.354 N 
ATOM     15  C27 MOL d          15.602  35.011  17.734  0.00  0.00     0.218 C 
ATOM     16  H1  MOL d          14.979  33.067  17.869  0.00  0.00     0.162 HD
ATOM     17  O28 MOL d          15.346  35.425  18.841  0.00  0.00    -0.274 OA
ATOM     18  C26 MOL d          16.190  35.869  16.643  0.00  0.00     0.011 C 
ATOM     19  C25 MOL d          16.135  34.957  15.427  0.00  0.00    -0.036 C 
ATOM     20  H5  MOL d          17.226  36.154  16.877  0.00  0.00     0.047 H 
ATOM     21  H6  MOL d          15.588  36.776  16.484  0.00  0.00     0.047 H 
ATOM     22  H3  MOL d          15.349  35.295  14.735  0.00  0.00     0.036 H 
ATOM     23  H4  MOL d          17.105  34.957  14.909  0.00  0.00     0.036 H 
ATOM     24  H2  MOL d          15.006  33.104  15.352  0.00  0.00     0.075 H 
ENDBRANCH  10  13
ENDBRANCH   9  10
ENDBRANCH   6   9
ENDBRANCH   3   5
BRANCH   3  25
ATOM     25  C32 MOL d          17.514  28.718  11.334  0.00  0.00    -0.020 C 
ATOM     26  H11 MOL d          18.383  29.275  10.952  0.00  0.00     0.043 H 
ATOM     27  H12 MOL d          16.589  29.185  10.967  0.00  0.00     0.043 H 
BRANCH  25  28
ATOM     28  C38 MOL d          17.582  27.286  10.825  0.00  0.00    -0.056 A 
ATOM     29  C37 MOL d          17.651  27.046   9.458  0.00  0.00    -0.077 A 
ATOM     30  C36 MOL d          17.717  25.740   8.978  0.00  0.00    -0.082 A 
ATOM     31  H13 MOL d          17.653  27.878   8.763  0.00  0.00     0.084 H 
ATOM     32  C35 MOL d          17.723  24.668   9.863  0.00  0.00    -0.083 A 
ATOM     33  H14 MOL d          17.766  25.559   7.910  0.00  0.00     0.083 H 
ATOM     34  C34 MOL d          17.656  24.906  11.231  0.00  0.00    -0.082 A 
ATOM     35  H15 MOL d          17.778  23.652   9.488  0.00  0.00     0.083 H 
ATOM     36  C33 MOL d          17.594  26.213  11.705  0.00  0.00    -0.077 A 
ATOM     37  H16 MOL d          17.654  24.075  11.927  0.00  0.00     0.083 H 
ATOM     38  H17 MOL d          17.555  26.395  12.773  0.00  0.00     0.084 H 
ENDBRANCH  25  28
ENDBRANCH   3  25
ENDBRANCH   1   3
BRANCH   1  39
ATOM     39  O18 MOL d          18.324  27.378  14.689  0.00  0.00    -0.392 OA
ATOM     40  H19 MOL d          18.756  26.533  14.718  0.00  0.00     0.210 HD
ENDBRANCH   1  39
BRANCH   1  41
ATOM     41  C16 MOL d          19.859  29.049  13.892  0.00  0.00     0.019 C 
ATOM     42  H20 MOL d          20.534  28.565  14.612  0.00  0.00     0.061 H 
ATOM     43  H21 MOL d          19.430  29.956  14.343  0.00  0.00     0.061 H 
BRANCH  41  44
ATOM     44  N11 MOL d          20.615  29.412  12.664  0.00  0.00    -0.204 NA
BRANCH  44  45
ATOM     45  C12 MOL d          21.870  28.637  12.534  0.00  0.00    -0.004 C 
ATOM     46  H22 MOL d          21.936  27.922  13.367  0.00  0.00     0.058 H 
ATOM     47  H23 MOL d          22.723  29.330  12.578  0.00  0.00     0.058 H 
BRANCH  45  48
ATOM     48  C13 MOL d          21.928  27.860  11.207  0.00  0.00    -0.046 C 
ATOM     49  H24 MOL d          21.338  28.421  10.467  0.00  0.00     0.041 H 
BRANCH  48  50
ATOM     50  C14 MOL d          23.337  27.694  10.636  0.00  0.00    -0.072 C 
ATOM     51  H25 MOL d          24.072  28.085  11.355  0.00  0.00     0.028 H 
ATOM     52  H26 MOL d          23.417  28.250   9.690  0.00  0.00     0.028 H 
ATOM     53  H27 MOL d          23.535  26.628  10.453  0.00  0.00     0.028 H 
ENDBRANCH  48  50
BRANCH  48  54
ATOM     54  C15 MOL d          21.276  26.487  11.406  0.00  0.00    -0.064 C 
ATOM     55  H28 MOL d          20.228  26.639  11.702  0.00  0.00     0.033 H 
ATOM     56  H29 MOL d          21.813  25.961  12.210  0.00  0.00     0.033 H 
BRANCH  54  57
ATOM     57  C18 MOL d          21.301  25.612  10.161  0.00  0.00    -0.076 C 
ATOM     58  H30 MOL d          20.297  25.584   9.713  0.00  0.00     0.027 H 
ATOM     59  H31 MOL d          21.608  24.592  10.436  0.00  0.00     0.027 H 
ATOM     60  H32 MOL d          22.015  26.028   9.435  0.00  0.00     0.027 H 
ENDBRANCH  54  57
ENDBRANCH  48  54
ENDBRANCH  45  48
ENDBRANCH  44  45
BRANCH  44  61
ATOM     61  S8  MOL d          20.806  31.013  12.428  0.00  0.00     0.243 S 
ATOM     62  O10 MOL d          19.546  31.527  11.988  0.00  0.00    -0.206 OA
ATOM     63  O9  MOL d          21.874  31.142  11.464  0.00  0.00    -0.206 OA
BRANCH  61  64
ATOM     64  C5  MOL d          21.278  31.767  13.812  0.00  0.00     0.076 A 
ATOM     65  C6  MOL d          22.580  31.548  14.267  0.00  0.00    -0.059 A 
ATOM     66  C7  MOL d          23.073  32.197  15.397  0.00  0.00    -0.052 A 
ATOM     67  H33 MOL d          23.221  30.858  13.729  0.00  0.00     0.086 H 
ATOM     68  C2  MOL d          22.280  33.069  16.116  0.00  0.00     0.074 A 
ATOM     69  H34 MOL d          24.093  32.015  15.716  0.00  0.00     0.087 H 
ATOM     70  C3  MOL d          20.967  33.300  15.700  0.00  0.00     0.036 A 
ATOM     71  N1  MOL d          22.563  33.784  17.230  0.00  0.00    -0.253 NA
ATOM     72  C4  MOL d          20.479  32.650  14.554  0.00  0.00    -0.042 A 
ATOM     73  S1  MOL d          20.082  34.392  16.677  0.00  0.00    -0.081 SA
ATOM     74  H35 MOL d          19.459  32.836  14.236  0.00  0.00     0.088 H 
ATOM     75  C1  MOL d          21.520  34.520  17.644  0.00  0.00     0.041 A 
ATOM     76  H36 MOL d          21.571  35.156  18.526  0.00  0.00     0.126 H 
ENDBRANCH  61  64
ENDBRANCH  44  61
ENDBRANCH  41  44
ENDBRANCH   1  41
TORSDOF 17
ENDMDL
MODEL 4
REMARK VINA RESULT:      -7.3      2.565      7.459
REMARK  17 active torsions:
REMARK  status: ('A' for Active; 'I' for Inactive)
REMARK    1  A    between atoms: C24_4  and  C22_7 
REMARK    2  A    between atoms: C22_7  and  O23_8 
REMARK    3  A    between atoms: O23_8  and  C21_9 
REMARK       I    between atoms: C21_9  and  N20_11 
REMARK    4  A    between atoms: N20_11  and  C19_12 
REMARK    5  A    between atoms: C19_12  and  C32_13 
REMARK    6  A    between atoms: C19_12  and  C17_20 
REMARK    7  A    between atoms: C32_13  and  C38_14 
REMARK    8  A    between atoms: C17_20  and  O18_21 
REMARK    9  A    between atoms: C17_20  and  C16_22 
REMARK   10  A    between atoms: C16_22  and  N11_23 
REMARK   11  A    between atoms: N11_23  and  C12_24 
REMARK   12  A    between atoms: N11_23  and  S8_29 
REMARK   13  A    between atoms: C12_24  and  C13_25 
REMARK   14  A    between atoms: C13_25  and  C14_26 
REMARK   15  A    between atoms: C13_25  and  C15_27 
REMARK   16  A    between atoms: C15_27  and  C18_28 
REMARK   17  A    between atoms: S8_29  and  C5_32 
ROOT
ATOM      1  C17 MOL d          18.447  32.429  14.704  0.00  0.00     0.067 C 
ATOM      2  H18 MOL d          18.186  33.398  15.153  0.00  0.00     0.088 H 
ENDROOT
BRANCH   1   3
ATOM      3  C19 MOL d          17.149  31.649  14.488  0.00  0.00     0.044 C 
ATOM      4  H10 MOL d          16.667  32.044  13.581  0.00  0.00     0.077 H 
BRANCH   3   5
ATOM      5  N20 MOL d          17.455  30.243  14.282  0.00  0.00    -0.329 N 
ATOM      6  C21 MOL d          17.826  29.686  13.134  0.00  0.00     0.361 C 
ATOM      7  O22 MOL d          18.024  30.275  12.084  0.00  0.00    -0.239 OA
ATOM      8  H9  MOL d          17.380  29.640  15.077  0.00  0.00     0.165 HD
BRANCH   6   9
ATOM      9  O23 MOL d          17.963  28.240  13.151  0.00  0.00    -0.302 OA
BRANCH   9  10
ATOM     10  C22 MOL d          17.200  27.442  12.244  0.00  0.00     0.049 C 
ATOM     11  H7  MOL d          16.617  26.691  12.798  0.00  0.00     0.078 H 
ATOM     12  H8  MOL d          16.518  28.078  11.660  0.00  0.00     0.078 H 
BRANCH  10  13
ATOM     13  C24 MOL d          18.198  26.760  11.325  0.00  0.00     0.034 C 
ATOM     14  N29 MOL d          18.702  25.570  11.956  0.00  0.00    -0.354 N 
ATOM     15  C27 MOL d          18.302  24.447  11.386  0.00  0.00     0.218 C 
ATOM     16  H1  MOL d          19.303  25.591  12.756  0.00  0.00     0.162 HD
ATOM     17  O28 MOL d          18.583  23.330  11.751  0.00  0.00    -0.274 OA
ATOM     18  C26 MOL d          17.450  24.735  10.175  0.00  0.00     0.011 C 
ATOM     19  C25 MOL d          17.559  26.245  10.035  0.00  0.00    -0.036 C 
ATOM     20  H5  MOL d          16.408  24.427  10.342  0.00  0.00     0.047 H 
ATOM     21  H6  MOL d          17.845  24.226   9.283  0.00  0.00     0.047 H 
ATOM     22  H3  MOL d          18.189  26.502   9.171  0.00  0.00     0.036 H 
ATOM     23  H4  MOL d          16.559  26.687   9.904  0.00  0.00     0.036 H 
ATOM     24  H2  MOL d          19.014  27.460  11.095  0.00  0.00     0.075 H 
ENDBRANCH  10  13
ENDBRANCH   9  10
ENDBRANCH   6   9
ENDBRANCH   3   5
BRANCH   3  25
ATOM     25  C32 MOL d          16.146  31.761  15.641  0.00  0.00    -0.020 C 
ATOM     26  H11 MOL d          16.534  31.208  16.509  0.00  0.00     0.043 H 
ATOM     27  H12 MOL d          15.188  31.323  15.326  0.00  0.00     0.043 H 
BRANCH  25  28
ATOM     28  C38 MOL d          15.920  33.212  16.039  0.00  0.00    -0.056 A 
ATOM     29  C37 MOL d          15.302  33.503  17.249  0.00  0.00    -0.077 A 
ATOM     30  C36 MOL d          15.093  34.827  17.629  0.00  0.00    -0.082 A 
ATOM     31  H13 MOL d          14.982  32.697  17.900  0.00  0.00     0.084 H 
ATOM     32  C35 MOL d          15.507  35.865  16.804  0.00  0.00    -0.083 A 
ATOM     33  H14 MOL d          14.606  35.048  18.572  0.00  0.00     0.083 H 
ATOM     34  C34 MOL d          16.127  35.577  15.594  0.00  0.00    -0.082 A 
ATOM     35  H15 MOL d          15.346  36.896  17.102  0.00  0.00     0.083 H 
ATOM     36  C33 MOL d          16.337  34.252  15.221  0.00  0.00    -0.077 A 
ATOM     37  H16 MOL d          16.447  36.381  14.942  0.00  0.00     0.083 H 
ATOM     38  H17 MOL d          16.833  34.031  14.283  0.00  0.00     0.084 H 
ENDBRANCH  25  28
ENDBRANCH   3  25
ENDBRANCH   1   3
BRANCH   1  39
ATOM     39  O18 MOL d          19.095  32.661  13.449  0.00  0.00    -0.392 OA
ATOM     40  H19 MOL d          19.330  33.578  13.380  0.00  0.00     0.210 HD
ENDBRANCH   1  39
BRANCH   1  41
ATOM     41  C16 MOL d          19.441  31.722  15.637  0.00  0.00     0.019 C 
ATOM     42  H20 MOL d          19.796  30.794  15.164  0.00  0.00     0.061 H 
ATOM     43  H21 MOL d          18.948  31.482  16.589  0.00  0.00     0.061 H 
BRANCH  41  44
ATOM     44  N11 MOL d          20.594  32.628  15.885  0.00  0.00    -0.204 NA
BRANCH  44  45
ATOM     45  C12 MOL d          20.205  34.056  15.812  0.00  0.00    -0.004 C 
ATOM     46  H22 MOL d          19.108  34.126  15.810  0.00  0.00     0.058 H 
ATOM     47  H23 MOL d          20.602  34.485  14.880  0.00  0.00     0.058 H 
BRANCH  45  48
ATOM     48  C13 MOL d          20.754  34.859  17.004  0.00  0.00    -0.046 C 
ATOM     49  H24 MOL d          21.085  34.140  17.767  0.00  0.00     0.041 H 
BRANCH  48  50
ATOM     50  C14 MOL d          21.952  35.748  16.665  0.00  0.00    -0.072 C 
ATOM     51  H25 MOL d          22.871  35.288  17.055  0.00  0.00     0.028 H 
ATOM     52  H26 MOL d          21.814  36.739  17.122  0.00  0.00     0.028 H 
ATOM     53  H27 MOL d          22.031  35.856  15.573  0.00  0.00     0.028 H 
ENDBRANCH  48  50
BRANCH  48  54
ATOM     54  C15 MOL d          19.622  35.707  17.596  0.00  0.00    -0.064 C 
ATOM     55  H28 MOL d          19.051  36.150  16.768  0.00  0.00     0.033 H 
ATOM     56  H29 MOL d          20.069  36.508  18.204  0.00  0.00     0.033 H 
BRANCH  54  57
ATOM     57  C18 MOL d          18.662  34.918  18.473  0.00  0.00    -0.076 C 
ATOM     58  H30 MOL d          17.663  34.915  18.012  0.00  0.00     0.027 H 
ATOM     59  H31 MOL d          18.606  35.384  19.468  0.00  0.00     0.027 H 
ATOM     60  H32 MOL d          19.023  33.883  18.573  0.00  0.00     0.027 H 
ENDBRANCH  54  57
ENDBRANCH  48  54
ENDBRANCH  45  48
ENDBRANCH  44  45
BRANCH  44  61
ATOM     61  S8  MOL d          21.938  32.271  15.036  0.00  0.00     0.243 S 
ATOM     62  O10 MOL d          23.034  32.293  15.956  0.00  0.00    -0.206 OA
ATOM     63  O9  MOL d          22.017  33.264  13.990  0.00  0.00    -0.206 OA
BRANCH  61  64
ATOM     64  C5  MOL d          21.819  30.793  14.325  0.00  0.00     0.076 A 
ATOM     65  C6  MOL d          21.292  29.743  15.080  0.00  0.00    -0.059 A 
ATOM     66  C7  MOL d          21.104  28.476  14.529  0.00  0.00    -0.052 A 
ATOM     67  H33 MOL d          21.025  29.916  16.115  0.00  0.00     0.086 H 
ATOM     68  C2  MOL d          21.449  28.215  13.218  0.00  0.00     0.074 A 
ATOM     69  H34 MOL d          20.681  27.686  15.138  0.00  0.00     0.087 H 
ATOM     70  C3  MOL d          21.993  29.237  12.437  0.00  0.00     0.036 A 
ATOM     71  N1  MOL d          21.353  27.068  12.506  0.00  0.00    -0.253 NA
ATOM     72  C4  MOL d          22.171  30.515  12.995  0.00  0.00    -0.042 A 
ATOM     73  S1  MOL d          22.388  28.788  10.833  0.00  0.00    -0.081 SA
ATOM     74  H35 MOL d          22.592  31.304  12.383  0.00  0.00     0.088 H 
ATOM     75  C1  MOL d          21.803  27.207  11.249  0.00  0.00     0.041 A 
ATOM     76  H36 MOL d          21.801  26.383  10.537  0.00  0.00     0.126 H 
ENDBRANCH  61  64
ENDBRANCH  44  61
ENDBRANCH  41  44
ENDBRANCH   1  41
TORSDOF 17
ENDMDL
MODEL 5
REMARK VINA RESULT:      -7.1      2.864      9.723
REMARK  17 active torsions:
REMARK  status: ('A' for Active; 'I' for Inactive)
REMARK    1  A    between atoms: C24_4  and  C22_7 
REMARK    2  A    between atoms: C22_7  and  O23_8 
REMARK    3  A    between atoms: O23_8  and  C21_9 
REMARK       I    between atoms: C21_9  and  N20_11 
REMARK    4  A    between atoms: N20_11  and  C19_12 
REMARK    5  A    between atoms: C19_12  and  C32_13 
REMARK    6  A    between atoms: C19_12  and  C17_20 
REMARK    7  A    between atoms: C32_13  and  C38_14 
REMARK    8  A    between atoms: C17_20  and  O18_21 
REMARK    9  A    between atoms: C17_20  and  C16_22 
REMARK   10  A    between atoms: C16_22  and  N11_23 
REMARK   11  A    between atoms: N11_23  and  C12_24 
REMARK   12  A    between atoms: N11_23  and  S8_29 
REMARK   13  A    between atoms: C12_24  and  C13_25 
REMARK   14  A    between atoms: C13_25  and  C14_26 
REMARK   15  A    between atoms: C13_25  and  C15_27 
REMARK   16  A    between atoms: C15_27  and  C18_28 
REMARK   17  A    between atoms: S8_29  and  C5_32 
ROOT
ATOM      1  C17 MOL d          20.321  29.964  12.517  0.00  0.00     0.067 C 
ATOM      2  H18 MOL d          19.234  29.801  12.538  0.00  0.00     0.088 H 
ENDROOT
BRANCH   1   3
ATOM      3  C19 MOL d          20.977  28.674  12.018  0.00  0.00     0.044 C 
ATOM      4  H10 MOL d          20.975  27.954  12.850  0.00  0.00     0.077 H 
BRANCH   3   5
ATOM      5  N20 MOL d          20.198  28.126  10.919  0.00  0.00    -0.329 N 
ATOM      6  C21 MOL d          19.195  27.260  11.031  0.00  0.00     0.361 C 
ATOM      7  O22 MOL d          18.732  26.834  12.076  0.00  0.00    -0.239 OA
ATOM      8  H9  MOL d          20.439  28.427   9.997  0.00  0.00     0.165 HD
BRANCH   6   9
ATOM      9  O23 MOL d          18.647  26.768   9.780  0.00  0.00    -0.302 OA
BRANCH   9  10
ATOM     10  C22 MOL d          17.322  26.235   9.745  0.00  0.00     0.049 C 
ATOM     11  H7  MOL d          16.823  26.393  10.713  0.00  0.00     0.078 H 
ATOM     12  H8  MOL d          16.739  26.719   8.948  0.00  0.00     0.078 H 
BRANCH  10  13
ATOM     13  C24 MOL d          17.462  24.749   9.464  0.00  0.00     0.034 C 
ATOM     14  N29 MOL d          18.722  24.496   8.818  0.00  0.00    -0.354 N 
ATOM     15  C27 MOL d          19.589  23.837   9.567  0.00  0.00     0.218 C 
ATOM     16  H1  MOL d          18.924  24.792   7.884  0.00  0.00     0.162 HD
ATOM     17  O28 MOL d          20.712  23.529   9.243  0.00  0.00    -0.274 OA
ATOM     18  C26 MOL d          18.983  23.482  10.901  0.00  0.00     0.011 C 
ATOM     19  C25 MOL d          17.533  23.909  10.740  0.00  0.00    -0.036 C 
ATOM     20  H5  MOL d          19.470  24.036  11.717  0.00  0.00     0.047 H 
ATOM     21  H6  MOL d          19.058  22.402  11.096  0.00  0.00     0.047 H 
ATOM     22  H3  MOL d          16.884  23.025  10.648  0.00  0.00     0.036 H 
ATOM     23  H4  MOL d          17.215  24.509  11.607  0.00  0.00     0.036 H 
ATOM     24  H2  MOL d          16.623  24.419   8.835  0.00  0.00     0.075 H 
ENDBRANCH  10  13
ENDBRANCH   9  10
ENDBRANCH   6   9
ENDBRANCH   3   5
BRANCH   3  25
ATOM     25  C32 MOL d          22.425  28.844  11.546  0.00  0.00    -0.020 C 
ATOM     26  H11 MOL d          23.049  29.135  12.404  0.00  0.00     0.043 H 
ATOM     27  H12 MOL d          22.462  29.632  10.781  0.00  0.00     0.043 H 
BRANCH  25  28
ATOM     28  C38 MOL d          22.969  27.552  10.954  0.00  0.00    -0.056 A 
ATOM     29  C37 MOL d          22.673  26.340  11.564  0.00  0.00    -0.077 A 
ATOM     30  C36 MOL d          23.160  25.148  11.030  0.00  0.00    -0.082 A 
ATOM     31  H13 MOL d          22.060  26.320  12.458  0.00  0.00     0.084 H 
ATOM     32  C35 MOL d          23.939  25.165   9.879  0.00  0.00    -0.083 A 
ATOM     33  H14 MOL d          22.930  24.206  11.513  0.00  0.00     0.083 H 
ATOM     34  C34 MOL d          24.234  26.377   9.266  0.00  0.00    -0.082 A 
ATOM     35  H15 MOL d          24.316  24.237   9.463  0.00  0.00     0.083 H 
ATOM     36  C33 MOL d          23.742  27.563   9.801  0.00  0.00    -0.077 A 
ATOM     37  H16 MOL d          24.847  26.397   8.372  0.00  0.00     0.083 H 
ATOM     38  H17 MOL d          23.964  28.505   9.313  0.00  0.00     0.084 H 
ENDBRANCH  25  28
ENDBRANCH   3  25
ENDBRANCH   1   3
BRANCH   1  39
ATOM     39  O18 MOL d          20.610  31.040  11.619  0.00  0.00    -0.392 OA
ATOM     40  H19 MOL d          20.712  31.844  12.114  0.00  0.00     0.210 HD
ENDBRANCH   1  39
BRANCH   1  41
ATOM     41  C16 MOL d          20.771  30.377  13.925  0.00  0.00     0.019 C 
ATOM     42  H20 MOL d          21.797  30.772  13.885  0.00  0.00     0.061 H 
ATOM     43  H21 MOL d          20.740  29.505  14.594  0.00  0.00     0.061 H 
BRANCH  41  44
ATOM     44  N11 MOL d          19.851  31.429  14.434  0.00  0.00    -0.204 NA
BRANCH  44  45
ATOM     45  C12 MOL d          20.575  32.662  14.819  0.00  0.00    -0.004 C 
ATOM     46  H22 MOL d          20.052  33.132  15.665  0.00  0.00     0.058 H 
ATOM     47  H23 MOL d          20.582  33.353  13.963  0.00  0.00     0.058 H 
BRANCH  45  48
ATOM     48  C13 MOL d          22.027  32.367  15.233  0.00  0.00    -0.046 C 
ATOM     49  H24 MOL d          22.149  31.275  15.266  0.00  0.00     0.041 H 
BRANCH  48  50
ATOM     50  C14 MOL d          23.079  32.915  14.268  0.00  0.00    -0.072 C 
ATOM     51  H25 MOL d          23.071  34.014  14.301  0.00  0.00     0.028 H 
ATOM     52  H26 MOL d          22.850  32.577  13.246  0.00  0.00     0.028 H 
ATOM     53  H27 MOL d          24.074  32.547  14.562  0.00  0.00     0.028 H 
ENDBRANCH  48  50
BRANCH  48  54
ATOM     54  C15 MOL d          22.266  32.925  16.642  0.00  0.00    -0.064 C 
ATOM     55  H28 MOL d          23.313  32.733  16.918  0.00  0.00     0.033 H 
ATOM     56  H29 MOL d          21.599  32.399  17.341  0.00  0.00     0.033 H 
BRANCH  54  57
ATOM     57  C18 MOL d          22.004  34.418  16.760  0.00  0.00    -0.076 C 
ATOM     58  H30 MOL d          22.741  34.866  17.444  0.00  0.00     0.027 H 
ATOM     59  H31 MOL d          20.991  34.583  17.155  0.00  0.00     0.027 H 
ATOM     60  H32 MOL d          22.092  34.886  15.768  0.00  0.00     0.027 H 
ENDBRANCH  54  57
ENDBRANCH  48  54
ENDBRANCH  45  48
ENDBRANCH  44  45
BRANCH  44  61
ATOM     61  S8  MOL d          18.783  30.919  15.553  0.00  0.00     0.243 S 
ATOM     62  O10 MOL d          19.538  30.508  16.697  0.00  0.00    -0.206 OA
ATOM     63  O9  MOL d          18.031  29.860  14.922  0.00  0.00    -0.206 OA
BRANCH  61  64
ATOM     64  C5  MOL d          17.731  32.115  15.962  0.00  0.00     0.076 A 
ATOM     65  C6  MOL d          16.435  32.053  15.446  0.00  0.00    -0.059 A 
ATOM     66  C7  MOL d          15.469  32.995  15.794  0.00  0.00    -0.052 A 
ATOM     67  H33 MOL d          16.174  31.255  14.761  0.00  0.00     0.086 H 
ATOM     68  C2  MOL d          15.770  34.035  16.651  0.00  0.00     0.074 A 
ATOM     69  H34 MOL d          14.468  32.911  15.387  0.00  0.00     0.087 H 
ATOM     70  C3  MOL d          17.061  34.139  17.174  0.00  0.00     0.036 A 
ATOM     71  N1  MOL d          14.988  35.044  17.102  0.00  0.00    -0.253 NA
ATOM     72  C4  MOL d          18.028  33.180  16.827  0.00  0.00    -0.042 A 
ATOM     73  S1  MOL d          17.313  35.474  18.215  0.00  0.00    -0.081 SA
ATOM     74  H35 MOL d          19.027  33.265  17.238  0.00  0.00     0.088 H 
ATOM     75  C1  MOL d          15.649  35.875  17.924  0.00  0.00     0.041 A 
ATOM     76  H36 MOL d          15.172  36.742  18.378  0.00  0.00     0.126 H 
ENDBRANCH  61  64
ENDBRANCH  44  61
ENDBRANCH  41  44
ENDBRANCH   1  41
TORSDOF 17
ENDMDL
MODEL 6
REMARK VINA RESULT:      -6.6      1.662      2.220
REMARK  17 active torsions:
REMARK  status: ('A' for Active; 'I' for Inactive)
REMARK    1  A    between atoms: C24_4  and  C22_7 
REMARK    2  A    between atoms: C22_7  and  O23_8 
REMARK    3  A    between atoms: O23_8  and  C21_9 
REMARK       I    between atoms: C21_9  and  N20_11 
REMARK    4  A    between atoms: N20_11  and  C19_12 
REMARK    5  A    between atoms: C19_12  and  C32_13 
REMARK    6  A    between atoms: C19_12  and  C17_20 
REMARK    7  A    between atoms: C32_13  and  C38_14 
REMARK    8  A    between atoms: C17_20  and  O18_21 
REMARK    9  A    between atoms: C17_20  and  C16_22 
REMARK   10  A    between atoms: C16_22  and  N11_23 
REMARK   11  A    between atoms: N11_23  and  C12_24 
REMARK   12  A    between atoms: N11_23  and  S8_29 
REMARK   13  A    between atoms: C12_24  and  C13_25 
REMARK   14  A    between atoms: C13_25  and  C14_26 
REMARK   15  A    between atoms: C13_25  and  C15_27 
REMARK   16  A    between atoms: C15_27  and  C18_28 
REMARK   17  A    between atoms: S8_29  and  C5_32 
ROOT
ATOM      1  C17 MOL d          20.094  31.516  12.878  0.00  0.00     0.067 C 
ATOM      2  H18 MOL d          21.019  30.934  12.760  0.00  0.00     0.088 H 
ENDROOT
BRANCH   1   3
ATOM      3  C19 MOL d          20.340  32.571  13.959  0.00  0.00     0.044 C 
ATOM      4  H10 MOL d          20.358  33.555  13.467  0.00  0.00     0.077 H 
BRANCH   3   5
ATOM      5  N20 MOL d          19.250  32.546  14.921  0.00  0.00    -0.329 N 
ATOM      6  C21 MOL d          18.111  33.226  14.826  0.00  0.00     0.361 C 
ATOM      7  O22 MOL d          17.776  33.932  13.890  0.00  0.00    -0.239 OA
ATOM      8  H9  MOL d          19.368  31.966  15.726  0.00  0.00     0.165 HD
BRANCH   6   9
ATOM      9  O23 MOL d          17.223  33.128  15.971  0.00  0.00    -0.302 OA
BRANCH   9  10
ATOM     10  C22 MOL d          17.754  33.229  17.293  0.00  0.00     0.049 C 
ATOM     11  H7  MOL d          17.602  32.285  17.837  0.00  0.00     0.078 H 
ATOM     12  H8  MOL d          18.828  33.462  17.255  0.00  0.00     0.078 H 
BRANCH  10  13
ATOM     13  C24 MOL d          16.997  34.355  17.976  0.00  0.00     0.034 C 
ATOM     14  N29 MOL d          17.389  35.617  17.408  0.00  0.00    -0.354 N 
ATOM     15  C27 MOL d          16.442  36.203  16.696  0.00  0.00     0.218 C 
ATOM     16  H1  MOL d          18.297  36.014  17.539  0.00  0.00     0.162 HD
ATOM     17  O28 MOL d          16.548  37.256  16.112  0.00  0.00    -0.274 OA
ATOM     18  C26 MOL d          15.172  35.392  16.722  0.00  0.00     0.011 C 
ATOM     19  C25 MOL d          15.490  34.294  17.724  0.00  0.00    -0.036 C 
ATOM     20  H5  MOL d          14.950  34.971  15.730  0.00  0.00     0.047 H 
ATOM     21  H6  MOL d          14.320  36.001  17.060  0.00  0.00     0.047 H 
ATOM     22  H3  MOL d          14.941  34.464  18.662  0.00  0.00     0.036 H 
ATOM     23  H4  MOL d          15.215  33.312  17.311  0.00  0.00     0.036 H 
ATOM     24  H2  MOL d          17.205  34.328  19.056  0.00  0.00     0.075 H 
ENDBRANCH  10  13
ENDBRANCH   9  10
ENDBRANCH   6   9
ENDBRANCH   3   5
BRANCH   3  25
ATOM     25  C32 MOL d          21.659  32.401  14.719  0.00  0.00    -0.020 C 
ATOM     26  H11 MOL d          22.490  32.407  13.999  0.00  0.00     0.043 H 
ATOM     27  H12 MOL d          21.643  31.440  15.253  0.00  0.00     0.043 H 
BRANCH  25  28
ATOM     28  C38 MOL d          21.867  33.523  15.725  0.00  0.00    -0.056 A 
ATOM     29  C37 MOL d          21.917  34.840  15.283  0.00  0.00    -0.077 A 
ATOM     30  C36 MOL d          22.102  35.879  16.193  0.00  0.00    -0.082 A 
ATOM     31  H13 MOL d          21.812  35.059  14.227  0.00  0.00     0.084 H 
ATOM     32  C35 MOL d          22.231  35.605  17.550  0.00  0.00    -0.083 A 
ATOM     33  H14 MOL d          22.146  36.903  15.843  0.00  0.00     0.083 H 
ATOM     34  C34 MOL d          22.179  34.289  17.994  0.00  0.00    -0.082 A 
ATOM     35  H15 MOL d          22.372  36.414  18.258  0.00  0.00     0.083 H 
ATOM     36  C33 MOL d          21.989  33.256  17.081  0.00  0.00    -0.077 A 
ATOM     37  H16 MOL d          22.285  34.068  19.050  0.00  0.00     0.083 H 
ATOM     38  H17 MOL d          21.937  32.231  17.432  0.00  0.00     0.084 H 
ENDBRANCH  25  28
ENDBRANCH   3  25
ENDBRANCH   1   3
BRANCH   1  39
ATOM     39  O18 MOL d          19.783  32.150  11.634  0.00  0.00    -0.392 OA
ATOM     40  H19 MOL d          20.588  32.352  11.173  0.00  0.00     0.210 HD
ENDBRANCH   1  39
BRANCH   1  41
ATOM     41  C16 MOL d          18.957  30.541  13.219  0.00  0.00     0.019 C 
ATOM     42  H20 MOL d          18.026  30.877  12.740  0.00  0.00     0.061 H 
ATOM     43  H21 MOL d          18.815  30.505  14.309  0.00  0.00     0.061 H 
BRANCH  41  44
ATOM     44  N11 MOL d          19.318  29.189  12.718  0.00  0.00    -0.204 NA
BRANCH  44  45
ATOM     45  C12 MOL d          20.604  29.193  11.982  0.00  0.00    -0.004 C 
ATOM     46  H22 MOL d          20.832  30.222  11.670  0.00  0.00     0.058 H 
ATOM     47  H23 MOL d          20.507  28.552  11.093  0.00  0.00     0.058 H 
BRANCH  45  48
ATOM     48  C13 MOL d          21.761  28.669  12.851  0.00  0.00    -0.046 C 
ATOM     49  H24 MOL d          22.529  29.454  12.892  0.00  0.00     0.041 H 
BRANCH  48  50
ATOM     50  C14 MOL d          21.366  28.341  14.292  0.00  0.00    -0.072 C 
ATOM     51  H25 MOL d          21.599  27.287  14.504  0.00  0.00     0.028 H 
ATOM     52  H26 MOL d          20.288  28.512  14.424  0.00  0.00     0.028 H 
ATOM     53  H27 MOL d          21.929  28.987  14.982  0.00  0.00     0.028 H 
ENDBRANCH  48  50
BRANCH  48  54
ATOM     54  C15 MOL d          22.367  27.432  12.178  0.00  0.00    -0.064 C 
ATOM     55  H28 MOL d          21.703  27.123  11.357  0.00  0.00     0.033 H 
ATOM     56  H29 MOL d          22.429  26.625  12.924  0.00  0.00     0.033 H 
BRANCH  54  57
ATOM     57  C18 MOL d          23.757  27.666  11.608  0.00  0.00    -0.076 C 
ATOM     58  H30 MOL d          24.513  27.379  12.354  0.00  0.00     0.027 H 
ATOM     59  H31 MOL d          23.877  28.731  11.356  0.00  0.00     0.027 H 
ATOM     60  H32 MOL d          23.889  27.058  10.700  0.00  0.00     0.027 H 
ENDBRANCH  54  57
ENDBRANCH  48  54
ENDBRANCH  45  48
ENDBRANCH  44  45
BRANCH  44  61
ATOM     61  S8  MOL d          18.120  28.408  11.938  0.00  0.00     0.243 S 
ATOM     62  O10 MOL d          17.696  29.254  10.864  0.00  0.00    -0.206 OA
ATOM     63  O9  MOL d          17.105  28.153  12.933  0.00  0.00    -0.206 OA
BRANCH  61  64
ATOM     64  C5  MOL d          18.633  26.959  11.354  0.00  0.00     0.076 A 
ATOM     65  C6  MOL d          18.033  25.801  11.853  0.00  0.00    -0.059 A 
ATOM     66  C7  MOL d          18.371  24.540  11.366  0.00  0.00    -0.052 A 
ATOM     67  H33 MOL d          17.288  25.885  12.636  0.00  0.00     0.086 H 
ATOM     68  C2  MOL d          19.328  24.394  10.381  0.00  0.00     0.074 A 
ATOM     69  H34 MOL d          17.877  23.661  11.765  0.00  0.00     0.087 H 
ATOM     70  C3  MOL d          19.961  25.528   9.870  0.00  0.00     0.036 A 
ATOM     71  N1  MOL d          19.798  23.273   9.786  0.00  0.00    -0.253 NA
ATOM     72  C4  MOL d          19.609  26.798  10.358  0.00  0.00    -0.042 A 
ATOM     73  S1  MOL d          21.134  25.218   8.661  0.00  0.00    -0.081 SA
ATOM     74  H35 MOL d          20.103  27.675   9.955  0.00  0.00     0.088 H 
ATOM     75  C1  MOL d          20.743  23.538   8.869  0.00  0.00     0.041 A 
ATOM     76  H36 MOL d          21.231  22.753   8.294  0.00  0.00     0.126 H 
ENDBRANCH  61  64
ENDBRANCH  44  61
ENDBRANCH  41  44
ENDBRANCH   1  41
TORSDOF 17
ENDMDL
MODEL 7
REMARK VINA RESULT:      -5.7      2.914      8.735
REMARK  17 active torsions:
REMARK  status: ('A' for Active; 'I' for Inactive)
REMARK    1  A    between atoms: C24_4  and  C22_7 
REMARK    2  A    between atoms: C22_7  and  O23_8 
REMARK    3  A    between atoms: O23_8  and  C21_9 
REMARK       I    between atoms: C21_9  and  N20_11 
REMARK    4  A    between atoms: N20_11  and  C19_12 
REMARK    5  A    between atoms: C19_12  and  C32_13 
REMARK    6  A    between atoms: C19_12  and  C17_20 
REMARK    7  A    between atoms: C32_13  and  C38_14 
REMARK    8  A    between atoms: C17_20  and  O18_21 
REMARK    9  A    between atoms: C17_20  and  C16_22 
REMARK   10  A    between atoms: C16_22  and  N11_23 
REMARK   11  A    between atoms: N11_23  and  C12_24 
REMARK   12  A    between atoms: N11_23  and  S8_29 
REMARK   13  A    between atoms: C12_24  and  C13_25 
REMARK   14  A    between atoms: C13_25  and  C14_26 
REMARK   15  A    between atoms: C13_25  and  C15_27 
REMARK   16  A    between atoms: C15_27  and  C18_28 
REMARK   17  A    between atoms: S8_29  and  C5_32 
ROOT
ATOM      1  C17 MOL d          20.604  29.292  14.772  0.00  0.00     0.067 C 
ATOM      2  H18 MOL d          20.631  29.872  15.706  0.00  0.00     0.088 H 
ENDROOT
BRANCH   1   3
ATOM      3  C19 MOL d          22.018  29.281  14.187  0.00  0.00     0.044 C 
ATOM      4  H10 MOL d          22.717  29.061  15.007  0.00  0.00     0.077 H 
BRANCH   3   5
ATOM      5  N20 MOL d          22.122  28.231  13.186  0.00  0.00    -0.329 N 
ATOM      6  C21 MOL d          21.911  28.374  11.882  0.00  0.00     0.361 C 
ATOM      7  O22 MOL d          21.653  29.421  11.309  0.00  0.00    -0.239 OA
ATOM      8  H9  MOL d          22.376  27.320  13.509  0.00  0.00     0.165 HD
BRANCH   6   9
ATOM      9  O23 MOL d          21.961  27.153  11.098  0.00  0.00    -0.302 OA
BRANCH   9  10
ATOM     10  C22 MOL d          22.113  25.893  11.754  0.00  0.00     0.049 C 
ATOM     11  H7  MOL d          23.091  25.840  12.254  0.00  0.00     0.078 H 
ATOM     12  H8  MOL d          21.313  25.752  12.496  0.00  0.00     0.078 H 
BRANCH  10  13
ATOM     13  C24 MOL d          22.018  24.831  10.673  0.00  0.00     0.034 C 
ATOM     14  N29 MOL d          21.100  23.802  11.084  0.00  0.00    -0.354 N 
ATOM     15  C27 MOL d          19.977  23.772  10.388  0.00  0.00     0.218 C 
ATOM     16  H1  MOL d          21.295  23.166  11.830  0.00  0.00     0.162 HD
ATOM     17  O28 MOL d          19.057  23.009  10.565  0.00  0.00    -0.274 OA
ATOM     18  C26 MOL d          19.994  24.816   9.299  0.00  0.00     0.011 C 
ATOM     19  C25 MOL d          21.411  25.361   9.373  0.00  0.00    -0.036 C 
ATOM     20  H5  MOL d          19.255  25.606   9.497  0.00  0.00     0.047 H 
ATOM     21  H6  MOL d          19.794  24.365   8.316  0.00  0.00     0.047 H 
ATOM     22  H3  MOL d          21.998  25.011   8.511  0.00  0.00     0.036 H 
ATOM     23  H4  MOL d          21.395  26.461   9.384  0.00  0.00     0.036 H 
ATOM     24  H2  MOL d          23.018  24.415  10.486  0.00  0.00     0.075 H 
ENDBRANCH  10  13
ENDBRANCH   9  10
ENDBRANCH   6   9
ENDBRANCH   3   5
BRANCH   3  25
ATOM     25  C32 MOL d          22.446  30.604  13.545  0.00  0.00    -0.020 C 
ATOM     26  H11 MOL d          21.624  30.981  12.920  0.00  0.00     0.043 H 
ATOM     27  H12 MOL d          23.333  30.428  12.919  0.00  0.00     0.043 H 
BRANCH  25  28
ATOM     28  C38 MOL d          22.784  31.647  14.600  0.00  0.00    -0.056 A 
ATOM     29  C37 MOL d          22.349  31.467  15.907  0.00  0.00    -0.077 A 
ATOM     30  C36 MOL d          22.655  32.412  16.885  0.00  0.00    -0.082 A 
ATOM     31  H13 MOL d          21.769  30.589  16.167  0.00  0.00     0.084 H 
ATOM     32  C35 MOL d          23.404  33.537  16.561  0.00  0.00    -0.083 A 
ATOM     33  H14 MOL d          22.309  32.269  17.902  0.00  0.00     0.083 H 
ATOM     34  C34 MOL d          23.843  33.717  15.254  0.00  0.00    -0.082 A 
ATOM     35  H15 MOL d          23.645  34.270  17.323  0.00  0.00     0.083 H 
ATOM     36  C33 MOL d          23.537  32.769  14.282  0.00  0.00    -0.077 A 
ATOM     37  H16 MOL d          24.422  34.595  14.993  0.00  0.00     0.083 H 
ATOM     38  H17 MOL d          23.892  32.907  13.267  0.00  0.00     0.084 H 
ENDBRANCH  25  28
ENDBRANCH   3  25
ENDBRANCH   1   3
BRANCH   1  39
ATOM     39  O18 MOL d          20.185  27.957  15.069  0.00  0.00    -0.392 OA
ATOM     40  H19 MOL d          20.300  27.412  14.300  0.00  0.00     0.210 HD
ENDBRANCH   1  39
BRANCH   1  41
ATOM     41  C16 MOL d          19.560  29.929  13.844  0.00  0.00     0.019 C 
ATOM     42  H20 MOL d          19.660  29.510  12.832  0.00  0.00     0.061 H 
ATOM     43  H21 MOL d          19.713  31.017  13.806  0.00  0.00     0.061 H 
BRANCH  41  44
ATOM     44  N11 MOL d          18.202  29.634  14.374  0.00  0.00    -0.204 NA
BRANCH  44  45
ATOM     45  C12 MOL d          17.481  28.645  13.540  0.00  0.00    -0.004 C 
ATOM     46  H22 MOL d          16.526  29.082  13.216  0.00  0.00     0.058 H 
ATOM     47  H23 MOL d          17.288  27.746  14.143  0.00  0.00     0.058 H 
BRANCH  45  48
ATOM     48  C13 MOL d          18.294  28.246  12.296  0.00  0.00    -0.046 C 
ATOM     49  H24 MOL d          19.335  28.559  12.463  0.00  0.00     0.041 H 
BRANCH  48  50
ATOM     50  C14 MOL d          18.309  26.744  12.010  0.00  0.00    -0.072 C 
ATOM     51  H25 MOL d          17.320  26.319  12.233  0.00  0.00     0.028 H 
ATOM     52  H26 MOL d          19.068  26.259  12.642  0.00  0.00     0.028 H 
ATOM     53  H27 MOL d          18.550  26.575  10.950  0.00  0.00     0.028 H 
ENDBRANCH  48  50
BRANCH  48  54
ATOM     54  C15 MOL d          17.749  29.007  11.081  0.00  0.00    -0.064 C 
ATOM     55  H28 MOL d          18.185  28.568  10.172  0.00  0.00     0.033 H 
ATOM     56  H29 MOL d          18.055  30.060  11.164  0.00  0.00     0.033 H 
BRANCH  54  57
ATOM     57  C18 MOL d          16.234  28.956  10.958  0.00  0.00    -0.076 C 
ATOM     58  H30 MOL d          15.958  28.399  10.051  0.00  0.00     0.027 H 
ATOM     59  H31 MOL d          15.837  29.981  10.894  0.00  0.00     0.027 H 
ATOM     60  H32 MOL d          15.811  28.453  11.840  0.00  0.00     0.027 H 
ENDBRANCH  54  57
ENDBRANCH  48  54
ENDBRANCH  45  48
ENDBRANCH  44  45
BRANCH  44  61
ATOM     61  S8  MOL d          17.315  30.949  14.746  0.00  0.00     0.243 S 
ATOM     62  O10 MOL d          16.400  30.561  15.776  0.00  0.00    -0.206 OA
ATOM     63  O9  MOL d          16.686  31.359  13.513  0.00  0.00    -0.206 OA
BRANCH  61  64
ATOM     64  C5  MOL d          18.268  32.184  15.265  0.00  0.00     0.076 A 
ATOM     65  C6  MOL d          19.216  32.698  14.378  0.00  0.00    -0.059 A 
ATOM     66  C7  MOL d          20.019  33.784  14.723  0.00  0.00    -0.052 A 
ATOM     67  H33 MOL d          19.329  32.244  13.401  0.00  0.00     0.086 H 
ATOM     68  C2  MOL d          19.914  34.377  15.964  0.00  0.00     0.074 A 
ATOM     69  H34 MOL d          20.737  34.168  14.006  0.00  0.00     0.087 H 
ATOM     70  C3  MOL d          18.988  33.880  16.884  0.00  0.00     0.036 A 
ATOM     71  N1  MOL d          20.596  35.422  16.489  0.00  0.00    -0.253 NA
ATOM     72  C4  MOL d          18.174  32.792  16.527  0.00  0.00    -0.042 A 
ATOM     73  S1  MOL d          18.958  34.693  18.390  0.00  0.00    -0.081 SA
ATOM     74  H35 MOL d          17.456  32.412  17.245  0.00  0.00     0.088 H 
ATOM     75  C1  MOL d          20.213  35.705  17.744  0.00  0.00     0.041 A 
ATOM     76  H36 MOL d          20.658  36.516  18.319  0.00  0.00     0.126 H 
ENDBRANCH  61  64
ENDBRANCH  44  61
ENDBRANCH  41  44
ENDBRANCH   1  41
TORSDOF 17
ENDMDL
