MODEL 1
REMARK VINA RESULT:      -5.2      0.000      0.000
REMARK  12 active torsions:
REMARK  status: ('A' for Active; 'I' for Inactive)
REMARK    1  A    between atoms: C1_1  and  O4'_21 
REMARK    2  A    between atoms: C2_2  and  O2_7 
REMARK    3  A    between atoms: C3_3  and  O3_8 
REMARK    4  A    between atoms: C4_4  and  O4_9 
REMARK    5  A    between atoms: C5_5  and  C6_6 
REMARK    6  A    between atoms: C6_6  and  O6_11 
REMARK    7  A    between atoms: C1'_12  and  O1'_18 
REMARK    8  A    between atoms: C2'_13  and  O2'_19 
REMARK    9  A    between atoms: C3'_14  and  O3'_20 
REMARK   10  A    between atoms: O4'_21  and  C4'_15 
REMARK   11  A    between atoms: C5'_16  and  C6'_17 
REMARK   12  A    between atoms: C6'_17  and  O6'_23 
ROOT
ATOM      1  O4' CBI d          -3.226  42.687  12.372  0.00  0.00    -0.348 OA
ENDROOT
BRANCH   1   2
ATOM      2  C1  CBI d          -4.511  43.298  12.397  0.00  0.00     0.159 C 
ATOM      3  O5  CBI d          -4.797  43.794  13.700  0.00  0.00    -0.348 OA
ATOM      4  C5  CBI d          -6.080  44.387  13.966  0.00  0.00     0.089 C 
ATOM      5  C4  CBI d          -7.202  43.328  13.727  0.00  0.00     0.090 C 
ATOM      6  H5  CBI d          -6.252  45.248  13.305  0.00  0.00     0.090 H 
ATOM      7  C3  CBI d          -7.064  42.695  12.308  0.00  0.00     0.092 C 
ATOM      8  H4  CBI d          -7.075  42.528  14.472  0.00  0.00     0.091 H 
ATOM      9  C2  CBI d          -5.598  42.182  12.079  0.00  0.00     0.110 C 
ATOM     10  H3  CBI d          -7.306  43.445  11.542  0.00  0.00     0.091 H 
ATOM     11  H2  CBI d          -5.425  41.337  12.762  0.00  0.00     0.094 H 
ATOM     12  H1  CBI d          -4.559  44.111  11.658  0.00  0.00     0.133 H 
BRANCH   4  13
ATOM     13  C6  CBI d          -6.012  44.856  15.436  0.00  0.00     0.043 C 
ATOM     14  H6  CBI d          -6.521  45.830  15.479  0.00  0.00     0.078 H 
ATOM     15  H7  CBI d          -4.947  44.989  15.674  0.00  0.00     0.078 H 
BRANCH  13  16
ATOM     16  O6  CBI d          -6.563  44.066  16.473  0.00  0.00    -0.398 OA
ATOM     17  H11 CBI d          -6.077  43.252  16.541  0.00  0.00     0.209 HD
ENDBRANCH  13  16
ENDBRANCH   4  13
BRANCH   5  18
ATOM     18  O4  CBI d          -8.503  43.888  13.902  0.00  0.00    -0.390 OA
ATOM     19  H10 CBI d          -8.523  44.394  14.706  0.00  0.00     0.210 HD
ENDBRANCH   5  18
BRANCH   7  20
ATOM     20  O3  CBI d          -8.000  41.615  12.235  0.00  0.00    -0.390 OA
ATOM     21  H9  CBI d          -7.548  40.824  11.966  0.00  0.00     0.210 HD
ENDBRANCH   7  20
BRANCH   9  22
ATOM     22  O2  CBI d          -5.443  41.716  10.746  0.00  0.00    -0.388 OA
ATOM     23  H8  CBI d          -4.557  41.396  10.625  0.00  0.00     0.210 HD
ENDBRANCH   9  22
ENDBRANCH   1   2
BRANCH   1  24
ATOM     24  C4' CBI d          -2.094  43.509  12.233  0.00  0.00     0.096 C 
ATOM     25  C5' CBI d          -1.513  43.570  10.756  0.00  0.00     0.089 C 
ATOM     26  O5' CBI d          -0.348  44.398  10.685  0.00  0.00    -0.349 OA
ATOM     27  H16 CBI d          -1.249  42.549  10.442  0.00  0.00     0.090 H 
ATOM     28  C1' CBI d           0.743  44.043  11.526  0.00  0.00     0.156 C 
ATOM     29  C2' CBI d           0.358  43.853  13.016  0.00  0.00     0.110 C 
ATOM     30  H12 CBI d           1.171  43.092  11.176  0.00  0.00     0.133 H 
ATOM     31  C3' CBI d          -0.943  43.009  13.200  0.00  0.00     0.092 C 
ATOM     32  H13 CBI d           0.156  44.849  13.436  0.00  0.00     0.094 H 
ATOM     33  H14 CBI d          -0.702  41.970  12.930  0.00  0.00     0.091 H 
ATOM     34  H15 CBI d          -2.384  44.529  12.525  0.00  0.00     0.091 H 
BRANCH  25  35
ATOM     35  C6' CBI d          -2.561  44.151   9.769  0.00  0.00     0.043 C 
ATOM     36  H17 CBI d          -2.038  44.690   8.966  0.00  0.00     0.078 H 
ATOM     37  H18 CBI d          -3.216  44.848  10.312  0.00  0.00     0.078 H 
BRANCH  35  38
ATOM     38  O6' CBI d          -3.354  43.124   9.195  0.00  0.00    -0.398 OA
ATOM     39  H22 CBI d          -3.143  43.042   8.272  0.00  0.00     0.209 HD
ENDBRANCH  35  38
ENDBRANCH  25  35
BRANCH  28  40
ATOM     40  O1' CBI d           1.680  45.079  11.319  0.00  0.00    -0.369 OA
ATOM     41  H19 CBI d           1.269  45.786  10.835  0.00  0.00     0.212 HD
ENDBRANCH  28  40
BRANCH  29  42
ATOM     42  O2' CBI d           1.459  43.305  13.719  0.00  0.00    -0.388 OA
ATOM     43  H20 CBI d           1.490  42.366  13.575  0.00  0.00     0.210 HD
ENDBRANCH  29  42
BRANCH  31  44
ATOM     44  O3' CBI d          -1.409  43.006  14.545  0.00  0.00    -0.390 OA
ATOM     45  H21 CBI d          -2.319  43.279  14.564  0.00  0.00     0.210 HD
ENDBRANCH  31  44
ENDBRANCH   1  24
TORSDOF 12
ENDMDL
MODEL 2
REMARK VINA RESULT:      -4.2      1.828      6.641
REMARK  12 active torsions:
REMARK  status: ('A' for Active; 'I' for Inactive)
REMARK    1  A    between atoms: C1_1  and  O4'_21 
REMARK    2  A    between atoms: C2_2  and  O2_7 
REMARK    3  A    between atoms: C3_3  and  O3_8 
REMARK    4  A    between atoms: C4_4  and  O4_9 
REMARK    5  A    between atoms: C5_5  and  C6_6 
REMARK    6  A    between atoms: C6_6  and  O6_11 
REMARK    7  A    between atoms: C1'_12  and  O1'_18 
REMARK    8  A    between atoms: C2'_13  and  O2'_19 
REMARK    9  A    between atoms: C3'_14  and  O3'_20 
REMARK   10  A    between atoms: O4'_21  and  C4'_15 
REMARK   11  A    between atoms: C5'_16  and  C6'_17 
REMARK   12  A    between atoms: C6'_17  and  O6'_23 
ROOT
ATOM      1  O4' CBI d          -2.147  44.554  11.917  0.00  0.00    -0.348 OA
ENDROOT
BRANCH   1   2
ATOM      2  C1  CBI d          -0.844  44.200  12.366  0.00  0.00     0.159 C 
ATOM      3  O5  CBI d           0.014  43.965  11.254  0.00  0.00    -0.348 OA
ATOM      4  C5  CBI d           1.363  43.521  11.483  0.00  0.00     0.089 C 
ATOM      5  C4  CBI d           1.340  42.146  12.220  0.00  0.00     0.090 C 
ATOM      6  H5  CBI d           1.911  44.250  12.098  0.00  0.00     0.090 H 
ATOM      7  C3  CBI d           0.461  42.227  13.505  0.00  0.00     0.092 C 
ATOM      8  H4  CBI d           0.887  41.407  11.542  0.00  0.00     0.091 H 
ATOM      9  C2  CBI d          -0.949  42.829  13.165  0.00  0.00     0.110 C 
ATOM     10  H3  CBI d           0.954  42.867  14.252  0.00  0.00     0.091 H 
ATOM     11  H2  CBI d          -1.480  42.107  12.529  0.00  0.00     0.094 H 
ATOM     12  H1  CBI d          -0.433  44.994  13.006  0.00  0.00     0.133 H 
BRANCH   4  13
ATOM     13  C6  CBI d           2.002  43.431  10.080  0.00  0.00     0.043 C 
ATOM     14  H6  CBI d           2.944  43.997  10.126  0.00  0.00     0.078 H 
ATOM     15  H7  CBI d           1.309  43.929   9.387  0.00  0.00     0.078 H 
BRANCH  13  16
ATOM     16  O6  CBI d           2.313  42.174   9.507  0.00  0.00    -0.398 OA
ATOM     17  H11 CBI d           2.780  42.307   8.690  0.00  0.00     0.209 HD
ENDBRANCH  13  16
ENDBRANCH   4  13
BRANCH   5  18
ATOM     18  O4  CBI d           2.656  41.697  12.541  0.00  0.00    -0.390 OA
ATOM     19  H10 CBI d           3.274  42.055  11.914  0.00  0.00     0.210 HD
ENDBRANCH   5  18
BRANCH   7  20
ATOM     20  O3  CBI d           0.338  40.898  14.018  0.00  0.00    -0.390 OA
ATOM     21  H9  CBI d           0.923  40.790  14.758  0.00  0.00     0.210 HD
ENDBRANCH   7  20
BRANCH   9  22
ATOM     22  O2  CBI d          -1.704  43.015  14.354  0.00  0.00    -0.388 OA
ATOM     23  H8  CBI d          -1.352  43.753  14.839  0.00  0.00     0.210 HD
ENDBRANCH   9  22
ENDBRANCH   1   2
BRANCH   1  24
ATOM     24  C4' CBI d          -3.061  43.526  11.626  0.00  0.00     0.096 C 
ATOM     25  C5' CBI d          -3.315  43.303  10.074  0.00  0.00     0.089 C 
ATOM     26  O5' CBI d          -4.273  42.266   9.845  0.00  0.00    -0.349 OA
ATOM     27  H16 CBI d          -3.692  44.244   9.644  0.00  0.00     0.090 H 
ATOM     28  C1' CBI d          -5.555  42.433  10.437  0.00  0.00     0.156 C 
ATOM     29  C2' CBI d          -5.515  42.746  11.955  0.00  0.00     0.110 C 
ATOM     30  H12 CBI d          -6.071  43.272   9.946  0.00  0.00     0.133 H 
ATOM     31  C3' CBI d          -4.452  43.830  12.321  0.00  0.00     0.092 C 
ATOM     32  H13 CBI d          -5.224  41.822  12.477  0.00  0.00     0.094 H 
ATOM     33  H14 CBI d          -4.819  44.793  11.936  0.00  0.00     0.091 H 
ATOM     34  H15 CBI d          -2.654  42.591  12.040  0.00  0.00     0.091 H 
BRANCH  25  35
ATOM     35  C6' CBI d          -2.005  42.901   9.347  0.00  0.00     0.043 C 
ATOM     36  H17 CBI d          -1.274  43.717   9.446  0.00  0.00     0.078 H 
ATOM     37  H18 CBI d          -2.223  42.732   8.282  0.00  0.00     0.078 H 
BRANCH  35  38
ATOM     38  O6' CBI d          -1.452  41.717   9.899  0.00  0.00    -0.398 OA
ATOM     39  H22 CBI d          -0.520  41.841  10.041  0.00  0.00     0.209 HD
ENDBRANCH  35  38
ENDBRANCH  25  35
BRANCH  28  40
ATOM     40  O1' CBI d          -6.229  41.230  10.132  0.00  0.00    -0.369 OA
ATOM     41  H19 CBI d          -6.331  41.156   9.190  0.00  0.00     0.212 HD
ENDBRANCH  28  40
BRANCH  29  42
ATOM     42  O2' CBI d          -6.814  43.096  12.397  0.00  0.00    -0.388 OA
ATOM     43  H20 CBI d          -7.456  42.791  11.765  0.00  0.00     0.210 HD
ENDBRANCH  29  42
BRANCH  31  44
ATOM     44  O3' CBI d          -4.271  43.969  13.726  0.00  0.00    -0.390 OA
ATOM     45  H21 CBI d          -3.349  44.104  13.913  0.00  0.00     0.210 HD
ENDBRANCH  31  44
ENDBRANCH   1  24
TORSDOF 12
ENDMDL
MODEL 3
REMARK VINA RESULT:      -4.0      1.939      6.566
REMARK  12 active torsions:
REMARK  status: ('A' for Active; 'I' for Inactive)
REMARK    1  A    between atoms: C1_1  and  O4'_21 
REMARK    2  A    between atoms: C2_2  and  O2_7 
REMARK    3  A    between atoms: C3_3  and  O3_8 
REMARK    4  A    between atoms: C4_4  and  O4_9 
REMARK    5  A    between atoms: C5_5  and  C6_6 
REMARK    6  A    between atoms: C6_6  and  O6_11 
REMARK    7  A    between atoms: C1'_12  and  O1'_18 
REMARK    8  A    between atoms: C2'_13  and  O2'_19 
REMARK    9  A    between atoms: C3'_14  and  O3'_20 
REMARK   10  A    between atoms: O4'_21  and  C4'_15 
REMARK   11  A    between atoms: C5'_16  and  C6'_17 
REMARK   12  A    between atoms: C6'_17  and  O6'_23 
ROOT
ATOM      1  O4' CBI d          -2.616  43.247  10.695  0.00  0.00    -0.348 OA
ENDROOT
BRANCH   1   2
ATOM      2  C1  CBI d          -1.505  42.424  11.028  0.00  0.00     0.159 C 
ATOM      3  O5  CBI d          -0.809  42.962  12.147  0.00  0.00    -0.348 OA
ATOM      4  C5  CBI d           0.395  42.323  12.606  0.00  0.00     0.089 C 
ATOM      5  C4  CBI d           1.463  42.348  11.469  0.00  0.00     0.090 C 
ATOM      6  H5  CBI d           0.194  41.279  12.889  0.00  0.00     0.090 H 
ATOM      7  C3  CBI d           0.877  41.751  10.153  0.00  0.00     0.092 C 
ATOM      8  H4  CBI d           1.729  43.398  11.279  0.00  0.00     0.091 H 
ATOM      9  C2  CBI d          -0.491  42.439   9.803  0.00  0.00     0.110 C 
ATOM     10  H3  CBI d           0.714  40.670  10.276  0.00  0.00     0.091 H 
ATOM     11  H2  CBI d          -0.285  43.488   9.547  0.00  0.00     0.094 H 
ATOM     12  H1  CBI d          -1.842  41.399  11.243  0.00  0.00     0.133 H 
BRANCH   4  13
ATOM     13  C6  CBI d           0.832  43.130  13.848  0.00  0.00     0.043 C 
ATOM     14  H6  CBI d          -0.064  43.257  14.472  0.00  0.00     0.078 H 
ATOM     15  H7  CBI d           1.168  44.111  13.483  0.00  0.00     0.078 H 
BRANCH  13  16
ATOM     16  O6  CBI d           1.853  42.645  14.702  0.00  0.00    -0.398 OA
ATOM     17  H11 CBI d           1.574  41.824  15.091  0.00  0.00     0.209 HD
ENDBRANCH  13  16
ENDBRANCH   4  13
BRANCH   5  18
ATOM     18  O4  CBI d           2.653  41.655  11.847  0.00  0.00    -0.390 OA
ATOM     19  H10 CBI d           2.521  40.720  11.741  0.00  0.00     0.210 HD
ENDBRANCH   5  18
BRANCH   7  20
ATOM     20  O3  CBI d           1.841  41.977   9.121  0.00  0.00    -0.390 OA
ATOM     21  H9  CBI d           2.604  42.405   9.490  0.00  0.00     0.210 HD
ENDBRANCH   7  20
BRANCH   9  22
ATOM     22  O2  CBI d          -1.081  41.812   8.674  0.00  0.00    -0.388 OA
ATOM     23  H8  CBI d          -1.030  42.396   7.926  0.00  0.00     0.210 HD
ENDBRANCH   9  22
ENDBRANCH   1   2
BRANCH   1  24
ATOM     24  C4' CBI d          -3.890  42.879  11.164  0.00  0.00     0.096 C 
ATOM     25  C5' CBI d          -5.061  43.115  10.116  0.00  0.00     0.089 C 
ATOM     26  O5' CBI d          -6.332  42.749  10.662  0.00  0.00    -0.349 OA
ATOM     27  H16 CBI d          -5.078  44.181   9.847  0.00  0.00     0.090 H 
ATOM     28  C1' CBI d          -6.731  43.407  11.857  0.00  0.00     0.156 C 
ATOM     29  C2' CBI d          -5.672  43.360  12.990  0.00  0.00     0.110 C 
ATOM     30  H12 CBI d          -6.924  44.467  11.636  0.00  0.00     0.133 H 
ATOM     31  C3' CBI d          -4.232  43.687  12.483  0.00  0.00     0.092 C 
ATOM     32  H13 CBI d          -5.649  42.332  13.380  0.00  0.00     0.094 H 
ATOM     33  H14 CBI d          -4.205  44.760  12.239  0.00  0.00     0.091 H 
ATOM     34  H15 CBI d          -3.860  41.806  11.403  0.00  0.00     0.091 H 
BRANCH  25  35
ATOM     35  C6' CBI d          -4.839  42.269   8.835  0.00  0.00     0.043 C 
ATOM     36  H17 CBI d          -4.377  42.901   8.063  0.00  0.00     0.078 H 
ATOM     37  H18 CBI d          -5.812  41.903   8.474  0.00  0.00     0.078 H 
BRANCH  35  38
ATOM     38  O6' CBI d          -3.993  41.159   9.089  0.00  0.00    -0.398 OA
ATOM     39  H22 CBI d          -3.226  41.450   9.567  0.00  0.00     0.209 HD
ENDBRANCH  35  38
ENDBRANCH  25  35
BRANCH  28  40
ATOM     40  O1' CBI d          -7.946  42.775  12.202  0.00  0.00    -0.369 OA
ATOM     41  H19 CBI d          -8.508  43.396  12.652  0.00  0.00     0.212 HD
ENDBRANCH  28  40
BRANCH  29  42
ATOM     42  O2' CBI d          -6.077  44.211  14.047  0.00  0.00    -0.388 OA
ATOM     43  H20 CBI d          -5.750  45.089  13.888  0.00  0.00     0.210 HD
ENDBRANCH  29  42
BRANCH  31  44
ATOM     44  O3' CBI d          -3.235  43.445  13.470  0.00  0.00    -0.390 OA
ATOM     45  H21 CBI d          -2.374  43.565  13.085  0.00  0.00     0.210 HD
ENDBRANCH  31  44
ENDBRANCH   1  24
TORSDOF 12
ENDMDL
MODEL 4
REMARK VINA RESULT:      -3.6      1.512      6.518
REMARK  12 active torsions:
REMARK  status: ('A' for Active; 'I' for Inactive)
REMARK    1  A    between atoms: C1_1  and  O4'_21 
REMARK    2  A    between atoms: C2_2  and  O2_7 
REMARK    3  A    between atoms: C3_3  and  O3_8 
REMARK    4  A    between atoms: C4_4  and  O4_9 
REMARK    5  A    between atoms: C5_5  and  C6_6 
REMARK    6  A    between atoms: C6_6  and  O6_11 
REMARK    7  A    between atoms: C1'_12  and  O1'_18 
REMARK    8  A    between atoms: C2'_13  and  O2'_19 
REMARK    9  A    between atoms: C3'_14  and  O3'_20 
REMARK   10  A    between atoms: O4'_21  and  C4'_15 
REMARK   11  A    between atoms: C5'_16  and  C6'_17 
REMARK   12  A    between atoms: C6'_17  and  O6'_23 
ROOT
ATOM      1  O4' CBI d          -5.770  43.539  12.120  0.00  0.00    -0.348 OA
ENDROOT
BRANCH   1   2
ATOM      2  C1  CBI d          -4.512  42.993  11.741  0.00  0.00     0.159 C 
ATOM      3  O5  CBI d          -3.609  43.024  12.842  0.00  0.00    -0.348 OA
ATOM      4  C5  CBI d          -2.252  42.585  12.656  0.00  0.00     0.089 C 
ATOM      5  C4  CBI d          -1.555  43.487  11.589  0.00  0.00     0.090 C 
ATOM      6  H5  CBI d          -2.227  41.540  12.314  0.00  0.00     0.090 H 
ATOM      7  C3  CBI d          -2.401  43.541  10.280  0.00  0.00     0.092 C 
ATOM      8  H4  CBI d          -1.493  44.506  11.998  0.00  0.00     0.091 H 
ATOM      9  C2  CBI d          -3.890  43.918  10.608  0.00  0.00     0.110 C 
ATOM     10  H3  CBI d          -2.380  42.560   9.783  0.00  0.00     0.091 H 
ATOM     11  H2  CBI d          -3.903  44.955  10.973  0.00  0.00     0.094 H 
ATOM     12  H1  CBI d          -4.639  41.963  11.379  0.00  0.00     0.133 H 
BRANCH   4  13
ATOM     13  C6  CBI d          -1.596  42.700  14.049  0.00  0.00     0.043 C 
ATOM     14  H6  CBI d          -1.695  41.714  14.525  0.00  0.00     0.078 H 
ATOM     15  H7  CBI d          -2.182  43.440  14.612  0.00  0.00     0.078 H 
BRANCH  13  16
ATOM     16  O6  CBI d          -0.237  43.076  14.179  0.00  0.00    -0.398 OA
ATOM     17  H11 CBI d          -0.113  43.943  13.810  0.00  0.00     0.209 HD
ENDBRANCH  13  16
ENDBRANCH   4  13
BRANCH   5  18
ATOM     18  O4  CBI d          -0.228  43.044  11.309  0.00  0.00    -0.390 OA
ATOM     19  H10 CBI d           0.153  42.671  12.096  0.00  0.00     0.210 HD
ENDBRANCH   5  18
BRANCH   7  20
ATOM     20  O3  CBI d          -1.801  44.522   9.430  0.00  0.00    -0.390 OA
ATOM     21  H9  CBI d          -0.862  44.529   9.570  0.00  0.00     0.210 HD
ENDBRANCH   7  20
BRANCH   9  22
ATOM     22  O2  CBI d          -4.684  43.849   9.432  0.00  0.00    -0.388 OA
ATOM     23  H8  CBI d          -5.353  43.184   9.542  0.00  0.00     0.210 HD
ENDBRANCH   9  22
ENDBRANCH   1   2
BRANCH   1  24
ATOM     24  C4' CBI d          -6.366  43.091  13.313  0.00  0.00     0.096 C 
ATOM     25  C5' CBI d          -7.834  42.515  13.130  0.00  0.00     0.089 C 
ATOM     26  O5' CBI d          -8.395  42.104  14.380  0.00  0.00    -0.349 OA
ATOM     27  H16 CBI d          -8.466  43.304  12.694  0.00  0.00     0.090 H 
ATOM     28  C1' CBI d          -8.480  43.090  15.401  0.00  0.00     0.156 C 
ATOM     29  C2' CBI d          -7.148  43.835  15.675  0.00  0.00     0.110 C 
ATOM     30  H12 CBI d          -9.222  43.848  15.107  0.00  0.00     0.133 H 
ATOM     31  C3' CBI d          -6.422  44.276  14.364  0.00  0.00     0.092 C 
ATOM     32  H13 CBI d          -6.476  43.134  16.193  0.00  0.00     0.094 H 
ATOM     33  H14 CBI d          -7.012  45.093  13.921  0.00  0.00     0.091 H 
ATOM     34  H15 CBI d          -5.735  42.287  13.719  0.00  0.00     0.091 H 
BRANCH  25  35
ATOM     35  C6' CBI d          -7.835  41.283  12.187  0.00  0.00     0.043 C 
ATOM     36  H17 CBI d          -8.796  40.756  12.285  0.00  0.00     0.078 H 
ATOM     37  H18 CBI d          -7.016  40.608  12.479  0.00  0.00     0.078 H 
BRANCH  35  38
ATOM     38  O6' CBI d          -7.656  41.668  10.834  0.00  0.00    -0.398 OA
ATOM     39  H22 CBI d          -8.495  41.651  10.387  0.00  0.00     0.209 HD
ENDBRANCH  35  38
ENDBRANCH  25  35
BRANCH  28  40
ATOM     40  O1' CBI d          -8.962  42.377  16.521  0.00  0.00    -0.369 OA
ATOM     41  H19 CBI d          -9.463  42.964  17.077  0.00  0.00     0.212 HD
ENDBRANCH  28  40
BRANCH  29  42
ATOM     42  O2' CBI d          -7.389  44.923  16.548  0.00  0.00    -0.388 OA
ATOM     43  H20 CBI d          -8.098  45.454  16.203  0.00  0.00     0.210 HD
ENDBRANCH  29  42
BRANCH  31  44
ATOM     44  O3' CBI d          -5.110  44.773  14.603  0.00  0.00    -0.390 OA
ATOM     45  H21 CBI d          -4.492  44.052  14.586  0.00  0.00     0.210 HD
ENDBRANCH  31  44
ENDBRANCH   1  24
TORSDOF 12
ENDMDL
MODEL 5
REMARK VINA RESULT:      -3.6      1.606      6.439
REMARK  12 active torsions:
REMARK  status: ('A' for Active; 'I' for Inactive)
REMARK    1  A    between atoms: C1_1  and  O4'_21 
REMARK    2  A    between atoms: C2_2  and  O2_7 
REMARK    3  A    between atoms: C3_3  and  O3_8 
REMARK    4  A    between atoms: C4_4  and  O4_9 
REMARK    5  A    between atoms: C5_5  and  C6_6 
REMARK    6  A    between atoms: C6_6  and  O6_11 
REMARK    7  A    between atoms: C1'_12  and  O1'_18 
REMARK    8  A    between atoms: C2'_13  and  O2'_19 
REMARK    9  A    between atoms: C3'_14  and  O3'_20 
REMARK   10  A    between atoms: O4'_21  and  C4'_15 
REMARK   11  A    between atoms: C5'_16  and  C6'_17 
REMARK   12  A    between atoms: C6'_17  and  O6'_23 
ROOT
ATOM      1  O4' CBI d          -3.977  43.418  11.190  0.00  0.00    -0.348 OA
ENDROOT
BRANCH   1   2
ATOM      2  C1  CBI d          -2.782  42.672  11.390  0.00  0.00     0.159 C 
ATOM      3  O5  CBI d          -1.853  43.426  12.162  0.00  0.00    -0.348 OA
ATOM      4  C5  CBI d          -0.545  42.886  12.420  0.00  0.00     0.089 C 
ATOM      5  C4  CBI d           0.202  42.664  11.068  0.00  0.00     0.090 C 
ATOM      6  H5  CBI d          -0.621  41.926  12.950  0.00  0.00     0.090 H 
ATOM      7  C3  CBI d          -0.668  41.812  10.094  0.00  0.00     0.092 C 
ATOM      8  H4  CBI d           0.364  43.650  10.607  0.00  0.00     0.091 H 
ATOM      9  C2  CBI d          -2.109  42.423   9.971  0.00  0.00     0.110 C 
ATOM     10  H3  CBI d          -0.746  40.782  10.471  0.00  0.00     0.091 H 
ATOM     11  H2  CBI d          -2.022  43.395   9.463  0.00  0.00     0.094 H 
ATOM     12  H1  CBI d          -3.009  41.718  11.887  0.00  0.00     0.133 H 
BRANCH   4  13
ATOM     13  C6  CBI d           0.152  43.930  13.319  0.00  0.00     0.043 C 
ATOM     14  H6  CBI d          -0.639  44.419  13.905  0.00  0.00     0.078 H 
ATOM     15  H7  CBI d           0.616  44.665  12.645  0.00  0.00     0.078 H 
BRANCH  13  16
ATOM     16  O6  CBI d           1.154  43.537  14.240  0.00  0.00    -0.398 OA
ATOM     17  H11 CBI d           1.148  42.591  14.326  0.00  0.00     0.209 HD
ENDBRANCH  13  16
ENDBRANCH   4  13
BRANCH   5  18
ATOM     18  O4  CBI d           1.478  42.056  11.263  0.00  0.00    -0.390 OA
ATOM     19  H10 CBI d           1.423  41.430  11.976  0.00  0.00     0.210 HD
ENDBRANCH   5  18
BRANCH   7  20
ATOM     20  O3  CBI d          -0.004  41.810   8.827  0.00  0.00    -0.390 OA
ATOM     21  H9  CBI d           0.893  41.521   8.941  0.00  0.00     0.210 HD
ENDBRANCH   7  20
BRANCH   9  22
ATOM     22  O2  CBI d          -2.935  41.580   9.181  0.00  0.00    -0.388 OA
ATOM     23  H8  CBI d          -2.513  40.736   9.074  0.00  0.00     0.210 HD
ENDBRANCH   9  22
ENDBRANCH   1   2
BRANCH   1  24
ATOM     24  C4' CBI d          -5.125  43.057  11.919  0.00  0.00     0.096 C 
ATOM     25  C5' CBI d          -6.447  42.963  11.045  0.00  0.00     0.089 C 
ATOM     26  O5' CBI d          -7.581  42.621  11.848  0.00  0.00    -0.349 OA
ATOM     27  H16 CBI d          -6.623  43.940  10.572  0.00  0.00     0.090 H 
ATOM     28  C1' CBI d          -7.884  43.488  12.933  0.00  0.00     0.156 C 
ATOM     29  C2' CBI d          -6.682  43.775  13.869  0.00  0.00     0.110 C 
ATOM     30  H12 CBI d          -8.225  44.455  12.536  0.00  0.00     0.133 H 
ATOM     31  C3' CBI d          -5.371  44.101  13.085  0.00  0.00     0.092 C 
ATOM     32  H13 CBI d          -6.489  42.861  14.451  0.00  0.00     0.094 H 
ATOM     33  H14 CBI d          -5.500  45.094  12.629  0.00  0.00     0.091 H 
ATOM     34  H15 CBI d          -4.941  42.068  12.363  0.00  0.00     0.091 H 
BRANCH  25  35
ATOM     35  C6' CBI d          -6.309  41.880   9.942  0.00  0.00     0.043 C 
ATOM     36  H17 CBI d          -7.312  41.586   9.601  0.00  0.00     0.078 H 
ATOM     37  H18 CBI d          -5.794  41.003  10.363  0.00  0.00     0.078 H 
BRANCH  35  38
ATOM     38  O6' CBI d          -5.568  42.364   8.834  0.00  0.00    -0.398 OA
ATOM     39  H22 CBI d          -6.058  43.054   8.404  0.00  0.00     0.209 HD
ENDBRANCH  35  38
ENDBRANCH  25  35
BRANCH  28  40
ATOM     40  O1' CBI d          -8.961  42.849  13.587  0.00  0.00    -0.369 OA
ATOM     41  H19 CBI d          -9.358  43.451  14.204  0.00  0.00     0.212 HD
ENDBRANCH  28  40
BRANCH  29  42
ATOM     42  O2' CBI d          -7.032  44.799  14.783  0.00  0.00    -0.388 OA
ATOM     43  H20 CBI d          -6.352  45.463  14.788  0.00  0.00     0.210 HD
ENDBRANCH  29  42
BRANCH  31  44
ATOM     44  O3' CBI d          -4.227  44.162  13.930  0.00  0.00    -0.390 OA
ATOM     45  H21 CBI d          -3.442  44.046  13.407  0.00  0.00     0.210 HD
ENDBRANCH  31  44
ENDBRANCH   1  24
TORSDOF 12
ENDMDL
MODEL 6
REMARK VINA RESULT:      -3.6      1.595      3.173
REMARK  12 active torsions:
REMARK  status: ('A' for Active; 'I' for Inactive)
REMARK    1  A    between atoms: C1_1  and  O4'_21 
REMARK    2  A    between atoms: C2_2  and  O2_7 
REMARK    3  A    between atoms: C3_3  and  O3_8 
REMARK    4  A    between atoms: C4_4  and  O4_9 
REMARK    5  A    between atoms: C5_5  and  C6_6 
REMARK    6  A    between atoms: C6_6  and  O6_11 
REMARK    7  A    between atoms: C1'_12  and  O1'_18 
REMARK    8  A    between atoms: C2'_13  and  O2'_19 
REMARK    9  A    between atoms: C3'_14  and  O3'_20 
REMARK   10  A    between atoms: O4'_21  and  C4'_15 
REMARK   11  A    between atoms: C5'_16  and  C6'_17 
REMARK   12  A    between atoms: C6'_17  and  O6'_23 
ROOT
ATOM      1  O4' CBI d          -2.973  44.136  12.410  0.00  0.00    -0.348 OA
ENDROOT
BRANCH   1   2
ATOM      2  C1  CBI d          -4.027  43.180  12.457  0.00  0.00     0.159 C 
ATOM      3  O5  CBI d          -4.341  42.728  11.145  0.00  0.00    -0.348 OA
ATOM      4  C5  CBI d          -5.432  41.808  10.956  0.00  0.00     0.089 C 
ATOM      5  C4  CBI d          -6.759  42.471  11.440  0.00  0.00     0.090 C 
ATOM      6  H5  CBI d          -5.262  40.884  11.527  0.00  0.00     0.090 H 
ATOM      7  C3  CBI d          -6.608  43.001  12.898  0.00  0.00     0.092 C 
ATOM      8  H4  CBI d          -6.967  43.329  10.783  0.00  0.00     0.091 H 
ATOM      9  C2  CBI d          -5.326  43.901  13.022  0.00  0.00     0.110 C 
ATOM     10  H3  CBI d          -6.521  42.154  13.594  0.00  0.00     0.091 H 
ATOM     11  H2  CBI d          -5.494  44.810  12.427  0.00  0.00     0.094 H 
ATOM     12  H1  CBI d          -3.741  42.332  13.097  0.00  0.00     0.133 H 
BRANCH   4  13
ATOM     13  C6  CBI d          -5.441  41.498   9.443  0.00  0.00     0.043 C 
ATOM     14  H6  CBI d          -5.944  42.343   8.952  0.00  0.00     0.078 H 
ATOM     15  H7  CBI d          -6.042  40.587   9.313  0.00  0.00     0.078 H 
BRANCH  13  16
ATOM     16  O6  CBI d          -4.229  41.287   8.742  0.00  0.00    -0.398 OA
ATOM     17  H11 CBI d          -3.687  42.064   8.808  0.00  0.00     0.209 HD
ENDBRANCH  13  16
ENDBRANCH   4  13
BRANCH   5  18
ATOM     18  O4  CBI d          -7.863  41.570  11.346  0.00  0.00    -0.390 OA
ATOM     19  H10 CBI d          -8.458  41.724  12.071  0.00  0.00     0.210 HD
ENDBRANCH   5  18
BRANCH   7  20
ATOM     20  O3  CBI d          -7.789  43.751  13.200  0.00  0.00    -0.390 OA
ATOM     21  H9  CBI d          -8.101  43.512  14.064  0.00  0.00     0.210 HD
ENDBRANCH   7  20
BRANCH   9  22
ATOM     22  O2  CBI d          -5.124  44.284  14.374  0.00  0.00    -0.388 OA
ATOM     23  H8  CBI d          -4.234  44.074  14.631  0.00  0.00     0.210 HD
ENDBRANCH   9  22
ENDBRANCH   1   2
BRANCH   1  24
ATOM     24  C4' CBI d          -1.657  43.677  12.224  0.00  0.00     0.096 C 
ATOM     25  C5' CBI d          -1.386  43.045  10.792  0.00  0.00     0.089 C 
ATOM     26  O5' CBI d          -0.040  42.573  10.676  0.00  0.00    -0.349 OA
ATOM     27  H16 CBI d          -2.078  42.202  10.646  0.00  0.00     0.090 H 
ATOM     28  C1' CBI d           0.384  41.602  11.624  0.00  0.00     0.156 C 
ATOM     29  C2' CBI d           0.124  42.003  13.100  0.00  0.00     0.110 C 
ATOM     30  H12 CBI d          -0.158  40.662  11.442  0.00  0.00     0.133 H 
ATOM     31  C3' CBI d          -1.305  42.591  13.323  0.00  0.00     0.092 C 
ATOM     32  H13 CBI d           0.842  42.796  13.359  0.00  0.00     0.094 H 
ATOM     33  H14 CBI d          -2.021  41.762  13.220  0.00  0.00     0.091 H 
ATOM     34  H15 CBI d          -0.983  44.537  12.348  0.00  0.00     0.091 H 
BRANCH  25  35
ATOM     35  C6' CBI d          -1.614  44.092   9.670  0.00  0.00     0.043 C 
ATOM     36  H17 CBI d          -0.922  43.886   8.841  0.00  0.00     0.078 H 
ATOM     37  H18 CBI d          -1.417  45.097  10.071  0.00  0.00     0.078 H 
BRANCH  35  38
ATOM     38  O6' CBI d          -2.945  44.043   9.182  0.00  0.00    -0.398 OA
ATOM     39  H22 CBI d          -3.401  44.840   9.428  0.00  0.00     0.209 HD
ENDBRANCH  35  38
ENDBRANCH  25  35
BRANCH  28  40
ATOM     40  O1' CBI d           1.752  41.414  11.328  0.00  0.00    -0.369 OA
ATOM     41  H19 CBI d           2.280  41.871  11.973  0.00  0.00     0.212 HD
ENDBRANCH  28  40
BRANCH  29  42
ATOM     42  O2' CBI d           0.388  40.895  13.941  0.00  0.00    -0.388 OA
ATOM     43  H20 CBI d           0.162  40.091  13.485  0.00  0.00     0.210 HD
ENDBRANCH  29  42
BRANCH  31  44
ATOM     44  O3' CBI d          -1.473  43.146  14.623  0.00  0.00    -0.390 OA
ATOM     45  H21 CBI d          -0.624  43.393  14.972  0.00  0.00     0.210 HD
ENDBRANCH  31  44
ENDBRANCH   1  24
TORSDOF 12
ENDMDL
MODEL 7
REMARK VINA RESULT:      -3.0      1.323      2.780
REMARK  12 active torsions:
REMARK  status: ('A' for Active; 'I' for Inactive)
REMARK    1  A    between atoms: C1_1  and  O4'_21 
REMARK    2  A    between atoms: C2_2  and  O2_7 
REMARK    3  A    between atoms: C3_3  and  O3_8 
REMARK    4  A    between atoms: C4_4  and  O4_9 
REMARK    5  A    between atoms: C5_5  and  C6_6 
REMARK    6  A    between atoms: C6_6  and  O6_11 
REMARK    7  A    between atoms: C1'_12  and  O1'_18 
REMARK    8  A    between atoms: C2'_13  and  O2'_19 
REMARK    9  A    between atoms: C3'_14  and  O3'_20 
REMARK   10  A    between atoms: O4'_21  and  C4'_15 
REMARK   11  A    between atoms: C5'_16  and  C6'_17 
REMARK   12  A    between atoms: C6'_17  and  O6'_23 
ROOT
ATOM      1  O4' CBI d          -4.126  41.654  12.184  0.00  0.00    -0.348 OA
ENDROOT
BRANCH   1   2
ATOM      2  C1  CBI d          -5.096  42.693  12.243  0.00  0.00     0.159 C 
ATOM      3  O5  CBI d          -5.106  43.286  13.537  0.00  0.00    -0.348 OA
ATOM      4  C5  CBI d          -6.067  44.313  13.837  0.00  0.00     0.089 C 
ATOM      5  C4  CBI d          -7.509  43.734  13.692  0.00  0.00     0.090 C 
ATOM      6  H5  CBI d          -5.950  45.164  13.150  0.00  0.00     0.090 H 
ATOM      7  C3  CBI d          -7.694  43.066  12.295  0.00  0.00     0.092 C 
ATOM      8  H4  CBI d          -7.640  42.959  14.462  0.00  0.00     0.091 H 
ATOM      9  C2  CBI d          -6.531  42.046  12.020  0.00  0.00     0.110 C 
ATOM     10  H3  CBI d          -7.688  43.836  11.511  0.00  0.00     0.091 H 
ATOM     11  H2  CBI d          -6.639  41.211  12.728  0.00  0.00     0.094 H 
ATOM     12  H1  CBI d          -4.886  43.452  11.475  0.00  0.00     0.133 H 
BRANCH   4  13
ATOM     13  C6  CBI d          -5.748  44.755  15.282  0.00  0.00     0.043 C 
ATOM     14  H6  CBI d          -5.849  45.850  15.306  0.00  0.00     0.078 H 
ATOM     15  H7  CBI d          -4.701  44.479  15.471  0.00  0.00     0.078 H 
BRANCH  13  16
ATOM     16  O6  CBI d          -6.501  44.257  16.373  0.00  0.00    -0.398 OA
ATOM     17  H11 CBI d          -6.311  44.772  17.148  0.00  0.00     0.209 HD
ENDBRANCH  13  16
ENDBRANCH   4  13
BRANCH   5  18
ATOM     18  O4  CBI d          -8.504  44.736  13.903  0.00  0.00    -0.390 OA
ATOM     19  H10 CBI d          -8.487  45.354  13.182  0.00  0.00     0.210 HD
ENDBRANCH   5  18
BRANCH   7  20
ATOM     20  O3  CBI d          -8.961  42.403  12.308  0.00  0.00    -0.390 OA
ATOM     21  H9  CBI d          -9.649  43.035  12.142  0.00  0.00     0.210 HD
ENDBRANCH   7  20
BRANCH   9  22
ATOM     22  O2  CBI d          -6.633  41.529  10.702  0.00  0.00    -0.388 OA
ATOM     23  H8  CBI d          -6.337  40.626  10.693  0.00  0.00     0.210 HD
ENDBRANCH   9  22
ENDBRANCH   1   2
BRANCH   1  24
ATOM     24  C4' CBI d          -2.880  41.929  11.592  0.00  0.00     0.096 C 
ATOM     25  C5' CBI d          -1.711  42.198  12.633  0.00  0.00     0.089 C 
ATOM     26  O5' CBI d          -0.480  42.499  11.971  0.00  0.00    -0.349 OA
ATOM     27  H16 CBI d          -1.998  43.051  13.267  0.00  0.00     0.090 H 
ATOM     28  C1' CBI d          -0.483  43.610  11.083  0.00  0.00     0.156 C 
ATOM     29  C2' CBI d          -1.619  43.574  10.028  0.00  0.00     0.110 C 
ATOM     30  H12 CBI d          -0.610  44.535  11.666  0.00  0.00     0.133 H 
ATOM     31  C3' CBI d          -3.003  43.192  10.644  0.00  0.00     0.092 C 
ATOM     32  H13 CBI d          -1.367  42.792   9.296  0.00  0.00     0.094 H 
ATOM     33  H14 CBI d          -3.336  44.044  11.256  0.00  0.00     0.091 H 
ATOM     34  H15 CBI d          -2.599  41.056  10.985  0.00  0.00     0.091 H 
BRANCH  25  35
ATOM     35  C6' CBI d          -1.469  40.955  13.531  0.00  0.00     0.043 C 
ATOM     36  H17 CBI d          -1.697  40.047  12.955  0.00  0.00     0.078 H 
ATOM     37  H18 CBI d          -2.133  41.011  14.406  0.00  0.00     0.078 H 
BRANCH  35  38
ATOM     38  O6' CBI d          -0.123  40.895  13.976  0.00  0.00    -0.398 OA
ATOM     39  H22 CBI d           0.074  41.668  14.491  0.00  0.00     0.209 HD
ENDBRANCH  35  38
ENDBRANCH  25  35
BRANCH  28  40
ATOM     40  O1' CBI d           0.809  43.593  10.514  0.00  0.00    -0.369 OA
ATOM     41  H19 CBI d           1.303  42.866  10.873  0.00  0.00     0.212 HD
ENDBRANCH  28  40
BRANCH  29  42
ATOM     42  O2' CBI d          -1.660  44.810   9.339  0.00  0.00    -0.388 OA
ATOM     43  H20 CBI d          -2.034  45.475   9.905  0.00  0.00     0.210 HD
ENDBRANCH  29  42
BRANCH  31  44
ATOM     44  O3' CBI d          -3.998  42.958   9.653  0.00  0.00    -0.390 OA
ATOM     45  H21 CBI d          -3.623  42.450   8.943  0.00  0.00     0.210 HD
ENDBRANCH  31  44
ENDBRANCH   1  24
TORSDOF 12
ENDMDL
MODEL 8
REMARK VINA RESULT:      -2.5      1.729      6.600
REMARK  12 active torsions:
REMARK  status: ('A' for Active; 'I' for Inactive)
REMARK    1  A    between atoms: C1_1  and  O4'_21 
REMARK    2  A    between atoms: C2_2  and  O2_7 
REMARK    3  A    between atoms: C3_3  and  O3_8 
REMARK    4  A    between atoms: C4_4  and  O4_9 
REMARK    5  A    between atoms: C5_5  and  C6_6 
REMARK    6  A    between atoms: C6_6  and  O6_11 
REMARK    7  A    between atoms: C1'_12  and  O1'_18 
REMARK    8  A    between atoms: C2'_13  and  O2'_19 
REMARK    9  A    between atoms: C3'_14  and  O3'_20 
REMARK   10  A    between atoms: O4'_21  and  C4'_15 
REMARK   11  A    between atoms: C5'_16  and  C6'_17 
REMARK   12  A    between atoms: C6'_17  and  O6'_23 
ROOT
ATOM      1  O4' CBI d          -3.467  44.212  11.969  0.00  0.00    -0.348 OA
ENDROOT
BRANCH   1   2
ATOM      2  C1  CBI d          -2.099  43.823  12.003  0.00  0.00     0.159 C 
ATOM      3  O5  CBI d          -1.739  43.180  10.785  0.00  0.00    -0.348 OA
ATOM      4  C5  CBI d          -0.414  42.639  10.635  0.00  0.00     0.089 C 
ATOM      5  C4  CBI d          -0.180  41.534  11.712  0.00  0.00     0.090 C 
ATOM      6  H5  CBI d           0.342  43.428  10.759  0.00  0.00     0.090 H 
ATOM      7  C3  CBI d          -0.496  42.081  13.138  0.00  0.00     0.092 C 
ATOM      8  H4  CBI d          -0.872  40.706  11.502  0.00  0.00     0.091 H 
ATOM      9  C2  CBI d          -1.917  42.751  13.163  0.00  0.00     0.110 C 
ATOM     10  H3  CBI d           0.258  42.829  13.425  0.00  0.00     0.091 H 
ATOM     11  H2  CBI d          -2.665  41.959  13.012  0.00  0.00     0.094 H 
ATOM     12  H1  CBI d          -1.459  44.700  12.178  0.00  0.00     0.133 H 
BRANCH   4  13
ATOM     13  C6  CBI d          -0.365  42.084   9.195  0.00  0.00     0.043 C 
ATOM     14  H6  CBI d          -0.206  42.946   8.532  0.00  0.00     0.078 H 
ATOM     15  H7  CBI d          -1.352  41.643   8.995  0.00  0.00     0.078 H 
BRANCH  13  16
ATOM     16  O6  CBI d           0.595  41.109   8.829  0.00  0.00    -0.398 OA
ATOM     17  H11 CBI d           0.773  40.547   9.574  0.00  0.00     0.209 HD
ENDBRANCH  13  16
ENDBRANCH   4  13
BRANCH   5  18
ATOM     18  O4  CBI d           1.150  41.018  11.658  0.00  0.00    -0.390 OA
ATOM     19  H10 CBI d           1.385  40.659  12.506  0.00  0.00     0.210 HD
ENDBRANCH   5  18
BRANCH   7  20
ATOM     20  O3  CBI d          -0.439  40.972  14.039  0.00  0.00    -0.390 OA
ATOM     21  H9  CBI d           0.130  41.187  14.768  0.00  0.00     0.210 HD
ENDBRANCH   7  20
BRANCH   9  22
ATOM     22  O2  CBI d          -2.153  43.354  14.426  0.00  0.00    -0.388 OA
ATOM     23  H8  CBI d          -3.082  43.530  14.523  0.00  0.00     0.210 HD
ENDBRANCH   9  22
ENDBRANCH   1   2
BRANCH   1  24
ATOM     24  C4' CBI d          -4.423  43.362  12.554  0.00  0.00     0.096 C 
ATOM     25  C5' CBI d          -5.351  42.611  11.506  0.00  0.00     0.089 C 
ATOM     26  O5' CBI d          -6.319  41.786  12.162  0.00  0.00    -0.349 OA
ATOM     27  H16 CBI d          -5.874  43.366  10.899  0.00  0.00     0.090 H 
ATOM     28  C1' CBI d          -7.195  42.429  13.078  0.00  0.00     0.156 C 
ATOM     29  C2' CBI d          -6.473  43.292  14.146  0.00  0.00     0.110 C 
ATOM     30  H12 CBI d          -7.870  43.097  12.522  0.00  0.00     0.133 H 
ATOM     31  C3' CBI d          -5.350  44.190  13.537  0.00  0.00     0.092 C 
ATOM     32  H13 CBI d          -5.986  42.605  14.854  0.00  0.00     0.094 H 
ATOM     33  H14 CBI d          -5.843  44.981  12.951  0.00  0.00     0.091 H 
ATOM     34  H15 CBI d          -3.882  42.601  13.134  0.00  0.00     0.091 H 
BRANCH  25  35
ATOM     35  C6' CBI d          -4.512  41.699  10.573  0.00  0.00     0.043 C 
ATOM     36  H17 CBI d          -5.038  40.742  10.438  0.00  0.00     0.078 H 
ATOM     37  H18 CBI d          -3.532  41.515  11.038  0.00  0.00     0.078 H 
BRANCH  35  38
ATOM     38  O6' CBI d          -4.316  42.300   9.303  0.00  0.00    -0.398 OA
ATOM     39  H22 CBI d          -3.643  41.825   8.830  0.00  0.00     0.209 HD
ENDBRANCH  35  38
ENDBRANCH  25  35
BRANCH  28  40
ATOM     40  O1' CBI d          -7.945  41.368  13.632  0.00  0.00    -0.369 OA
ATOM     41  H19 CBI d          -8.572  41.056  12.990  0.00  0.00     0.212 HD
ENDBRANCH  28  40
BRANCH  29  42
ATOM     42  O2' CBI d          -7.431  44.044  14.868  0.00  0.00    -0.388 OA
ATOM     43  H20 CBI d          -7.154  44.123  15.774  0.00  0.00     0.210 HD
ENDBRANCH  29  42
BRANCH  31  44
ATOM     44  O3' CBI d          -4.554  44.824  14.532  0.00  0.00    -0.390 OA
ATOM     45  H21 CBI d          -3.818  45.259  14.118  0.00  0.00     0.210 HD
ENDBRANCH  31  44
ENDBRANCH   1  24
TORSDOF 12
ENDMDL
MODEL 9
REMARK VINA RESULT:      -2.3      1.768      3.260
REMARK  12 active torsions:
REMARK  status: ('A' for Active; 'I' for Inactive)
REMARK    1  A    between atoms: C1_1  and  O4'_21 
REMARK    2  A    between atoms: C2_2  and  O2_7 
REMARK    3  A    between atoms: C3_3  and  O3_8 
REMARK    4  A    between atoms: C4_4  and  O4_9 
REMARK    5  A    between atoms: C5_5  and  C6_6 
REMARK    6  A    between atoms: C6_6  and  O6_11 
REMARK    7  A    between atoms: C1'_12  and  O1'_18 
REMARK    8  A    between atoms: C2'_13  and  O2'_19 
REMARK    9  A    between atoms: C3'_14  and  O3'_20 
REMARK   10  A    between atoms: O4'_21  and  C4'_15 
REMARK   11  A    between atoms: C5'_16  and  C6'_17 
REMARK   12  A    between atoms: C6'_17  and  O6'_23 
ROOT
ATOM      1  O4' CBI d          -2.278  41.406  11.620  0.00  0.00    -0.348 OA
ENDROOT
BRANCH   1   2
ATOM      2  C1  CBI d          -3.219  42.370  11.161  0.00  0.00     0.159 C 
ATOM      3  O5  CBI d          -4.112  42.727  12.211  0.00  0.00    -0.348 OA
ATOM      4  C5  CBI d          -5.193  43.637  11.942  0.00  0.00     0.089 C 
ATOM      5  C4  CBI d          -6.133  43.021  10.860  0.00  0.00     0.090 C 
ATOM      6  H5  CBI d          -4.805  44.600  11.576  0.00  0.00     0.090 H 
ATOM      7  C3  CBI d          -5.318  42.598   9.600  0.00  0.00     0.092 C 
ATOM      8  H4  CBI d          -6.594  42.119  11.288  0.00  0.00     0.091 H 
ATOM      9  C2  CBI d          -4.097  41.701  10.016  0.00  0.00     0.110 C 
ATOM     10  H3  CBI d          -4.945  43.493   9.081  0.00  0.00     0.091 H 
ATOM     11  H2  CBI d          -4.493  40.752  10.405  0.00  0.00     0.094 H 
ATOM     12  H1  CBI d          -2.696  43.260  10.782  0.00  0.00     0.133 H 
BRANCH   4  13
ATOM     13  C6  CBI d          -5.901  43.836  13.300  0.00  0.00     0.043 C 
ATOM     14  H6  CBI d          -5.245  44.479  13.905  0.00  0.00     0.078 H 
ATOM     15  H7  CBI d          -5.972  42.843  13.765  0.00  0.00     0.078 H 
BRANCH  13  16
ATOM     16  O6  CBI d          -7.195  44.406  13.363  0.00  0.00    -0.398 OA
ATOM     17  H11 CBI d          -7.668  44.204  12.563  0.00  0.00     0.209 HD
ENDBRANCH  13  16
ENDBRANCH   4  13
BRANCH   5  18
ATOM     18  O4  CBI d          -7.182  43.920  10.499  0.00  0.00    -0.390 OA
ATOM     19  H10 CBI d          -7.921  43.793  11.082  0.00  0.00     0.210 HD
ENDBRANCH   5  18
BRANCH   7  20
ATOM     20  O3  CBI d          -6.208  41.881   8.741  0.00  0.00    -0.390 OA
ATOM     21  H9  CBI d          -5.753  41.137   8.365  0.00  0.00     0.210 HD
ENDBRANCH   7  20
BRANCH   9  22
ATOM     22  O2  CBI d          -3.288  41.417   8.884  0.00  0.00    -0.388 OA
ATOM     23  H8  CBI d          -2.560  40.866   9.147  0.00  0.00     0.210 HD
ENDBRANCH   9  22
ENDBRANCH   1   2
BRANCH   1  24
ATOM     24  C4' CBI d          -0.933  41.792  11.757  0.00  0.00     0.096 C 
ATOM     25  C5' CBI d          -0.549  42.304  13.211  0.00  0.00     0.089 C 
ATOM     26  O5' CBI d           0.822  42.708  13.278  0.00  0.00    -0.349 OA
ATOM     27  H16 CBI d          -1.190  43.164  13.458  0.00  0.00     0.090 H 
ATOM     28  C1' CBI d           1.236  43.726  12.376  0.00  0.00     0.156 C 
ATOM     29  C2' CBI d           0.873  43.447  10.895  0.00  0.00     0.110 C 
ATOM     30  H12 CBI d           0.751  44.673  12.657  0.00  0.00     0.133 H 
ATOM     31  C3' CBI d          -0.594  42.940  10.719  0.00  0.00     0.092 C 
ATOM     32  H13 CBI d           1.535  42.645  10.537  0.00  0.00     0.094 H 
ATOM     33  H14 CBI d          -1.262  43.789  10.924  0.00  0.00     0.091 H 
ATOM     34  H15 CBI d          -0.309  40.915  11.532  0.00  0.00     0.091 H 
BRANCH  25  35
ATOM     35  C6' CBI d          -0.762  41.188  14.268  0.00  0.00     0.043 C 
ATOM     36  H17 CBI d          -0.318  41.509  15.222  0.00  0.00     0.078 H 
ATOM     37  H18 CBI d          -0.266  40.269  13.924  0.00  0.00     0.078 H 
BRANCH  35  38
ATOM     38  O6' CBI d          -2.141  40.923  14.467  0.00  0.00    -0.398 OA
ATOM     39  H22 CBI d          -2.263  39.994  14.627  0.00  0.00     0.209 HD
ENDBRANCH  35  38
ENDBRANCH  25  35
BRANCH  28  40
ATOM     40  O1' CBI d           2.627  43.832  12.600  0.00  0.00    -0.369 OA
ATOM     41  H19 CBI d           2.902  43.150  13.201  0.00  0.00     0.212 HD
ENDBRANCH  28  40
BRANCH  29  42
ATOM     42  O2' CBI d           1.139  44.602  10.120  0.00  0.00    -0.388 OA
ATOM     43  H20 CBI d           1.616  44.353   9.336  0.00  0.00     0.210 HD
ENDBRANCH  29  42
BRANCH  31  44
ATOM     44  O3' CBI d          -0.863  42.490   9.395  0.00  0.00    -0.390 OA
ATOM     45  H21 CBI d          -0.163  41.915   9.109  0.00  0.00     0.210 HD
ENDBRANCH  31  44
ENDBRANCH   1  24
TORSDOF 12
ENDMDL
