MODEL 1
REMARK VINA RESULT:      -5.0      0.000      0.000
REMARK  4 active torsions:
REMARK  status: ('A' for Active; 'I' for Inactive)
REMARK    1  A    between atoms: C1_1  and  P1_8 
REMARK    2  A    between atoms: N1_10  and  C1_1 
REMARK    3  A    between atoms: C2_2  and  C3_3 
REMARK    4  A    between atoms: C2_2  and  N1_10 
ROOT
ATOM      1  N1  GPF d          60.287   8.143  29.305  0.00  0.00    -0.053 N 
ATOM      2  H5  GPF d          61.294   8.166  29.296  0.00  0.00     0.278 HD
ATOM      3  H6  GPF d          59.974   7.214  29.544  0.00  0.00     0.278 HD
ENDROOT
BRANCH   1   4
ATOM      4  C1  GPF d          59.844   8.408  27.965  0.00  0.00     0.183 C 
ATOM      5  H1  GPF d          59.600   7.457  27.469  0.00  0.00     0.097 H 
ATOM      6  H2  GPF d          58.948   9.044  27.997  0.00  0.00     0.097 H 
BRANCH   4   7
ATOM      7  P1  GPF d          61.065   9.202  27.086  0.00  0.00     0.285 P 
ATOM      8  O1  GPF d          62.000   9.912  28.038  0.00  0.00    -0.638 OA
ATOM      9  O2  GPF d          60.291  10.138  26.196  0.00  0.00    -0.638 OA
ATOM     10  O3  GPF d          61.805   8.090  26.331  0.00  0.00    -0.638 OA
ENDBRANCH   4   7
ENDBRANCH   1   4
BRANCH   1  11
ATOM     11  C2  GPF d          59.848   9.028  30.365  0.00  0.00     0.161 C 
ATOM     12  H3  GPF d          59.615  10.015  29.939  0.00  0.00     0.092 H 
ATOM     13  H4  GPF d          58.946   8.610  30.836  0.00  0.00     0.092 H 
BRANCH  11  14
ATOM     14  C3  GPF d          60.890   9.171  31.367  0.00  0.00     0.199 C 
ATOM     15  O4  GPF d          61.006   8.262  32.290  0.00  0.00    -0.647 OA
ATOM     16  O5  GPF d          61.588  10.144  31.247  0.00  0.00    -0.647 OA
ENDBRANCH  11  14
ENDBRANCH   1  11
TORSDOF 4
ENDMDL
MODEL 2
REMARK VINA RESULT:      -4.1      0.901      1.261
REMARK  4 active torsions:
REMARK  status: ('A' for Active; 'I' for Inactive)
REMARK    1  A    between atoms: C1_1  and  P1_8 
REMARK    2  A    between atoms: N1_10  and  C1_1 
REMARK    3  A    between atoms: C2_2  and  C3_3 
REMARK    4  A    between atoms: C2_2  and  N1_10 
ROOT
ATOM      1  N1  GPF d          59.873   7.928  29.110  0.00  0.00    -0.053 N 
ATOM      2  H5  GPF d          60.782   7.499  29.034  0.00  0.00     0.278 HD
ATOM      3  H6  GPF d          59.177   7.311  28.720  0.00  0.00     0.278 HD
ENDROOT
BRANCH   1   4
ATOM      4  C1  GPF d          59.894   9.112  28.297  0.00  0.00     0.183 C 
ATOM      5  H1  GPF d          58.869   9.350  27.977  0.00  0.00     0.097 H 
ATOM      6  H2  GPF d          60.298   9.949  28.884  0.00  0.00     0.097 H 
BRANCH   4   7
ATOM      7  P1  GPF d          60.868   8.868  26.923  0.00  0.00     0.285 P 
ATOM      8  O1  GPF d          61.724   7.637  27.116  0.00  0.00    -0.638 OA
ATOM      9  O2  GPF d          61.663  10.144  26.838  0.00  0.00    -0.638 OA
ATOM     10  O3  GPF d          59.884   8.665  25.764  0.00  0.00    -0.638 OA
ENDBRANCH   4   7
ENDBRANCH   1   4
BRANCH   1  11
ATOM     11  C2  GPF d          59.581   8.065  30.522  0.00  0.00     0.161 C 
ATOM     12  H3  GPF d          58.639   8.619  30.645  0.00  0.00     0.092 H 
ATOM     13  H4  GPF d          59.479   7.066  30.970  0.00  0.00     0.092 H 
BRANCH  11  14
ATOM     14  C3  GPF d          60.651   8.784  31.191  0.00  0.00     0.199 C 
ATOM     15  O4  GPF d          61.062   8.364  32.351  0.00  0.00    -0.647 OA
ATOM     16  O5  GPF d          61.088   9.731  30.591  0.00  0.00    -0.647 OA
ENDBRANCH  11  14
ENDBRANCH   1  11
TORSDOF 4
ENDMDL
MODEL 3
REMARK VINA RESULT:      -2.8      0.482      1.687
REMARK  4 active torsions:
REMARK  status: ('A' for Active; 'I' for Inactive)
REMARK    1  A    between atoms: C1_1  and  P1_8 
REMARK    2  A    between atoms: N1_10  and  C1_1 
REMARK    3  A    between atoms: C2_2  and  C3_3 
REMARK    4  A    between atoms: C2_2  and  N1_10 
ROOT
ATOM      1  N1  GPF d          59.765   8.076  29.386  0.00  0.00    -0.053 N 
ATOM      2  H5  GPF d          60.334   7.373  29.830  0.00  0.00     0.278 HD
ATOM      3  H6  GPF d          58.798   7.932  29.634  0.00  0.00     0.278 HD
ENDROOT
BRANCH   1   4
ATOM      4  C1  GPF d          59.873   7.874  27.967  0.00  0.00     0.183 C 
ATOM      5  H1  GPF d          60.251   6.860  27.773  0.00  0.00     0.097 H 
ATOM      6  H2  GPF d          58.881   7.990  27.507  0.00  0.00     0.097 H 
BRANCH   4   7
ATOM      7  P1  GPF d          60.942   9.011  27.289  0.00  0.00     0.285 P 
ATOM      8  O1  GPF d          60.156  10.133  26.650  0.00  0.00    -0.638 OA
ATOM      9  O2  GPF d          61.730   8.192  26.302  0.00  0.00    -0.638 OA
ATOM     10  O3  GPF d          61.771   9.537  28.468  0.00  0.00    -0.638 OA
ENDBRANCH   4   7
ENDBRANCH   1   4
BRANCH   1  11
ATOM     11  C2  GPF d          60.162   9.357  29.933  0.00  0.00     0.161 C 
ATOM     12  H3  GPF d          60.836   9.861  29.224  0.00  0.00     0.092 H 
ATOM     13  H4  GPF d          59.267   9.977  30.091  0.00  0.00     0.092 H 
BRANCH  11  14
ATOM     14  C3  GPF d          60.849   9.174  31.199  0.00  0.00     0.199 C 
ATOM     15  O4  GPF d          61.582  10.144  31.664  0.00  0.00    -0.647 OA
ATOM     16  O5  GPF d          60.667   8.113  31.735  0.00  0.00    -0.647 OA
ENDBRANCH  11  14
ENDBRANCH   1  11
TORSDOF 4
ENDMDL
MODEL 4
REMARK VINA RESULT:      -2.5      1.666      4.243
REMARK  4 active torsions:
REMARK  status: ('A' for Active; 'I' for Inactive)
REMARK    1  A    between atoms: C1_1  and  P1_8 
REMARK    2  A    between atoms: N1_10  and  C1_1 
REMARK    3  A    between atoms: C2_2  and  C3_3 
REMARK    4  A    between atoms: C2_2  and  N1_10 
ROOT
ATOM      1  N1  GPF d          60.150   7.871  28.568  0.00  0.00    -0.053 N 
ATOM      2  H5  GPF d          59.926   6.985  28.144  0.00  0.00     0.278 HD
ATOM      3  H6  GPF d          61.142   8.036  28.499  0.00  0.00     0.278 HD
ENDROOT
BRANCH   1   4
ATOM      4  C1  GPF d          59.833   7.765  29.965  0.00  0.00     0.183 C 
ATOM      5  H1  GPF d          58.745   7.844  30.098  0.00  0.00     0.097 H 
ATOM      6  H2  GPF d          60.178   6.791  30.343  0.00  0.00     0.097 H 
BRANCH   4   7
ATOM      7  P1  GPF d          60.598   9.008  30.840  0.00  0.00     0.285 P 
ATOM      8  O1  GPF d          61.840   9.460  30.106  0.00  0.00    -0.638 OA
ATOM      9  O2  GPF d          60.887   8.363  32.169  0.00  0.00    -0.638 OA
ATOM     10  O3  GPF d          59.568  10.144  30.907  0.00  0.00    -0.638 OA
ENDBRANCH   4   7
ENDBRANCH   1   4
BRANCH   1  11
ATOM     11  C2  GPF d          59.490   8.897  27.787  0.00  0.00     0.161 C 
ATOM     12  H3  GPF d          58.670   8.443  27.210  0.00  0.00     0.092 H 
ATOM     13  H4  GPF d          59.081   9.662  28.464  0.00  0.00     0.092 H 
BRANCH  11  14
ATOM     14  C3  GPF d          60.431   9.520  26.873  0.00  0.00     0.199 C 
ATOM     15  O4  GPF d          61.706   9.368  27.082  0.00  0.00    -0.647 OA
ATOM     16  O5  GPF d          59.936  10.134  25.964  0.00  0.00    -0.647 OA
ENDBRANCH  11  14
ENDBRANCH   1  11
TORSDOF 4
ENDMDL
MODEL 5
REMARK VINA RESULT:      -2.4      1.680      4.151
REMARK  4 active torsions:
REMARK  status: ('A' for Active; 'I' for Inactive)
REMARK    1  A    between atoms: C1_1  and  P1_8 
REMARK    2  A    between atoms: N1_10  and  C1_1 
REMARK    3  A    between atoms: C2_2  and  C3_3 
REMARK    4  A    between atoms: C2_2  and  N1_10 
ROOT
ATOM      1  N1  GPF d          60.160   7.858  28.786  0.00  0.00    -0.053 N 
ATOM      2  H5  GPF d          60.023   6.891  28.534  0.00  0.00     0.278 HD
ATOM      3  H6  GPF d          61.146   8.067  28.794  0.00  0.00     0.278 HD
ENDROOT
BRANCH   1   4
ATOM      4  C1  GPF d          59.681   8.017  30.131  0.00  0.00     0.183 C 
ATOM      5  H1  GPF d          58.684   8.481  30.109  0.00  0.00     0.097 H 
ATOM      6  H2  GPF d          59.616   7.031  30.613  0.00  0.00     0.097 H 
BRANCH   4   7
ATOM      7  P1  GPF d          60.741   9.007  31.021  0.00  0.00     0.285 P 
ATOM      8  O1  GPF d          61.329   8.222  32.171  0.00  0.00    -0.638 OA
ATOM      9  O2  GPF d          59.858  10.144  31.460  0.00  0.00    -0.638 OA
ATOM     10  O3  GPF d          61.839   9.414  30.029  0.00  0.00    -0.638 OA
ENDBRANCH   4   7
ENDBRANCH   1   4
BRANCH   1  11
ATOM     11  C2  GPF d          59.560   8.661  27.740  0.00  0.00     0.161 C 
ATOM     12  H3  GPF d          58.799   8.064  27.216  0.00  0.00     0.092 H 
ATOM     13  H4  GPF d          59.086   9.546  28.190  0.00  0.00     0.092 H 
BRANCH  11  14
ATOM     14  C3  GPF d          60.572   9.090  26.790  0.00  0.00     0.199 C 
ATOM     15  O4  GPF d          61.677   8.409  26.697  0.00  0.00    -0.647 OA
ATOM     16  O5  GPF d          60.287  10.061  26.140  0.00  0.00    -0.647 OA
ENDBRANCH  11  14
ENDBRANCH   1  11
TORSDOF 4
ENDMDL
