REMARK  14 active torsions:
REMARK  status: ('A' for Active; 'I' for Inactive)
REMARK    1  A    between atoms: CA_2  and  N_1 
REMARK    2  A    between atoms: CA_2  and  CB_5 
REMARK    3  A    between atoms: CA_2  and  C_3 
REMARK    4  A    between atoms: CB_5  and  CG_6 
REMARK    5  A    between atoms: CG_6  and  CD_7 
REMARK       I    between atoms: CD_7  and  N_10 
REMARK    6  A    between atoms: N_10  and  CA_11 
REMARK    7  A    between atoms: CA_11  and  CB_12 
REMARK    8  A    between atoms: CA_11  and  C_21 
REMARK    9  A    between atoms: CB_12  and  SG_13 
REMARK   10  A    between atoms: SG_13  and  CD_14 
REMARK   11  A    between atoms: CD_14  and  CE_15 
REMARK       I    between atoms: C_21  and  N_23 
REMARK   12  A    between atoms: N_23  and  CA_24 
REMARK   13  A    between atoms: CA_24  and  CB_25 
REMARK   14  A    between atoms: CA_24  and  C_31 
ROOT
ATOM      1  CA  MOL d          10.472   6.967  27.934  0.00  0.00     0.097 C 
ATOM      2  H10 MOL d           9.786   7.078  27.081  0.00  0.00     0.088 H 
ENDROOT
BRANCH   1   3
ATOM      3  N   MOL d          11.726   7.642  27.628  0.00  0.00    -0.347 N 
ATOM      4  CD  MOL d          12.045   8.046  26.402  0.00  0.00     0.218 C 
ATOM      5  OE1 MOL d          11.293   7.936  25.435  0.00  0.00    -0.274 OA
ATOM      6  H9  MOL d          12.374   7.809  28.371  0.00  0.00     0.163 HD
BRANCH   4   7
ATOM      7  CG  MOL d          13.394   8.708  26.271  0.00  0.00     0.012 C 
ATOM      8  H7  MOL d          13.468   9.500  27.031  0.00  0.00     0.047 H 
ATOM      9  H8  MOL d          14.172   7.952  26.452  0.00  0.00     0.047 H 
BRANCH   7  10
ATOM     10  CB  MOL d          13.635   9.327  24.908  0.00  0.00    -0.021 C 
ATOM     11  H5  MOL d          13.558   8.538  24.145  0.00  0.00     0.037 H 
ATOM     12  H6  MOL d          12.863  10.089  24.727  0.00  0.00     0.037 H 
BRANCH  10  13
ATOM     13  CA  MOL d          15.010   9.987  24.792  0.00  0.00     0.183 C 
ATOM     14  H4  MOL d          15.148  10.659  25.652  0.00  0.00     0.101 H 
BRANCH  13  15
ATOM     15  N   MOL d          15.088  10.798  23.547  0.00  0.00    -0.065 N 
ATOM     16  H1  MOL d          14.352  11.487  23.548  0.00  0.00     0.275 HD
ATOM     17  H2  MOL d          14.982  10.195  22.746  0.00  0.00     0.275 HD
ATOM     18  H3  MOL d          15.982  11.261  23.503  0.00  0.00     0.275 HD
ENDBRANCH  13  15
BRANCH  13  19
ATOM     19  C   MOL d          16.115   8.924  24.830  0.00  0.00     0.204 C 
ATOM     20  O   MOL d          16.520   8.515  25.940  0.00  0.00    -0.646 OA
ATOM     21  OXT MOL d          16.578   8.524  23.744  0.00  0.00    -0.646 OA
ENDBRANCH  13  19
ENDBRANCH  10  13
ENDBRANCH   7  10
ENDBRANCH   4   7
ENDBRANCH   1   3
BRANCH   1  22
ATOM     22  CB  MOL d          10.726   5.484  28.206  0.00  0.00     0.004 C 
ATOM     23  H11 MOL d           9.785   5.040  28.562  0.00  0.00     0.052 H 
ATOM     24  H12 MOL d          11.488   5.411  28.996  0.00  0.00     0.052 H 
BRANCH  22  25
ATOM     25  SG  MOL d          11.291   4.524  26.810  0.00  0.00    -0.162 SA
BRANCH  25  26
ATOM     26  CD  MOL d           9.729   3.804  26.262  0.00  0.00     0.001 C 
ATOM     27  H13 MOL d           9.948   3.033  25.508  0.00  0.00     0.056 H 
ATOM     28  H14 MOL d           9.121   4.600  25.807  0.00  0.00     0.056 H 
BRANCH  26  29
ATOM     29  CE  MOL d           8.930   3.171  27.370  0.00  0.00    -0.049 A 
ATOM     30  CZ1 MOL d           7.640   3.614  27.650  0.00  0.00    -0.076 A 
ATOM     31  CT1 MOL d           6.893   3.037  28.673  0.00  0.00    -0.082 A 
ATOM     32  H15 MOL d           7.212   4.419  27.064  0.00  0.00     0.084 H 
ATOM     33  CH  MOL d           7.437   2.001  29.430  0.00  0.00    -0.083 A 
ATOM     34  H17 MOL d           5.890   3.393  28.880  0.00  0.00     0.083 H 
ATOM     35  CT2 MOL d           8.723   1.550  29.161  0.00  0.00    -0.082 A 
ATOM     36  H19 MOL d           6.858   1.548  30.227  0.00  0.00     0.083 H 
ATOM     37  CZ2 MOL d           9.464   2.135  28.133  0.00  0.00    -0.076 A 
ATOM     38  H18 MOL d           9.150   0.745  29.748  0.00  0.00     0.083 H 
ATOM     39  H16 MOL d          10.467   1.779  27.926  0.00  0.00     0.084 H 
ENDBRANCH  26  29
ENDBRANCH  25  26
ENDBRANCH  22  25
ENDBRANCH   1  22
BRANCH   1  40
ATOM     40  C   MOL d           9.834   7.550  29.180  0.00  0.00     0.242 C 
ATOM     41  O   MOL d          10.522   8.023  30.084  0.00  0.00    -0.271 OA
ATOM     42  N   MOL d           8.512   7.468  29.229  0.00  0.00    -0.341 N 
ATOM     43  H20 MOL d           8.027   7.069  28.451  0.00  0.00     0.163 HD
BRANCH  42  44
ATOM     44  CA  MOL d           7.740   7.933  30.366  0.00  0.00     0.122 C 
ATOM     45  H21 MOL d           8.398   7.787  31.236  0.00  0.00     0.097 H 
BRANCH  44  46
ATOM     46  CB  MOL d           6.555   7.062  30.633  0.00  0.00    -0.025 A 
ATOM     47  CG1 MOL d           5.330   7.315  30.027  0.00  0.00    -0.074 A 
ATOM     48  CD1 MOL d           4.250   6.459  30.220  0.00  0.00    -0.082 A 
ATOM     49  H22 MOL d           5.215   8.189  29.397  0.00  0.00     0.084 H 
ATOM     50  CE  MOL d           4.392   5.339  31.027  0.00  0.00    -0.083 A 
ATOM     51  H24 MOL d           3.300   6.667  29.741  0.00  0.00     0.083 H 
ATOM     52  CD2 MOL d           5.611   5.081  31.640  0.00  0.00    -0.082 A 
ATOM     53  H26 MOL d           3.554   4.668  31.178  0.00  0.00     0.083 H 
ATOM     54  CG2 MOL d           6.683   5.941  31.441  0.00  0.00    -0.074 A 
ATOM     55  H25 MOL d           5.726   4.209  32.273  0.00  0.00     0.083 H 
ATOM     56  H23 MOL d           7.632   5.734  31.923  0.00  0.00     0.084 H 
ENDBRANCH  44  46
BRANCH  44  57
ATOM     57  C   MOL d           7.452   9.433  30.354  0.00  0.00     0.201 C 
ATOM     58  O   MOL d           7.116   9.957  31.433  0.00  0.00    -0.646 OA
ATOM     59  OXT MOL d           7.569  10.068  29.284  0.00  0.00    -0.646 OA
ENDBRANCH  44  57
ENDBRANCH  42  44
ENDBRANCH   1  40
TORSDOF 14
