MODEL 1
REMARK VINA RESULT:      -7.9      0.000      0.000
REMARK  14 active torsions:
REMARK  status: ('A' for Active; 'I' for Inactive)
REMARK    1  A    between atoms: CA_2  and  N_1 
REMARK    2  A    between atoms: CA_2  and  CB_5 
REMARK    3  A    between atoms: CA_2  and  C_3 
REMARK    4  A    between atoms: CB_5  and  CG_6 
REMARK    5  A    between atoms: CG_6  and  CD_7 
REMARK       I    between atoms: CD_7  and  N_10 
REMARK    6  A    between atoms: N_10  and  CA_11 
REMARK    7  A    between atoms: CA_11  and  CB_12 
REMARK    8  A    between atoms: CA_11  and  C_21 
REMARK    9  A    between atoms: CB_12  and  SG_13 
REMARK   10  A    between atoms: SG_13  and  CD_14 
REMARK   11  A    between atoms: CD_14  and  CE_15 
REMARK       I    between atoms: C_21  and  N_23 
REMARK   12  A    between atoms: N_23  and  CA_24 
REMARK   13  A    between atoms: CA_24  and  CB_25 
REMARK   14  A    between atoms: CA_24  and  C_31 
ROOT
ATOM      1  CA  MOL d          10.274   6.351  27.366  0.00  0.00     0.097 C 
ATOM      2  H10 MOL d           9.627   6.467  26.484  0.00  0.00     0.088 H 
ENDROOT
BRANCH   1   3
ATOM      3  N   MOL d          11.474   7.157  27.186  0.00  0.00    -0.347 N 
ATOM      4  CD  MOL d          11.935   7.503  25.988  0.00  0.00     0.218 C 
ATOM      5  OE1 MOL d          11.364   7.223  24.935  0.00  0.00    -0.274 OA
ATOM      6  H9  MOL d          11.972   7.463  27.998  0.00  0.00     0.163 HD
BRANCH   4   7
ATOM      7  CG  MOL d          13.202   8.322  25.996  0.00  0.00     0.012 C 
ATOM      8  H7  MOL d          13.115   9.089  26.779  0.00  0.00     0.047 H 
ATOM      9  H8  MOL d          14.046   7.656  26.226  0.00  0.00     0.047 H 
BRANCH   7  10
ATOM     10  CB  MOL d          13.483   9.014  24.676  0.00  0.00    -0.021 C 
ATOM     11  H5  MOL d          13.557   8.250  23.887  0.00  0.00     0.037 H 
ATOM     12  H6  MOL d          12.649   9.694  24.451  0.00  0.00     0.037 H 
BRANCH  10  13
ATOM     13  CA  MOL d          14.781   9.822  24.697  0.00  0.00     0.183 C 
ATOM     14  H4  MOL d          14.785  10.454  25.597  0.00  0.00     0.101 H 
BRANCH  13  15
ATOM     15  N   MOL d          14.855  10.708  23.503  0.00  0.00    -0.065 N 
ATOM     16  H1  MOL d          15.374  11.541  23.734  0.00  0.00     0.275 HD
ATOM     17  H2  MOL d          13.922  10.963  23.216  0.00  0.00     0.275 HD
ATOM     18  H3  MOL d          15.317  10.222  22.752  0.00  0.00     0.275 HD
ENDBRANCH  13  15
BRANCH  13  19
ATOM     19  C   MOL d          15.992   8.883  24.764  0.00  0.00     0.204 C 
ATOM     20  O   MOL d          16.361   8.454  25.879  0.00  0.00    -0.646 OA
ATOM     21  OXT MOL d          16.571   8.600  23.697  0.00  0.00    -0.646 OA
ENDBRANCH  13  19
ENDBRANCH  10  13
ENDBRANCH   7  10
ENDBRANCH   4   7
ENDBRANCH   1   3
BRANCH   1  22
ATOM     22  CB  MOL d          10.651   4.880  27.544  0.00  0.00     0.004 C 
ATOM     23  H11 MOL d          10.640   4.656  28.621  0.00  0.00     0.052 H 
ATOM     24  H12 MOL d          11.669   4.742  27.151  0.00  0.00     0.052 H 
BRANCH  22  25
ATOM     25  SG  MOL d           9.585   3.701  26.730  0.00  0.00    -0.162 SA
BRANCH  25  26
ATOM     26  CD  MOL d           9.278   4.566  25.175  0.00  0.00     0.001 C 
ATOM     27  H13 MOL d           9.486   3.874  24.346  0.00  0.00     0.056 H 
ATOM     28  H14 MOL d           9.962   5.426  25.116  0.00  0.00     0.056 H 
BRANCH  26  29
ATOM     29  CE  MOL d           7.867   5.071  25.029  0.00  0.00    -0.049 A 
ATOM     30  CZ1 MOL d           6.937   4.866  26.045  0.00  0.00    -0.076 A 
ATOM     31  CT1 MOL d           5.629   5.327  25.919  0.00  0.00    -0.082 A 
ATOM     32  H15 MOL d           7.234   4.339  26.944  0.00  0.00     0.084 H 
ATOM     33  CH  MOL d           5.240   6.006  24.766  0.00  0.00    -0.083 A 
ATOM     34  H17 MOL d           4.916   5.159  26.718  0.00  0.00     0.083 H 
ATOM     35  CT2 MOL d           6.159   6.217  23.746  0.00  0.00    -0.082 A 
ATOM     36  H19 MOL d           4.223   6.368  24.665  0.00  0.00     0.083 H 
ATOM     37  CZ2 MOL d           7.467   5.751  23.881  0.00  0.00    -0.076 A 
ATOM     38  H18 MOL d           5.860   6.744  22.847  0.00  0.00     0.083 H 
ATOM     39  H16 MOL d           8.181   5.919  23.082  0.00  0.00     0.084 H 
ENDBRANCH  26  29
ENDBRANCH  25  26
ENDBRANCH  22  25
ENDBRANCH   1  22
BRANCH   1  40
ATOM     40  C   MOL d           9.519   6.776  28.611  0.00  0.00     0.242 C 
ATOM     41  O   MOL d          10.019   7.554  29.423  0.00  0.00    -0.271 OA
ATOM     42  N   MOL d           8.327   6.218  28.766  0.00  0.00    -0.341 N 
ATOM     43  H20 MOL d           7.993   5.595  28.059  0.00  0.00     0.163 HD
BRANCH  42  44
ATOM     44  CA  MOL d           7.487   6.474  29.921  0.00  0.00     0.122 C 
ATOM     45  H21 MOL d           8.155   6.940  30.662  0.00  0.00     0.097 H 
BRANCH  44  46
ATOM     46  CB  MOL d           7.023   5.209  30.569  0.00  0.00    -0.025 A 
ATOM     47  CG1 MOL d           7.379   3.968  30.052  0.00  0.00    -0.074 A 
ATOM     48  CD1 MOL d           7.007   2.794  30.699  0.00  0.00    -0.082 A 
ATOM     49  H22 MOL d           7.952   3.916  29.134  0.00  0.00     0.084 H 
ATOM     50  CE  MOL d           6.272   2.856  31.875  0.00  0.00    -0.083 A 
ATOM     51  H24 MOL d           7.292   1.833  30.286  0.00  0.00     0.083 H 
ATOM     52  CD2 MOL d           5.909   4.091  32.396  0.00  0.00    -0.082 A 
ATOM     53  H26 MOL d           5.983   1.944  32.384  0.00  0.00     0.083 H 
ATOM     54  CG2 MOL d           6.285   5.257  31.743  0.00  0.00    -0.074 A 
ATOM     55  H25 MOL d           5.333   4.145  33.312  0.00  0.00     0.083 H 
ATOM     56  H23 MOL d           5.997   6.218  32.155  0.00  0.00     0.084 H 
ENDBRANCH  44  46
BRANCH  44  57
ATOM     57  C   MOL d           6.397   7.516  29.682  0.00  0.00     0.201 C 
ATOM     58  O   MOL d           6.508   8.604  30.280  0.00  0.00    -0.646 OA
ATOM     59  OXT MOL d           5.455   7.248  28.906  0.00  0.00    -0.646 OA
ENDBRANCH  44  57
ENDBRANCH  42  44
ENDBRANCH   1  40
TORSDOF 14
ENDMDL
MODEL 2
REMARK VINA RESULT:      -7.0      2.060      2.916
REMARK  14 active torsions:
REMARK  status: ('A' for Active; 'I' for Inactive)
REMARK    1  A    between atoms: CA_2  and  N_1 
REMARK    2  A    between atoms: CA_2  and  CB_5 
REMARK    3  A    between atoms: CA_2  and  C_3 
REMARK    4  A    between atoms: CB_5  and  CG_6 
REMARK    5  A    between atoms: CG_6  and  CD_7 
REMARK       I    between atoms: CD_7  and  N_10 
REMARK    6  A    between atoms: N_10  and  CA_11 
REMARK    7  A    between atoms: CA_11  and  CB_12 
REMARK    8  A    between atoms: CA_11  and  C_21 
REMARK    9  A    between atoms: CB_12  and  SG_13 
REMARK   10  A    between atoms: SG_13  and  CD_14 
REMARK   11  A    between atoms: CD_14  and  CE_15 
REMARK       I    between atoms: C_21  and  N_23 
REMARK   12  A    between atoms: N_23  and  CA_24 
REMARK   13  A    between atoms: CA_24  and  CB_25 
REMARK   14  A    between atoms: CA_24  and  C_31 
ROOT
ATOM      1  CA  MOL d          10.230   6.781  27.016  0.00  0.00     0.097 C 
ATOM      2  H10 MOL d           9.369   6.788  26.330  0.00  0.00     0.088 H 
ENDROOT
BRANCH   1   3
ATOM      3  N   MOL d          11.300   7.589  26.445  0.00  0.00    -0.347 N 
ATOM      4  CD  MOL d          11.253   8.073  25.208  0.00  0.00     0.218 C 
ATOM      5  OE1 MOL d          10.287   7.931  24.460  0.00  0.00    -0.274 OA
ATOM      6  H9  MOL d          12.102   7.787  27.007  0.00  0.00     0.163 HD
BRANCH   4   7
ATOM      7  CG  MOL d          12.461   8.870  24.780  0.00  0.00     0.012 C 
ATOM      8  H7  MOL d          12.813   8.476  23.815  0.00  0.00     0.047 H 
ATOM      9  H8  MOL d          12.160   9.921  24.660  0.00  0.00     0.047 H 
BRANCH   7  10
ATOM     10  CB  MOL d          13.607   8.809  25.771  0.00  0.00    -0.021 C 
ATOM     11  H5  MOL d          13.244   9.155  26.750  0.00  0.00     0.037 H 
ATOM     12  H6  MOL d          13.946   7.766  25.852  0.00  0.00     0.037 H 
BRANCH  10  13
ATOM     13  CA  MOL d          14.795   9.678  25.355  0.00  0.00     0.183 C 
ATOM     14  H4  MOL d          15.184  10.188  26.249  0.00  0.00     0.101 H 
BRANCH  13  15
ATOM     15  N   MOL d          14.359  10.714  24.380  0.00  0.00    -0.065 N 
ATOM     16  H1  MOL d          14.765  11.602  24.628  0.00  0.00     0.275 HD
ATOM     17  H2  MOL d          13.354  10.788  24.396  0.00  0.00     0.275 HD
ATOM     18  H3  MOL d          14.662  10.453  23.455  0.00  0.00     0.275 HD
ENDBRANCH  13  15
BRANCH  13  19
ATOM     19  C   MOL d          15.914   8.806  24.773  0.00  0.00     0.204 C 
ATOM     20  O   MOL d          16.518   8.016  25.530  0.00  0.00    -0.646 OA
ATOM     21  OXT MOL d          16.188   8.937  23.564  0.00  0.00    -0.646 OA
ENDBRANCH  13  19
ENDBRANCH  10  13
ENDBRANCH   7  10
ENDBRANCH   4   7
ENDBRANCH   1   3
BRANCH   1  22
ATOM     22  CB  MOL d          10.712   5.346  27.230  0.00  0.00     0.004 C 
ATOM     23  H11 MOL d          11.057   5.258  28.271  0.00  0.00     0.052 H 
ATOM     24  H12 MOL d          11.555   5.167  26.547  0.00  0.00     0.052 H 
BRANCH  22  25
ATOM     25  SG  MOL d           9.497   4.068  26.946  0.00  0.00    -0.162 SA
BRANCH  25  26
ATOM     26  CD  MOL d           9.267   3.463  28.631  0.00  0.00     0.001 C 
ATOM     27  H13 MOL d           9.483   4.286  29.328  0.00  0.00     0.056 H 
ATOM     28  H14 MOL d           9.978   2.641  28.804  0.00  0.00     0.056 H 
BRANCH  26  29
ATOM     29  CE  MOL d           7.878   2.956  28.911  0.00  0.00    -0.049 A 
ATOM     30  CZ1 MOL d           6.832   3.252  28.041  0.00  0.00    -0.076 A 
ATOM     31  CT1 MOL d           5.543   2.789  28.291  0.00  0.00    -0.082 A 
ATOM     32  H15 MOL d           7.023   3.850  27.158  0.00  0.00     0.084 H 
ATOM     33  CH  MOL d           5.289   2.019  29.424  0.00  0.00    -0.083 A 
ATOM     34  H17 MOL d           4.738   3.028  27.604  0.00  0.00     0.083 H 
ATOM     35  CT2 MOL d           6.324   1.717  30.300  0.00  0.00    -0.082 A 
ATOM     36  H19 MOL d           4.287   1.656  29.621  0.00  0.00     0.083 H 
ATOM     37  CZ2 MOL d           7.613   2.185  30.041  0.00  0.00    -0.076 A 
ATOM     38  H18 MOL d           6.131   1.119  31.183  0.00  0.00     0.083 H 
ATOM     39  H16 MOL d           8.418   1.946  30.727  0.00  0.00     0.084 H 
ENDBRANCH  26  29
ENDBRANCH  25  26
ENDBRANCH  22  25
ENDBRANCH   1  22
BRANCH   1  40
ATOM     40  C   MOL d           9.808   7.321  28.368  0.00  0.00     0.242 C 
ATOM     41  O   MOL d          10.638   7.760  29.164  0.00  0.00    -0.271 OA
ATOM     42  N   MOL d           8.511   7.241  28.629  0.00  0.00    -0.341 N 
ATOM     43  H20 MOL d           7.902   6.871  27.927  0.00  0.00     0.163 HD
BRANCH  42  44
ATOM     44  CA  MOL d           7.938   7.667  29.892  0.00  0.00     0.122 C 
ATOM     45  H21 MOL d           8.710   7.446  30.644  0.00  0.00     0.097 H 
BRANCH  44  46
ATOM     46  CB  MOL d           6.767   6.827  30.288  0.00  0.00    -0.025 A 
ATOM     47  CG1 MOL d           5.543   6.955  29.642  0.00  0.00    -0.074 A 
ATOM     48  CD1 MOL d           4.477   6.120  29.964  0.00  0.00    -0.082 A 
ATOM     49  H22 MOL d           5.418   7.714  28.879  0.00  0.00     0.084 H 
ATOM     50  CE  MOL d           4.633   5.147  30.941  0.00  0.00    -0.083 A 
ATOM     51  H24 MOL d           3.528   6.229  29.452  0.00  0.00     0.083 H 
ATOM     52  CD2 MOL d           5.851   5.015  31.595  0.00  0.00    -0.082 A 
ATOM     53  H26 MOL d           3.806   4.493  31.193  0.00  0.00     0.083 H 
ATOM     54  CG2 MOL d           6.908   5.853  31.267  0.00  0.00    -0.074 A 
ATOM     55  H25 MOL d           5.976   4.259  32.361  0.00  0.00     0.083 H 
ATOM     56  H23 MOL d           7.856   5.746  31.782  0.00  0.00     0.084 H 
ENDBRANCH  44  46
BRANCH  44  57
ATOM     57  C   MOL d           7.720   9.175  30.002  0.00  0.00     0.201 C 
ATOM     58  O   MOL d           7.776   9.677  31.141  0.00  0.00    -0.646 OA
ATOM     59  OXT MOL d           7.505   9.838  28.964  0.00  0.00    -0.646 OA
ENDBRANCH  44  57
ENDBRANCH  42  44
ENDBRANCH   1  40
TORSDOF 14
ENDMDL
MODEL 3
REMARK VINA RESULT:      -6.9      2.194      8.106
REMARK  14 active torsions:
REMARK  status: ('A' for Active; 'I' for Inactive)
REMARK    1  A    between atoms: CA_2  and  N_1 
REMARK    2  A    between atoms: CA_2  and  CB_5 
REMARK    3  A    between atoms: CA_2  and  C_3 
REMARK    4  A    between atoms: CB_5  and  CG_6 
REMARK    5  A    between atoms: CG_6  and  CD_7 
REMARK       I    between atoms: CD_7  and  N_10 
REMARK    6  A    between atoms: N_10  and  CA_11 
REMARK    7  A    between atoms: CA_11  and  CB_12 
REMARK    8  A    between atoms: CA_11  and  C_21 
REMARK    9  A    between atoms: CB_12  and  SG_13 
REMARK   10  A    between atoms: SG_13  and  CD_14 
REMARK   11  A    between atoms: CD_14  and  CE_15 
REMARK       I    between atoms: C_21  and  N_23 
REMARK   12  A    between atoms: N_23  and  CA_24 
REMARK   13  A    between atoms: CA_24  and  CB_25 
REMARK   14  A    between atoms: CA_24  and  C_31 
ROOT
ATOM      1  CA  MOL d          12.029   6.889  26.340  0.00  0.00     0.097 C 
ATOM      2  H10 MOL d          12.553   5.994  26.707  0.00  0.00     0.088 H 
ENDROOT
BRANCH   1   3
ATOM      3  N   MOL d          11.076   7.330  27.349  0.00  0.00    -0.347 N 
ATOM      4  CD  MOL d          10.684   6.555  28.356  0.00  0.00     0.218 C 
ATOM      5  OE1 MOL d          11.128   5.426  28.555  0.00  0.00    -0.274 OA
ATOM      6  H9  MOL d          10.701   8.255  27.283  0.00  0.00     0.163 HD
BRANCH   4   7
ATOM      7  CG  MOL d           9.675   7.174  29.292  0.00  0.00     0.012 C 
ATOM      8  H7  MOL d          10.028   7.034  30.325  0.00  0.00     0.047 H 
ATOM      9  H8  MOL d           9.608   8.249  29.070  0.00  0.00     0.047 H 
BRANCH   7  10
ATOM     10  CB  MOL d           8.289   6.572  29.172  0.00  0.00    -0.021 C 
ATOM     11  H5  MOL d           8.235   5.997  28.236  0.00  0.00     0.037 H 
ATOM     12  H6  MOL d           8.123   5.900  30.026  0.00  0.00     0.037 H 
BRANCH  10  13
ATOM     13  CA  MOL d           7.183   7.630  29.161  0.00  0.00     0.183 C 
ATOM     14  H4  MOL d           6.382   7.289  28.488  0.00  0.00     0.101 H 
BRANCH  13  15
ATOM     15  N   MOL d           7.712   8.921  28.644  0.00  0.00    -0.065 N 
ATOM     16  H1  MOL d           7.279   9.684  29.140  0.00  0.00     0.275 HD
ATOM     17  H2  MOL d           7.504   9.000  27.661  0.00  0.00     0.275 HD
ATOM     18  H3  MOL d           8.710   8.954  28.781  0.00  0.00     0.275 HD
ENDBRANCH  13  15
BRANCH  13  19
ATOM     19  C   MOL d           6.592   7.796  30.566  0.00  0.00     0.204 C 
ATOM     20  O   MOL d           6.233   8.935  30.938  0.00  0.00    -0.646 OA
ATOM     21  OXT MOL d           6.513   6.785  31.290  0.00  0.00    -0.646 OA
ENDBRANCH  13  19
ENDBRANCH  10  13
ENDBRANCH   7  10
ENDBRANCH   4   7
ENDBRANCH   1   3
BRANCH   1  22
ATOM     22  CB  MOL d          11.301   6.565  25.035  0.00  0.00     0.004 C 
ATOM     23  H11 MOL d          11.357   5.478  24.878  0.00  0.00     0.052 H 
ATOM     24  H12 MOL d          11.825   7.081  24.218  0.00  0.00     0.052 H 
BRANCH  22  25
ATOM     25  SG  MOL d           9.580   7.039  24.968  0.00  0.00    -0.162 SA
BRANCH  25  26
ATOM     26  CD  MOL d           8.829   5.462  24.512  0.00  0.00     0.001 C 
ATOM     27  H13 MOL d           9.585   4.856  23.990  0.00  0.00     0.056 H 
ATOM     28  H14 MOL d           7.986   5.662  23.834  0.00  0.00     0.056 H 
BRANCH  26  29
ATOM     29  CE  MOL d           8.317   4.672  25.687  0.00  0.00    -0.049 A 
ATOM     30  CZ1 MOL d           7.004   4.831  26.124  0.00  0.00    -0.076 A 
ATOM     31  CT1 MOL d           6.520   4.107  27.210  0.00  0.00    -0.082 A 
ATOM     32  H15 MOL d           6.351   5.529  25.613  0.00  0.00     0.084 H 
ATOM     33  CH  MOL d           7.355   3.208  27.871  0.00  0.00    -0.083 A 
ATOM     34  H17 MOL d           5.497   4.242  27.540  0.00  0.00     0.083 H 
ATOM     35  CT2 MOL d           8.666   3.039  27.445  0.00  0.00    -0.082 A 
ATOM     36  H19 MOL d           6.981   2.640  28.717  0.00  0.00     0.083 H 
ATOM     37  CZ2 MOL d           9.142   3.770  26.355  0.00  0.00    -0.076 A 
ATOM     38  H18 MOL d           9.318   2.341  27.957  0.00  0.00     0.083 H 
ATOM     39  H16 MOL d          10.166   3.635  26.026  0.00  0.00     0.084 H 
ENDBRANCH  26  29
ENDBRANCH  25  26
ENDBRANCH  22  25
ENDBRANCH   1  22
BRANCH   1  40
ATOM     40  C   MOL d          13.037   7.979  26.034  0.00  0.00     0.242 C 
ATOM     41  O   MOL d          12.678   9.067  25.583  0.00  0.00    -0.271 OA
ATOM     42  N   MOL d          14.304   7.654  26.246  0.00  0.00    -0.341 N 
ATOM     43  H20 MOL d          14.511   6.748  26.615  0.00  0.00     0.163 HD
BRANCH  42  44
ATOM     44  CA  MOL d          15.403   8.558  25.963  0.00  0.00     0.122 C 
ATOM     45  H21 MOL d          16.312   7.980  26.188  0.00  0.00     0.097 H 
BRANCH  44  46
ATOM     46  CB  MOL d          15.439   9.711  26.914  0.00  0.00    -0.025 A 
ATOM     47  CG1 MOL d          15.943   9.561  28.201  0.00  0.00    -0.074 A 
ATOM     48  CD1 MOL d          16.043  10.653  29.058  0.00  0.00    -0.082 A 
ATOM     49  H22 MOL d          16.261   8.583  28.541  0.00  0.00     0.084 H 
ATOM     50  CE  MOL d          15.636  11.908  28.627  0.00  0.00    -0.083 A 
ATOM     51  H24 MOL d          16.439  10.524  30.059  0.00  0.00     0.083 H 
ATOM     52  CD2 MOL d          15.127  12.066  27.345  0.00  0.00    -0.082 A 
ATOM     53  H26 MOL d          15.715  12.762  29.290  0.00  0.00     0.083 H 
ATOM     54  CG2 MOL d          15.031  10.970  26.498  0.00  0.00    -0.074 A 
ATOM     55  H25 MOL d          14.805  13.043  27.005  0.00  0.00     0.083 H 
ATOM     56  H23 MOL d          14.632  11.100  25.498  0.00  0.00     0.084 H 
ENDBRANCH  44  46
BRANCH  44  57
ATOM     57  C   MOL d          15.542   8.930  24.489  0.00  0.00     0.201 C 
ATOM     58  O   MOL d          16.572   8.549  23.900  0.00  0.00    -0.646 OA
ATOM     59  OXT MOL d          14.632   9.584  23.936  0.00  0.00    -0.646 OA
ENDBRANCH  44  57
ENDBRANCH  42  44
ENDBRANCH   1  40
TORSDOF 14
ENDMDL
MODEL 4
REMARK VINA RESULT:      -6.9      3.197      6.380
REMARK  14 active torsions:
REMARK  status: ('A' for Active; 'I' for Inactive)
REMARK    1  A    between atoms: CA_2  and  N_1 
REMARK    2  A    between atoms: CA_2  and  CB_5 
REMARK    3  A    between atoms: CA_2  and  C_3 
REMARK    4  A    between atoms: CB_5  and  CG_6 
REMARK    5  A    between atoms: CG_6  and  CD_7 
REMARK       I    between atoms: CD_7  and  N_10 
REMARK    6  A    between atoms: N_10  and  CA_11 
REMARK    7  A    between atoms: CA_11  and  CB_12 
REMARK    8  A    between atoms: CA_11  and  C_21 
REMARK    9  A    between atoms: CB_12  and  SG_13 
REMARK   10  A    between atoms: SG_13  and  CD_14 
REMARK   11  A    between atoms: CD_14  and  CE_15 
REMARK       I    between atoms: C_21  and  N_23 
REMARK   12  A    between atoms: N_23  and  CA_24 
REMARK   13  A    between atoms: CA_24  and  CB_25 
REMARK   14  A    between atoms: CA_24  and  C_31 
ROOT
ATOM      1  CA  MOL d           6.365   2.071  28.734  0.00  0.00     0.097 C 
ATOM      2  H10 MOL d           6.456   1.143  28.150  0.00  0.00     0.088 H 
ENDROOT
BRANCH   1   3
ATOM      3  N   MOL d           7.662   2.733  28.781  0.00  0.00    -0.347 N 
ATOM      4  CD  MOL d           8.749   2.228  28.206  0.00  0.00     0.218 C 
ATOM      5  OE1 MOL d           8.746   1.193  27.542  0.00  0.00    -0.274 OA
ATOM      6  H9  MOL d           7.738   3.605  29.265  0.00  0.00     0.163 HD
BRANCH   4   7
ATOM      7  CG  MOL d          10.007   3.042  28.376  0.00  0.00     0.012 C 
ATOM      8  H7  MOL d          10.445   2.805  29.357  0.00  0.00     0.047 H 
ATOM      9  H8  MOL d          10.714   2.762  27.581  0.00  0.00     0.047 H 
BRANCH   7  10
ATOM     10  CB  MOL d           9.774   4.539  28.304  0.00  0.00    -0.021 C 
ATOM     11  H5  MOL d           9.186   4.760  27.401  0.00  0.00     0.037 H 
ATOM     12  H6  MOL d           9.210   4.850  29.195  0.00  0.00     0.037 H 
BRANCH  10  13
ATOM     13  CA  MOL d          11.077   5.339  28.247  0.00  0.00     0.183 C 
ATOM     14  H4  MOL d          11.790   4.895  28.957  0.00  0.00     0.101 H 
BRANCH  13  15
ATOM     15  N   MOL d          10.832   6.750  28.651  0.00  0.00    -0.065 N 
ATOM     16  H1  MOL d          10.435   6.771  29.577  0.00  0.00     0.275 HD
ATOM     17  H2  MOL d          10.191   7.179  28.001  0.00  0.00     0.275 HD
ATOM     18  H3  MOL d          11.703   7.257  28.647  0.00  0.00     0.275 HD
ENDBRANCH  13  15
BRANCH  13  19
ATOM     19  C   MOL d          11.687   5.263  26.842  0.00  0.00     0.204 C 
ATOM     20  O   MOL d          11.062   5.770  25.885  0.00  0.00    -0.646 OA
ATOM     21  OXT MOL d          12.780   4.678  26.710  0.00  0.00    -0.646 OA
ENDBRANCH  13  19
ENDBRANCH  10  13
ENDBRANCH   7  10
ENDBRANCH   4   7
ENDBRANCH   1   3
BRANCH   1  22
ATOM     22  CB  MOL d           5.888   1.749  30.150  0.00  0.00     0.004 C 
ATOM     23  H11 MOL d           6.136   0.698  30.359  0.00  0.00     0.052 H 
ATOM     24  H12 MOL d           4.797   1.881  30.177  0.00  0.00     0.052 H 
BRANCH  22  25
ATOM     25  SG  MOL d           6.593   2.746  31.453  0.00  0.00    -0.162 SA
BRANCH  25  26
ATOM     26  CD  MOL d           5.300   3.992  31.639  0.00  0.00     0.001 C 
ATOM     27  H13 MOL d           4.974   3.999  32.690  0.00  0.00     0.056 H 
ATOM     28  H14 MOL d           4.454   3.712  30.994  0.00  0.00     0.056 H 
BRANCH  26  29
ATOM     29  CE  MOL d           5.739   5.384  31.270  0.00  0.00    -0.049 A 
ATOM     30  CZ1 MOL d           6.946   5.588  30.606  0.00  0.00    -0.076 A 
ATOM     31  CT1 MOL d           7.362   6.871  30.260  0.00  0.00    -0.082 A 
ATOM     32  H15 MOL d           7.569   4.738  30.355  0.00  0.00     0.084 H 
ATOM     33  CH  MOL d           6.565   7.969  30.579  0.00  0.00    -0.083 A 
ATOM     34  H17 MOL d           8.305   7.015  29.744  0.00  0.00     0.083 H 
ATOM     35  CT2 MOL d           5.359   7.778  31.242  0.00  0.00    -0.082 A 
ATOM     36  H19 MOL d           6.885   8.969  30.311  0.00  0.00     0.083 H 
ATOM     37  CZ2 MOL d           4.950   6.488  31.584  0.00  0.00    -0.076 A 
ATOM     38  H18 MOL d           4.737   8.629  31.493  0.00  0.00     0.083 H 
ATOM     39  H16 MOL d           4.008   6.344  32.100  0.00  0.00     0.084 H 
ENDBRANCH  26  29
ENDBRANCH  25  26
ENDBRANCH  22  25
ENDBRANCH   1  22
BRANCH   1  40
ATOM     40  C   MOL d           5.321   2.971  28.101  0.00  0.00     0.242 C 
ATOM     41  O   MOL d           4.138   2.635  28.054  0.00  0.00    -0.271 OA
ATOM     42  N   MOL d           5.787   4.097  27.579  0.00  0.00    -0.341 N 
ATOM     43  H20 MOL d           6.763   4.295  27.661  0.00  0.00     0.163 HD
BRANCH  42  44
ATOM     44  CA  MOL d           4.937   5.053  26.895  0.00  0.00     0.122 C 
ATOM     45  H21 MOL d           4.028   4.490  26.633  0.00  0.00     0.097 H 
BRANCH  44  46
ATOM     46  CB  MOL d           5.514   5.476  25.582  0.00  0.00    -0.025 A 
ATOM     47  CG1 MOL d           4.731   6.117  24.630  0.00  0.00    -0.074 A 
ATOM     48  CD1 MOL d           5.289   6.576  23.440  0.00  0.00    -0.082 A 
ATOM     49  H22 MOL d           3.673   6.261  24.815  0.00  0.00     0.084 H 
ATOM     50  CE  MOL d           6.643   6.393  23.197  0.00  0.00    -0.083 A 
ATOM     51  H24 MOL d           4.667   7.075  22.706  0.00  0.00     0.083 H 
ATOM     52  CD2 MOL d           7.432   5.750  24.142  0.00  0.00    -0.082 A 
ATOM     53  H26 MOL d           7.083   6.751  22.274  0.00  0.00     0.083 H 
ATOM     54  CG2 MOL d           6.866   5.296  25.326  0.00  0.00    -0.074 A 
ATOM     55  H25 MOL d           8.490   5.603  23.955  0.00  0.00     0.083 H 
ATOM     56  H23 MOL d           7.488   4.794  26.059  0.00  0.00     0.084 H 
ENDBRANCH  44  46
BRANCH  44  57
ATOM     57  C   MOL d           4.438   6.192  27.781  0.00  0.00     0.201 C 
ATOM     58  O   MOL d           5.048   7.276  27.712  0.00  0.00    -0.646 OA
ATOM     59  OXT MOL d           3.451   6.001  28.523  0.00  0.00    -0.646 OA
ENDBRANCH  44  57
ENDBRANCH  42  44
ENDBRANCH   1  40
TORSDOF 14
ENDMDL
MODEL 5
REMARK VINA RESULT:      -6.8      2.296      8.323
REMARK  14 active torsions:
REMARK  status: ('A' for Active; 'I' for Inactive)
REMARK    1  A    between atoms: CA_2  and  N_1 
REMARK    2  A    between atoms: CA_2  and  CB_5 
REMARK    3  A    between atoms: CA_2  and  C_3 
REMARK    4  A    between atoms: CB_5  and  CG_6 
REMARK    5  A    between atoms: CG_6  and  CD_7 
REMARK       I    between atoms: CD_7  and  N_10 
REMARK    6  A    between atoms: N_10  and  CA_11 
REMARK    7  A    between atoms: CA_11  and  CB_12 
REMARK    8  A    between atoms: CA_11  and  C_21 
REMARK    9  A    between atoms: CB_12  and  SG_13 
REMARK   10  A    between atoms: SG_13  and  CD_14 
REMARK   11  A    between atoms: CD_14  and  CE_15 
REMARK       I    between atoms: C_21  and  N_23 
REMARK   12  A    between atoms: N_23  and  CA_24 
REMARK   13  A    between atoms: CA_24  and  CB_25 
REMARK   14  A    between atoms: CA_24  and  C_31 
ROOT
ATOM      1  CA  MOL d          12.157   6.982  26.249  0.00  0.00     0.097 C 
ATOM      2  H10 MOL d          12.685   6.060  26.536  0.00  0.00     0.088 H 
ENDROOT
BRANCH   1   3
ATOM      3  N   MOL d          11.274   7.383  27.336  0.00  0.00    -0.347 N 
ATOM      4  CD  MOL d          10.883   6.545  28.292  0.00  0.00     0.218 C 
ATOM      5  OE1 MOL d          11.273   5.381  28.375  0.00  0.00    -0.274 OA
ATOM      6  H9  MOL d          10.947   8.327  27.365  0.00  0.00     0.163 HD
BRANCH   4   7
ATOM      7  CG  MOL d           9.952   7.131  29.324  0.00  0.00     0.012 C 
ATOM      8  H7  MOL d          10.099   6.592  30.271  0.00  0.00     0.047 H 
ATOM      9  H8  MOL d          10.208   8.192  29.461  0.00  0.00     0.047 H 
BRANCH   7  10
ATOM     10  CB  MOL d           8.488   7.038  28.940  0.00  0.00    -0.021 C 
ATOM     11  H5  MOL d           7.961   7.914  29.347  0.00  0.00     0.037 H 
ATOM     12  H6  MOL d           8.411   7.040  27.843  0.00  0.00     0.037 H 
BRANCH  10  13
ATOM     13  CA  MOL d           7.816   5.772  29.474  0.00  0.00     0.183 C 
ATOM     14  H4  MOL d           8.598   5.084  29.828  0.00  0.00     0.101 H 
BRANCH  13  15
ATOM     15  N   MOL d           7.055   5.096  28.389  0.00  0.00    -0.065 N 
ATOM     16  H1  MOL d           6.552   5.786  27.851  0.00  0.00     0.275 HD
ATOM     17  H2  MOL d           6.401   4.444  28.792  0.00  0.00     0.275 HD
ATOM     18  H3  MOL d           7.695   4.602  27.787  0.00  0.00     0.275 HD
ENDBRANCH  13  15
BRANCH  13  19
ATOM     19  C   MOL d           6.903   6.114  30.659  0.00  0.00     0.204 C 
ATOM     20  O   MOL d           6.244   5.197  31.196  0.00  0.00    -0.646 OA
ATOM     21  OXT MOL d           6.845   7.303  31.027  0.00  0.00    -0.646 OA
ENDBRANCH  13  19
ENDBRANCH  10  13
ENDBRANCH   7  10
ENDBRANCH   4   7
ENDBRANCH   1   3
BRANCH   1  22
ATOM     22  CB  MOL d          11.346   6.740  24.975  0.00  0.00     0.004 C 
ATOM     23  H11 MOL d          11.385   5.665  24.750  0.00  0.00     0.052 H 
ATOM     24  H12 MOL d          11.823   7.304  24.160  0.00  0.00     0.052 H 
BRANCH  22  25
ATOM     25  SG  MOL d           9.629   7.225  25.044  0.00  0.00    -0.162 SA
BRANCH  25  26
ATOM     26  CD  MOL d           8.869   5.837  24.174  0.00  0.00     0.001 C 
ATOM     27  H13 MOL d           8.966   6.012  23.092  0.00  0.00     0.056 H 
ATOM     28  H14 MOL d           7.803   5.800  24.446  0.00  0.00     0.056 H 
BRANCH  26  29
ATOM     29  CE  MOL d           9.489   4.504  24.498  0.00  0.00    -0.049 A 
ATOM     30  CZ1 MOL d           9.439   4.000  25.795  0.00  0.00    -0.076 A 
ATOM     31  CT1 MOL d          10.010   2.770  26.106  0.00  0.00    -0.082 A 
ATOM     32  H15 MOL d           8.949   4.574  26.573  0.00  0.00     0.084 H 
ATOM     33  CH  MOL d          10.641   2.026  25.110  0.00  0.00    -0.083 A 
ATOM     34  H17 MOL d           9.964   2.390  27.120  0.00  0.00     0.083 H 
ATOM     35  CT2 MOL d          10.698   2.518  23.812  0.00  0.00    -0.082 A 
ATOM     36  H19 MOL d          11.086   1.067  25.347  0.00  0.00     0.083 H 
ATOM     37  CZ2 MOL d          10.122   3.753  23.510  0.00  0.00    -0.076 A 
ATOM     38  H18 MOL d          11.188   1.943  23.035  0.00  0.00     0.083 H 
ATOM     39  H16 MOL d          10.168   4.132  22.496  0.00  0.00     0.084 H 
ENDBRANCH  26  29
ENDBRANCH  25  26
ENDBRANCH  22  25
ENDBRANCH   1  22
BRANCH   1  40
ATOM     40  C   MOL d          13.165   8.072  25.941  0.00  0.00     0.242 C 
ATOM     41  O   MOL d          12.807   9.158  25.486  0.00  0.00    -0.271 OA
ATOM     42  N   MOL d          14.432   7.747  26.157  0.00  0.00    -0.341 N 
ATOM     43  H20 MOL d          14.638   6.842  26.529  0.00  0.00     0.163 HD
BRANCH  42  44
ATOM     44  CA  MOL d          15.531   8.651  25.873  0.00  0.00     0.122 C 
ATOM     45  H21 MOL d          16.440   8.063  26.070  0.00  0.00     0.097 H 
BRANCH  44  46
ATOM     46  CB  MOL d          15.590   9.784  26.846  0.00  0.00    -0.025 A 
ATOM     47  CG1 MOL d          15.081  11.035  26.519  0.00  0.00    -0.074 A 
ATOM     48  CD1 MOL d          15.071  12.066  27.454  0.00  0.00    -0.082 A 
ATOM     49  H22 MOL d          14.687  11.209  25.525  0.00  0.00     0.084 H 
ATOM     50  CE  MOL d          15.575  11.848  28.728  0.00  0.00    -0.083 A 
ATOM     51  H24 MOL d          14.670  13.037  27.186  0.00  0.00     0.083 H 
ATOM     52  CD2 MOL d          16.090  10.602  29.062  0.00  0.00    -0.082 A 
ATOM     53  H26 MOL d          15.567  12.648  29.460  0.00  0.00     0.083 H 
ATOM     54  CG2 MOL d          16.095   9.580  28.122  0.00  0.00    -0.074 A 
ATOM     55  H25 MOL d          16.487  10.428  30.055  0.00  0.00     0.083 H 
ATOM     56  H23 MOL d          16.499   8.610  28.389  0.00  0.00     0.084 H 
ENDBRANCH  44  46
BRANCH  44  57
ATOM     57  C   MOL d          15.647   9.051  24.404  0.00  0.00     0.201 C 
ATOM     58  O   MOL d          14.801   9.853  23.964  0.00  0.00    -0.646 OA
ATOM     59  OXT MOL d          16.573   8.575  23.713  0.00  0.00    -0.646 OA
ENDBRANCH  44  57
ENDBRANCH  42  44
ENDBRANCH   1  40
TORSDOF 14
ENDMDL
MODEL 6
REMARK VINA RESULT:      -6.6      3.821      8.121
REMARK  14 active torsions:
REMARK  status: ('A' for Active; 'I' for Inactive)
REMARK    1  A    between atoms: CA_2  and  N_1 
REMARK    2  A    between atoms: CA_2  and  CB_5 
REMARK    3  A    between atoms: CA_2  and  C_3 
REMARK    4  A    between atoms: CB_5  and  CG_6 
REMARK    5  A    between atoms: CG_6  and  CD_7 
REMARK       I    between atoms: CD_7  and  N_10 
REMARK    6  A    between atoms: N_10  and  CA_11 
REMARK    7  A    between atoms: CA_11  and  CB_12 
REMARK    8  A    between atoms: CA_11  and  C_21 
REMARK    9  A    between atoms: CB_12  and  SG_13 
REMARK   10  A    between atoms: SG_13  and  CD_14 
REMARK   11  A    between atoms: CD_14  and  CE_15 
REMARK       I    between atoms: C_21  and  N_23 
REMARK   12  A    between atoms: N_23  and  CA_24 
REMARK   13  A    between atoms: CA_24  and  CB_25 
REMARK   14  A    between atoms: CA_24  and  C_31 
ROOT
ATOM      1  CA  MOL d           6.885   2.309  28.839  0.00  0.00     0.097 C 
ATOM      2  H10 MOL d           6.508   1.279  28.930  0.00  0.00     0.088 H 
ENDROOT
BRANCH   1   3
ATOM      3  N   MOL d           6.732   2.986  30.120  0.00  0.00    -0.347 N 
ATOM      4  CD  MOL d           6.246   2.382  31.200  0.00  0.00     0.218 C 
ATOM      5  OE1 MOL d           5.934   1.193  31.229  0.00  0.00    -0.274 OA
ATOM      6  H9  MOL d           7.005   3.945  30.190  0.00  0.00     0.163 HD
BRANCH   4   7
ATOM      7  CG  MOL d           6.141   3.247  32.431  0.00  0.00     0.012 C 
ATOM      8  H7  MOL d           5.249   2.941  32.997  0.00  0.00     0.047 H 
ATOM      9  H8  MOL d           7.038   3.087  33.047  0.00  0.00     0.047 H 
BRANCH   7  10
ATOM     10  CB  MOL d           6.029   4.728  32.124  0.00  0.00    -0.021 C 
ATOM     11  H5  MOL d           6.695   5.279  32.804  0.00  0.00     0.037 H 
ATOM     12  H6  MOL d           6.347   4.895  31.084  0.00  0.00     0.037 H 
BRANCH  10  13
ATOM     13  CA  MOL d           4.606   5.261  32.292  0.00  0.00     0.183 C 
ATOM     14  H4  MOL d           4.296   5.107  33.336  0.00  0.00     0.101 H 
BRANCH  13  15
ATOM     15  N   MOL d           3.668   4.514  31.411  0.00  0.00    -0.065 N 
ATOM     16  H1  MOL d           3.487   5.054  30.579  0.00  0.00     0.275 HD
ATOM     17  H2  MOL d           2.803   4.352  31.901  0.00  0.00     0.275 HD
ATOM     18  H3  MOL d           4.080   3.630  31.155  0.00  0.00     0.275 HD
ENDBRANCH  13  15
BRANCH  13  19
ATOM     19  C   MOL d           4.563   6.766  31.995  0.00  0.00     0.204 C 
ATOM     20  O   MOL d           5.478   7.271  31.309  0.00  0.00    -0.646 OA
ATOM     21  OXT MOL d           3.620   7.428  32.471  0.00  0.00    -0.646 OA
ENDBRANCH  13  19
ENDBRANCH  10  13
ENDBRANCH   7  10
ENDBRANCH   4   7
ENDBRANCH   1   3
BRANCH   1  22
ATOM     22  CB  MOL d           6.104   3.052  27.755  0.00  0.00     0.004 C 
ATOM     23  H11 MOL d           5.178   2.492  27.560  0.00  0.00     0.052 H 
ATOM     24  H12 MOL d           6.722   3.068  26.845  0.00  0.00     0.052 H 
BRANCH  22  25
ATOM     25  SG  MOL d           5.654   4.737  28.140  0.00  0.00    -0.162 SA
BRANCH  25  26
ATOM     26  CD  MOL d           5.198   5.331  26.497  0.00  0.00     0.001 C 
ATOM     27  H13 MOL d           4.384   6.064  26.606  0.00  0.00     0.056 H 
ATOM     28  H14 MOL d           4.843   4.474  25.905  0.00  0.00     0.056 H 
BRANCH  26  29
ATOM     29  CE  MOL d           6.330   5.987  25.752  0.00  0.00    -0.049 A 
ATOM     30  CZ1 MOL d           6.611   7.337  25.943  0.00  0.00    -0.076 A 
ATOM     31  CT1 MOL d           7.654   7.954  25.258  0.00  0.00    -0.082 A 
ATOM     32  H15 MOL d           6.008   7.916  26.634  0.00  0.00     0.084 H 
ATOM     33  CH  MOL d           8.433   7.215  24.369  0.00  0.00    -0.083 A 
ATOM     34  H17 MOL d           7.860   9.006  25.417  0.00  0.00     0.083 H 
ATOM     35  CT2 MOL d           8.163   5.867  24.169  0.00  0.00    -0.082 A 
ATOM     36  H19 MOL d           9.247   7.691  23.835  0.00  0.00     0.083 H 
ATOM     37  CZ2 MOL d           7.115   5.258  24.861  0.00  0.00    -0.076 A 
ATOM     38  H18 MOL d           8.766   5.290  23.478  0.00  0.00     0.083 H 
ATOM     39  H16 MOL d           6.909   4.205  24.702  0.00  0.00     0.084 H 
ENDBRANCH  26  29
ENDBRANCH  25  26
ENDBRANCH  22  25
ENDBRANCH   1  22
BRANCH   1  40
ATOM     40  C   MOL d           8.339   2.284  28.410  0.00  0.00     0.242 C 
ATOM     41  O   MOL d           9.171   1.619  29.026  0.00  0.00    -0.271 OA
ATOM     42  N   MOL d           8.635   3.052  27.372  0.00  0.00    -0.341 N 
ATOM     43  H20 MOL d           7.898   3.561  26.926  0.00  0.00     0.163 HD
BRANCH  42  44
ATOM     44  CA  MOL d           9.984   3.186  26.855  0.00  0.00     0.122 C 
ATOM     45  H21 MOL d          10.621   2.659  27.582  0.00  0.00     0.097 H 
BRANCH  44  46
ATOM     46  CB  MOL d          10.459   4.603  26.888  0.00  0.00    -0.025 A 
ATOM     47  CG1 MOL d          11.537   5.014  26.113  0.00  0.00    -0.074 A 
ATOM     48  CD1 MOL d          11.929   6.349  26.089  0.00  0.00    -0.082 A 
ATOM     49  H22 MOL d          12.078   4.286  25.520  0.00  0.00     0.084 H 
ATOM     50  CE  MOL d          11.239   7.285  26.847  0.00  0.00    -0.083 A 
ATOM     51  H24 MOL d          12.771   6.657  25.480  0.00  0.00     0.083 H 
ATOM     52  CD2 MOL d          10.164   6.882  27.628  0.00  0.00    -0.082 A 
ATOM     53  H26 MOL d          11.540   8.326  26.830  0.00  0.00     0.083 H 
ATOM     54  CG2 MOL d           9.780   5.547  27.645  0.00  0.00    -0.074 A 
ATOM     55  H25 MOL d           9.624   7.609  28.224  0.00  0.00     0.083 H 
ATOM     56  H23 MOL d           8.940   5.240  28.257  0.00  0.00     0.084 H 
ENDBRANCH  44  46
BRANCH  44  57
ATOM     57  C   MOL d          10.223   2.452  25.537  0.00  0.00     0.201 C 
ATOM     58  O   MOL d          10.739   1.320  25.601  0.00  0.00    -0.646 OA
ATOM     59  OXT MOL d           9.893   3.001  24.464  0.00  0.00    -0.646 OA
ENDBRANCH  44  57
ENDBRANCH  42  44
ENDBRANCH   1  40
TORSDOF 14
ENDMDL
MODEL 7
REMARK VINA RESULT:      -6.5      2.899      4.184
REMARK  14 active torsions:
REMARK  status: ('A' for Active; 'I' for Inactive)
REMARK    1  A    between atoms: CA_2  and  N_1 
REMARK    2  A    between atoms: CA_2  and  CB_5 
REMARK    3  A    between atoms: CA_2  and  C_3 
REMARK    4  A    between atoms: CB_5  and  CG_6 
REMARK    5  A    between atoms: CG_6  and  CD_7 
REMARK       I    between atoms: CD_7  and  N_10 
REMARK    6  A    between atoms: N_10  and  CA_11 
REMARK    7  A    between atoms: CA_11  and  CB_12 
REMARK    8  A    between atoms: CA_11  and  C_21 
REMARK    9  A    between atoms: CB_12  and  SG_13 
REMARK   10  A    between atoms: SG_13  and  CD_14 
REMARK   11  A    between atoms: CD_14  and  CE_15 
REMARK       I    between atoms: C_21  and  N_23 
REMARK   12  A    between atoms: N_23  and  CA_24 
REMARK   13  A    between atoms: CA_24  and  CB_25 
REMARK   14  A    between atoms: CA_24  and  C_31 
ROOT
ATOM      1  CA  MOL d          10.288   8.034  24.184  0.00  0.00     0.097 C 
ATOM      2  H10 MOL d          10.333   9.033  23.727  0.00  0.00     0.088 H 
ENDROOT
BRANCH   1   3
ATOM      3  N   MOL d          11.348   7.916  25.177  0.00  0.00    -0.347 N 
ATOM      4  CD  MOL d          12.598   8.304  24.945  0.00  0.00     0.218 C 
ATOM      5  OE1 MOL d          12.957   8.844  23.899  0.00  0.00    -0.274 OA
ATOM      6  H9  MOL d          11.125   7.526  26.071  0.00  0.00     0.163 HD
BRANCH   4   7
ATOM      7  CG  MOL d          13.564   8.086  26.083  0.00  0.00     0.012 C 
ATOM      8  H7  MOL d          13.057   8.345  27.024  0.00  0.00     0.047 H 
ATOM      9  H8  MOL d          13.847   7.023  26.099  0.00  0.00     0.047 H 
BRANCH   7  10
ATOM     10  CB  MOL d          14.827   8.917  25.973  0.00  0.00    -0.021 C 
ATOM     11  H5  MOL d          15.577   8.511  26.667  0.00  0.00     0.037 H 
ATOM     12  H6  MOL d          15.205   8.847  24.943  0.00  0.00     0.037 H 
BRANCH  10  13
ATOM     13  CA  MOL d          14.596  10.391  26.310  0.00  0.00     0.183 C 
ATOM     14  H4  MOL d          13.571  10.506  26.693  0.00  0.00     0.101 H 
BRANCH  13  15
ATOM     15  N   MOL d          14.735  11.227  25.087  0.00  0.00    -0.065 N 
ATOM     16  H1  MOL d          13.925  11.819  24.990  0.00  0.00     0.275 HD
ATOM     17  H2  MOL d          14.812  10.629  24.279  0.00  0.00     0.275 HD
ATOM     18  H3  MOL d          15.562  11.798  25.162  0.00  0.00     0.275 HD
ENDBRANCH  13  15
BRANCH  13  19
ATOM     19  C   MOL d          15.571  10.845  27.404  0.00  0.00     0.204 C 
ATOM     20  O   MOL d          16.224   9.979  28.027  0.00  0.00    -0.646 OA
ATOM     21  OXT MOL d          15.658  12.066  27.639  0.00  0.00    -0.646 OA
ENDBRANCH  13  19
ENDBRANCH  10  13
ENDBRANCH   7  10
ENDBRANCH   4   7
ENDBRANCH   1   3
BRANCH   1  22
ATOM     22  CB  MOL d          10.456   6.962  23.106  0.00  0.00     0.004 C 
ATOM     23  H11 MOL d          11.533   6.790  22.966  0.00  0.00     0.052 H 
ATOM     24  H12 MOL d          10.022   7.351  22.173  0.00  0.00     0.052 H 
BRANCH  22  25
ATOM     25  SG  MOL d           9.690   5.386  23.452  0.00  0.00    -0.162 SA
BRANCH  25  26
ATOM     26  CD  MOL d          11.048   4.546  24.292  0.00  0.00     0.001 C 
ATOM     27  H13 MOL d          11.920   5.217  24.299  0.00  0.00     0.056 H 
ATOM     28  H14 MOL d          11.293   3.633  23.730  0.00  0.00     0.056 H 
BRANCH  26  29
ATOM     29  CE  MOL d          10.737   4.159  25.714  0.00  0.00    -0.049 A 
ATOM     30  CZ1 MOL d          10.032   2.990  25.987  0.00  0.00    -0.076 A 
ATOM     31  CT1 MOL d           9.737   2.623  27.297  0.00  0.00    -0.082 A 
ATOM     32  H15 MOL d           9.708   2.357  25.169  0.00  0.00     0.084 H 
ATOM     33  CH  MOL d          10.151   3.432  28.354  0.00  0.00    -0.083 A 
ATOM     34  H17 MOL d           9.187   1.710  27.494  0.00  0.00     0.083 H 
ATOM     35  CT2 MOL d          10.854   4.601  28.095  0.00  0.00    -0.082 A 
ATOM     36  H19 MOL d           9.924   3.149  29.376  0.00  0.00     0.083 H 
ATOM     37  CZ2 MOL d          11.145   4.960  26.778  0.00  0.00    -0.076 A 
ATOM     38  H18 MOL d          11.177   5.233  28.914  0.00  0.00     0.083 H 
ATOM     39  H16 MOL d          11.696   5.873  26.580  0.00  0.00     0.084 H 
ENDBRANCH  26  29
ENDBRANCH  25  26
ENDBRANCH  22  25
ENDBRANCH   1  22
BRANCH   1  40
ATOM     40  C   MOL d           8.927   7.825  24.818  0.00  0.00     0.242 C 
ATOM     41  O   MOL d           7.893   8.088  24.205  0.00  0.00    -0.271 OA
ATOM     42  N   MOL d           8.947   7.388  26.069  0.00  0.00    -0.341 N 
ATOM     43  H20 MOL d           9.831   7.197  26.496  0.00  0.00     0.163 HD
BRANCH  42  44
ATOM     44  CA  MOL d           7.740   7.177  26.845  0.00  0.00     0.122 C 
ATOM     45  H21 MOL d           6.932   7.615  26.240  0.00  0.00     0.097 H 
BRANCH  44  46
ATOM     46  CB  MOL d           7.741   7.970  28.112  0.00  0.00    -0.025 A 
ATOM     47  CG1 MOL d           6.656   8.767  28.458  0.00  0.00    -0.074 A 
ATOM     48  CD1 MOL d           6.630   9.445  29.673  0.00  0.00    -0.082 A 
ATOM     49  H22 MOL d           5.821   8.861  27.774  0.00  0.00     0.084 H 
ATOM     50  CE  MOL d           7.698   9.329  30.552  0.00  0.00    -0.083 A 
ATOM     51  H24 MOL d           5.778  10.063  29.932  0.00  0.00     0.083 H 
ATOM     52  CD2 MOL d           8.788   8.539  30.212  0.00  0.00    -0.082 A 
ATOM     53  H26 MOL d           7.681   9.854  31.500  0.00  0.00     0.083 H 
ATOM     54  CG2 MOL d           8.805   7.866  28.997  0.00  0.00    -0.074 A 
ATOM     55  H25 MOL d           9.625   8.448  30.894  0.00  0.00     0.083 H 
ATOM     56  H23 MOL d           9.659   7.251  28.738  0.00  0.00     0.084 H 
ENDBRANCH  44  46
BRANCH  44  57
ATOM     57  C   MOL d           7.346   5.709  27.001  0.00  0.00     0.201 C 
ATOM     58  O   MOL d           7.171   5.286  28.159  0.00  0.00    -0.646 OA
ATOM     59  OXT MOL d           7.210   5.003  25.979  0.00  0.00    -0.646 OA
ENDBRANCH  44  57
ENDBRANCH  42  44
ENDBRANCH   1  40
TORSDOF 14
ENDMDL
MODEL 8
REMARK VINA RESULT:      -6.4      3.274      6.787
REMARK  14 active torsions:
REMARK  status: ('A' for Active; 'I' for Inactive)
REMARK    1  A    between atoms: CA_2  and  N_1 
REMARK    2  A    between atoms: CA_2  and  CB_5 
REMARK    3  A    between atoms: CA_2  and  C_3 
REMARK    4  A    between atoms: CB_5  and  CG_6 
REMARK    5  A    between atoms: CG_6  and  CD_7 
REMARK       I    between atoms: CD_7  and  N_10 
REMARK    6  A    between atoms: N_10  and  CA_11 
REMARK    7  A    between atoms: CA_11  and  CB_12 
REMARK    8  A    between atoms: CA_11  and  C_21 
REMARK    9  A    between atoms: CB_12  and  SG_13 
REMARK   10  A    between atoms: SG_13  and  CD_14 
REMARK   11  A    between atoms: CD_14  and  CE_15 
REMARK       I    between atoms: C_21  and  N_23 
REMARK   12  A    between atoms: N_23  and  CA_24 
REMARK   13  A    between atoms: CA_24  and  CB_25 
REMARK   14  A    between atoms: CA_24  and  C_31 
ROOT
ATOM      1  CA  MOL d          10.231   6.393  27.837  0.00  0.00     0.097 C 
ATOM      2  H10 MOL d          11.331   6.412  27.825  0.00  0.00     0.088 H 
ENDROOT
BRANCH   1   3
ATOM      3  N   MOL d           9.778   5.009  27.813  0.00  0.00    -0.347 N 
ATOM      4  CD  MOL d          10.490   4.029  27.263  0.00  0.00     0.218 C 
ATOM      5  OE1 MOL d          11.608   4.192  26.779  0.00  0.00    -0.274 OA
ATOM      6  H9  MOL d           8.896   4.786  28.227  0.00  0.00     0.163 HD
BRANCH   4   7
ATOM      7  CG  MOL d           9.853   2.662  27.314  0.00  0.00     0.012 C 
ATOM      8  H7  MOL d           9.122   2.589  26.494  0.00  0.00     0.047 H 
ATOM      9  H8  MOL d          10.639   1.906  27.173  0.00  0.00     0.047 H 
BRANCH   7  10
ATOM     10  CB  MOL d           9.139   2.375  28.620  0.00  0.00    -0.021 C 
ATOM     11  H5  MOL d           9.641   1.531  29.117  0.00  0.00     0.037 H 
ATOM     12  H6  MOL d           9.202   3.268  29.259  0.00  0.00     0.037 H 
BRANCH  10  13
ATOM     13  CA  MOL d           7.664   2.018  28.423  0.00  0.00     0.183 C 
ATOM     14  H4  MOL d           7.606   1.047  27.909  0.00  0.00     0.101 H 
BRANCH  13  15
ATOM     15  N   MOL d           6.997   3.040  27.572  0.00  0.00    -0.065 N 
ATOM     16  H1  MOL d           6.975   2.719  26.617  0.00  0.00     0.275 HD
ATOM     17  H2  MOL d           7.510   3.906  27.623  0.00  0.00     0.275 HD
ATOM     18  H3  MOL d           6.055   3.187  27.899  0.00  0.00     0.275 HD
ENDBRANCH  13  15
BRANCH  13  19
ATOM     19  C   MOL d           6.963   1.886  29.781  0.00  0.00     0.204 C 
ATOM     20  O   MOL d           5.763   1.537  29.808  0.00  0.00    -0.646 OA
ATOM     21  OXT MOL d           7.621   2.152  30.806  0.00  0.00    -0.646 OA
ENDBRANCH  13  19
ENDBRANCH  10  13
ENDBRANCH   7  10
ENDBRANCH   4   7
ENDBRANCH   1   3
BRANCH   1  22
ATOM     22  CB  MOL d           9.685   7.146  26.623  0.00  0.00     0.004 C 
ATOM     23  H11 MOL d           9.257   8.094  26.978  0.00  0.00     0.052 H 
ATOM     24  H12 MOL d           8.892   6.531  26.172  0.00  0.00     0.052 H 
BRANCH  22  25
ATOM     25  SG  MOL d          10.875   7.526  25.346  0.00  0.00    -0.162 SA
BRANCH  25  26
ATOM     26  CD  MOL d          12.309   7.947  26.358  0.00  0.00     0.001 C 
ATOM     27  H13 MOL d          12.624   7.046  26.906  0.00  0.00     0.056 H 
ATOM     28  H14 MOL d          12.010   8.726  27.075  0.00  0.00     0.056 H 
BRANCH  26  29
ATOM     29  CE  MOL d          13.484   8.456  25.566  0.00  0.00    -0.049 A 
ATOM     30  CZ1 MOL d          14.780   8.297  26.047  0.00  0.00    -0.076 A 
ATOM     31  CT1 MOL d          15.873   8.765  25.324  0.00  0.00    -0.082 A 
ATOM     32  H15 MOL d          14.941   7.803  26.998  0.00  0.00     0.084 H 
ATOM     33  CH  MOL d          15.674   9.401  24.100  0.00  0.00    -0.083 A 
ATOM     34  H17 MOL d          16.877   8.635  25.712  0.00  0.00     0.083 H 
ATOM     35  CT2 MOL d          14.386   9.566  23.608  0.00  0.00    -0.082 A 
ATOM     36  H19 MOL d          16.523   9.766  23.532  0.00  0.00     0.083 H 
ATOM     37  CZ2 MOL d          13.296   9.094  24.341  0.00  0.00    -0.076 A 
ATOM     38  H18 MOL d          14.227  10.061  22.657  0.00  0.00     0.083 H 
ATOM     39  H16 MOL d          12.292   9.224  23.953  0.00  0.00     0.084 H 
ENDBRANCH  26  29
ENDBRANCH  25  26
ENDBRANCH  22  25
ENDBRANCH   1  22
BRANCH   1  40
ATOM     40  C   MOL d           9.722   7.107  29.074  0.00  0.00     0.242 C 
ATOM     41  O   MOL d          10.499   7.653  29.857  0.00  0.00    -0.271 OA
ATOM     42  N   MOL d           8.411   7.055  29.257  0.00  0.00    -0.341 N 
ATOM     43  H20 MOL d           7.849   6.592  28.572  0.00  0.00     0.163 HD
BRANCH  42  44
ATOM     44  CA  MOL d           7.757   7.644  30.411  0.00  0.00     0.122 C 
ATOM     45  H21 MOL d           8.493   7.565  31.226  0.00  0.00     0.097 H 
BRANCH  44  46
ATOM     46  CB  MOL d           6.590   6.830  30.870  0.00  0.00    -0.025 A 
ATOM     47  CG1 MOL d           6.761   5.526  31.321  0.00  0.00    -0.074 A 
ATOM     48  CD1 MOL d           5.683   4.798  31.817  0.00  0.00    -0.082 A 
ATOM     49  H22 MOL d           7.743   5.072  31.285  0.00  0.00     0.084 H 
ATOM     50  CE  MOL d           4.422   5.375  31.863  0.00  0.00    -0.083 A 
ATOM     51  H24 MOL d           5.829   3.782  32.166  0.00  0.00     0.083 H 
ATOM     52  CD2 MOL d           4.242   6.676  31.411  0.00  0.00    -0.082 A 
ATOM     53  H26 MOL d           3.581   4.813  32.251  0.00  0.00     0.083 H 
ATOM     54  CG2 MOL d           5.324   7.394  30.918  0.00  0.00    -0.074 A 
ATOM     55  H25 MOL d           3.259   7.130  31.443  0.00  0.00     0.083 H 
ATOM     56  H23 MOL d           5.176   8.409  30.566  0.00  0.00     0.084 H 
ENDBRANCH  44  46
BRANCH  44  57
ATOM     57  C   MOL d           7.491   9.142  30.282  0.00  0.00     0.201 C 
ATOM     58  O   MOL d           7.274   9.585  29.138  0.00  0.00    -0.646 OA
ATOM     59  OXT MOL d           7.494   9.853  31.309  0.00  0.00    -0.646 OA
ENDBRANCH  44  57
ENDBRANCH  42  44
ENDBRANCH   1  40
TORSDOF 14
ENDMDL
MODEL 9
REMARK VINA RESULT:      -6.3      2.412      4.006
REMARK  14 active torsions:
REMARK  status: ('A' for Active; 'I' for Inactive)
REMARK    1  A    between atoms: CA_2  and  N_1 
REMARK    2  A    between atoms: CA_2  and  CB_5 
REMARK    3  A    between atoms: CA_2  and  C_3 
REMARK    4  A    between atoms: CB_5  and  CG_6 
REMARK    5  A    between atoms: CG_6  and  CD_7 
REMARK       I    between atoms: CD_7  and  N_10 
REMARK    6  A    between atoms: N_10  and  CA_11 
REMARK    7  A    between atoms: CA_11  and  CB_12 
REMARK    8  A    between atoms: CA_11  and  C_21 
REMARK    9  A    between atoms: CB_12  and  SG_13 
REMARK   10  A    between atoms: SG_13  and  CD_14 
REMARK   11  A    between atoms: CD_14  and  CE_15 
REMARK       I    between atoms: C_21  and  N_23 
REMARK   12  A    between atoms: N_23  and  CA_24 
REMARK   13  A    between atoms: CA_24  and  CB_25 
REMARK   14  A    between atoms: CA_24  and  C_31 
ROOT
ATOM      1  CA  MOL d           9.760   6.605  24.818  0.00  0.00     0.097 C 
ATOM      2  H10 MOL d          10.001   6.573  23.745  0.00  0.00     0.088 H 
ENDROOT
BRANCH   1   3
ATOM      3  N   MOL d          10.853   7.250  25.533  0.00  0.00    -0.347 N 
ATOM      4  CD  MOL d          11.869   7.841  24.912  0.00  0.00     0.218 C 
ATOM      5  OE1 MOL d          11.949   7.944  23.689  0.00  0.00    -0.274 OA
ATOM      6  H9  MOL d          10.838   7.248  26.533  0.00  0.00     0.163 HD
BRANCH   4   7
ATOM      7  CG  MOL d          12.919   8.438  25.816  0.00  0.00     0.012 C 
ATOM      8  H7  MOL d          12.414   9.038  26.587  0.00  0.00     0.047 H 
ATOM      9  H8  MOL d          13.473   7.617  26.295  0.00  0.00     0.047 H 
BRANCH   7  10
ATOM     10  CB  MOL d          13.910   9.326  25.089  0.00  0.00    -0.021 C 
ATOM     11  H5  MOL d          14.045   8.939  24.068  0.00  0.00     0.037 H 
ATOM     12  H6  MOL d          13.500  10.345  25.044  0.00  0.00     0.037 H 
BRANCH  10  13
ATOM     13  CA  MOL d          15.275   9.377  25.778  0.00  0.00     0.183 C 
ATOM     14  H4  MOL d          16.042   9.585  25.017  0.00  0.00     0.101 H 
BRANCH  13  15
ATOM     15  N   MOL d          15.583   8.065  26.408  0.00  0.00    -0.065 N 
ATOM     16  H1  MOL d          15.561   8.160  27.411  0.00  0.00     0.275 HD
ATOM     17  H2  MOL d          16.500   7.761  26.120  0.00  0.00     0.275 HD
ATOM     18  H3  MOL d          14.898   7.385  26.119  0.00  0.00     0.275 HD
ENDBRANCH  13  15
BRANCH  13  19
ATOM     19  C   MOL d          15.306  10.509  26.813  0.00  0.00     0.204 C 
ATOM     20  O   MOL d          15.871  10.307  27.910  0.00  0.00    -0.646 OA
ATOM     21  OXT MOL d          14.746  11.583  26.521  0.00  0.00    -0.646 OA
ENDBRANCH  13  19
ENDBRANCH  10  13
ENDBRANCH   7  10
ENDBRANCH   4   7
ENDBRANCH   1   3
BRANCH   1  22
ATOM     22  CB  MOL d           9.553   5.185  25.345  0.00  0.00     0.004 C 
ATOM     23  H11 MOL d           9.882   4.483  24.565  0.00  0.00     0.052 H 
ATOM     24  H12 MOL d           8.477   5.047  25.532  0.00  0.00     0.052 H 
BRANCH  22  25
ATOM     25  SG  MOL d          10.426   4.779  26.849  0.00  0.00    -0.162 SA
BRANCH  25  26
ATOM     26  CD  MOL d           9.270   3.604  27.586  0.00  0.00     0.001 C 
ATOM     27  H13 MOL d           9.847   2.768  28.007  0.00  0.00     0.056 H 
ATOM     28  H14 MOL d           8.605   3.229  26.793  0.00  0.00     0.056 H 
BRANCH  26  29
ATOM     29  CE  MOL d           8.419   4.193  28.679  0.00  0.00    -0.049 A 
ATOM     30  CZ1 MOL d           7.724   3.364  29.555  0.00  0.00    -0.076 A 
ATOM     31  CT1 MOL d           6.934   3.897  30.569  0.00  0.00    -0.082 A 
ATOM     32  H15 MOL d           7.799   2.288  29.445  0.00  0.00     0.084 H 
ATOM     33  CH  MOL d           6.834   5.280  30.716  0.00  0.00    -0.083 A 
ATOM     34  H17 MOL d           6.397   3.239  31.243  0.00  0.00     0.083 H 
ATOM     35  CT2 MOL d           7.522   6.119  29.849  0.00  0.00    -0.082 A 
ATOM     36  H19 MOL d           6.220   5.700  31.505  0.00  0.00     0.083 H 
ATOM     37  CZ2 MOL d           8.312   5.574  28.835  0.00  0.00    -0.076 A 
ATOM     38  H18 MOL d           7.446   7.194  29.959  0.00  0.00     0.083 H 
ATOM     39  H16 MOL d           8.849   6.232  28.161  0.00  0.00     0.084 H 
ENDBRANCH  26  29
ENDBRANCH  25  26
ENDBRANCH  22  25
ENDBRANCH   1  22
BRANCH   1  40
ATOM     40  C   MOL d           8.459   7.356  25.027  0.00  0.00     0.242 C 
ATOM     41  O   MOL d           8.417   8.584  24.958  0.00  0.00    -0.271 OA
ATOM     42  N   MOL d           7.412   6.601  25.324  0.00  0.00    -0.341 N 
ATOM     43  H20 MOL d           7.531   5.608  25.360  0.00  0.00     0.163 HD
BRANCH  42  44
ATOM     44  CA  MOL d           6.100   7.155  25.601  0.00  0.00     0.122 C 
ATOM     45  H21 MOL d           6.296   8.103  26.123  0.00  0.00     0.097 H 
BRANCH  44  46
ATOM     46  CB  MOL d           5.338   6.327  26.585  0.00  0.00    -0.025 A 
ATOM     47  CG1 MOL d           5.404   4.939  26.555  0.00  0.00    -0.074 A 
ATOM     48  CD1 MOL d           4.753   4.174  27.519  0.00  0.00    -0.082 A 
ATOM     49  H22 MOL d           5.969   4.447  25.773  0.00  0.00     0.084 H 
ATOM     50  CE  MOL d           4.027   4.800  28.522  0.00  0.00    -0.083 A 
ATOM     51  H24 MOL d           4.813   3.093  27.485  0.00  0.00     0.083 H 
ATOM     52  CD2 MOL d           3.952   6.186  28.557  0.00  0.00    -0.082 A 
ATOM     53  H26 MOL d           3.520   4.209  29.277  0.00  0.00     0.083 H 
ATOM     54  CG2 MOL d           4.605   6.941  27.591  0.00  0.00    -0.074 A 
ATOM     55  H25 MOL d           3.384   6.680  29.337  0.00  0.00     0.083 H 
ATOM     56  H23 MOL d           4.542   8.023  27.624  0.00  0.00     0.084 H 
ENDBRANCH  44  46
BRANCH  44  57
ATOM     57  C   MOL d           5.318   7.561  24.354  0.00  0.00     0.201 C 
ATOM     58  O   MOL d           4.914   8.738  24.293  0.00  0.00    -0.646 OA
ATOM     59  OXT MOL d           5.122   6.716  23.454  0.00  0.00    -0.646 OA
ENDBRANCH  44  57
ENDBRANCH  42  44
ENDBRANCH   1  40
TORSDOF 14
ENDMDL
MODEL 10
REMARK VINA RESULT:      -6.3      3.808      7.139
REMARK  14 active torsions:
REMARK  status: ('A' for Active; 'I' for Inactive)
REMARK    1  A    between atoms: CA_2  and  N_1 
REMARK    2  A    between atoms: CA_2  and  CB_5 
REMARK    3  A    between atoms: CA_2  and  C_3 
REMARK    4  A    between atoms: CB_5  and  CG_6 
REMARK    5  A    between atoms: CG_6  and  CD_7 
REMARK       I    between atoms: CD_7  and  N_10 
REMARK    6  A    between atoms: N_10  and  CA_11 
REMARK    7  A    between atoms: CA_11  and  CB_12 
REMARK    8  A    between atoms: CA_11  and  C_21 
REMARK    9  A    between atoms: CB_12  and  SG_13 
REMARK   10  A    between atoms: SG_13  and  CD_14 
REMARK   11  A    between atoms: CD_14  and  CE_15 
REMARK       I    between atoms: C_21  and  N_23 
REMARK   12  A    between atoms: N_23  and  CA_24 
REMARK   13  A    between atoms: CA_24  and  CB_25 
REMARK   14  A    between atoms: CA_24  and  C_31 
ROOT
ATOM      1  CA  MOL d           6.969   5.348  28.957  0.00  0.00     0.097 C 
ATOM      2  H10 MOL d           5.973   5.013  28.631  0.00  0.00     0.088 H 
ENDROOT
BRANCH   1   3
ATOM      3  N   MOL d           7.814   4.182  29.178  0.00  0.00    -0.347 N 
ATOM      4  CD  MOL d           7.555   2.993  28.641  0.00  0.00     0.218 C 
ATOM      5  OE1 MOL d           6.617   2.786  27.874  0.00  0.00    -0.274 OA
ATOM      6  H9  MOL d           8.624   4.280  29.756  0.00  0.00     0.163 HD
BRANCH   4   7
ATOM      7  CG  MOL d           8.529   1.898  28.997  0.00  0.00     0.012 C 
ATOM      8  H7  MOL d           8.588   1.828  30.094  0.00  0.00     0.047 H 
ATOM      9  H8  MOL d           8.151   0.950  28.589  0.00  0.00     0.047 H 
BRANCH   7  10
ATOM     10  CB  MOL d           9.926   2.131  28.456  0.00  0.00    -0.021 C 
ATOM     11  H5  MOL d          10.504   2.693  29.204  0.00  0.00     0.037 H 
ATOM     12  H6  MOL d          10.402   1.155  28.282  0.00  0.00     0.037 H 
BRANCH  10  13
ATOM     13  CA  MOL d           9.929   2.916  27.143  0.00  0.00     0.183 C 
ATOM     14  H4  MOL d           8.906   3.266  26.944  0.00  0.00     0.101 H 
BRANCH  13  15
ATOM     15  N   MOL d          10.351   2.038  26.019  0.00  0.00    -0.065 N 
ATOM     16  H1  MOL d          11.357   1.974  26.001  0.00  0.00     0.275 HD
ATOM     17  H2  MOL d          10.024   2.426  25.148  0.00  0.00     0.275 HD
ATOM     18  H3  MOL d           9.958   1.118  26.145  0.00  0.00     0.275 HD
ENDBRANCH  13  15
BRANCH  13  19
ATOM     19  C   MOL d          10.843   4.143  27.260  0.00  0.00     0.204 C 
ATOM     20  O   MOL d          10.682   4.925  28.222  0.00  0.00    -0.646 OA
ATOM     21  OXT MOL d          11.701   4.318  26.373  0.00  0.00    -0.646 OA
ENDBRANCH  13  19
ENDBRANCH  10  13
ENDBRANCH   7  10
ENDBRANCH   4   7
ENDBRANCH   1   3
BRANCH   1  22
ATOM     22  CB  MOL d           6.848   6.161  30.246  0.00  0.00     0.004 C 
ATOM     23  H11 MOL d           7.351   7.125  30.085  0.00  0.00     0.052 H 
ATOM     24  H12 MOL d           7.363   5.607  31.045  0.00  0.00     0.052 H 
BRANCH  22  25
ATOM     25  SG  MOL d           5.183   6.498  30.798  0.00  0.00    -0.162 SA
BRANCH  25  26
ATOM     26  CD  MOL d           5.087   5.391  32.221  0.00  0.00     0.001 C 
ATOM     27  H13 MOL d           4.107   5.530  32.703  0.00  0.00     0.056 H 
ATOM     28  H14 MOL d           5.885   5.663  32.927  0.00  0.00     0.056 H 
BRANCH  26  29
ATOM     29  CE  MOL d           5.240   3.935  31.869  0.00  0.00    -0.049 A 
ATOM     30  CZ1 MOL d           6.222   3.161  32.483  0.00  0.00    -0.076 A 
ATOM     31  CT1 MOL d           6.373   1.815  32.164  0.00  0.00    -0.082 A 
ATOM     32  H15 MOL d           6.877   3.614  33.218  0.00  0.00     0.084 H 
ATOM     33  CH  MOL d           5.534   1.227  31.220  0.00  0.00    -0.083 A 
ATOM     34  H17 MOL d           7.143   1.225  32.649  0.00  0.00     0.083 H 
ATOM     35  CT2 MOL d           4.550   1.987  30.600  0.00  0.00    -0.082 A 
ATOM     36  H19 MOL d           5.648   0.178  30.970  0.00  0.00     0.083 H 
ATOM     37  CZ2 MOL d           4.406   3.336  30.927  0.00  0.00    -0.076 A 
ATOM     38  H18 MOL d           3.896   1.533  29.865  0.00  0.00     0.083 H 
ATOM     39  H16 MOL d           3.637   3.926  30.441  0.00  0.00     0.084 H 
ENDBRANCH  26  29
ENDBRANCH  25  26
ENDBRANCH  22  25
ENDBRANCH   1  22
BRANCH   1  40
ATOM     40  C   MOL d           7.569   6.260  27.904  0.00  0.00     0.242 C 
ATOM     41  O   MOL d           8.053   7.350  28.209  0.00  0.00    -0.271 OA
ATOM     42  N   MOL d           7.491   5.814  26.659  0.00  0.00    -0.341 N 
ATOM     43  H20 MOL d           7.083   4.916  26.496  0.00  0.00     0.163 HD
BRANCH  42  44
ATOM     44  CA  MOL d           7.972   6.576  25.522  0.00  0.00     0.122 C 
ATOM     45  H21 MOL d           8.475   7.452  25.959  0.00  0.00     0.097 H 
BRANCH  44  46
ATOM     46  CB  MOL d           6.851   7.143  24.712  0.00  0.00    -0.025 A 
ATOM     47  CG1 MOL d           6.190   6.370  23.765  0.00  0.00    -0.074 A 
ATOM     48  CD1 MOL d           5.099   6.879  23.066  0.00  0.00    -0.082 A 
ATOM     49  H22 MOL d           6.529   5.360  23.568  0.00  0.00     0.084 H 
ATOM     50  CE  MOL d           4.663   8.173  23.314  0.00  0.00    -0.083 A 
ATOM     51  H24 MOL d           4.592   6.266  22.330  0.00  0.00     0.083 H 
ATOM     52  CD2 MOL d           5.320   8.954  24.256  0.00  0.00    -0.082 A 
ATOM     53  H26 MOL d           3.812   8.572  22.774  0.00  0.00     0.083 H 
ATOM     54  CG2 MOL d           6.407   8.437  24.948  0.00  0.00    -0.074 A 
ATOM     55  H25 MOL d           4.984   9.965  24.451  0.00  0.00     0.083 H 
ATOM     56  H23 MOL d           6.916   9.052  25.682  0.00  0.00     0.084 H 
ENDBRANCH  44  46
BRANCH  44  57
ATOM     57  C   MOL d           9.063   5.874  24.716  0.00  0.00     0.201 C 
ATOM     58  O   MOL d           9.031   4.629  24.678  0.00  0.00    -0.646 OA
ATOM     59  OXT MOL d           9.926   6.561  24.128  0.00  0.00    -0.646 OA
ENDBRANCH  44  57
ENDBRANCH  42  44
ENDBRANCH   1  40
TORSDOF 14
ENDMDL
