MODEL 1
REMARK VINA RESULT:      -6.5      0.000      0.000
REMARK  6 active torsions:
REMARK  status: ('A' for Active; 'I' for Inactive)
REMARK    1  A    between atoms: N_1  and  CA_2 
REMARK    2  A    between atoms: CA_2  and  C_3 
REMARK    3  A    between atoms: CA_2  and  CB_5 
REMARK    4  A    between atoms: CB_5  and  CG_6 
REMARK    5  A    between atoms: CG_6  and  ND_7 
REMARK       I    between atoms: ND_7  and  CE_8 
REMARK       I    between atoms: CE_8  and  NH1_9 
REMARK    6  A    between atoms: NH1_9  and  OH1_11 
ROOT
ATOM      1  CB  NNH d          25.391 -11.204  -5.141  0.00  0.00    -0.014 C 
ATOM      2  H5  NNH d          25.933 -10.464  -4.534  0.00  0.00     0.039 H 
ATOM      3  H6  NNH d          25.707 -11.119  -6.191  0.00  0.00     0.039 H 
ENDROOT
BRANCH   1   4
ATOM      4  CA  NNH d          23.950 -10.742  -5.127  0.00  0.00     0.184 C 
ATOM      5  H4  NNH d          23.315 -11.529  -4.695  0.00  0.00     0.101 H 
BRANCH   4   6
ATOM      6  N   NNH d          23.570 -10.526  -6.513  0.00  0.00    -0.065 N 
ATOM      7  H1  NNH d          23.288  -9.567  -6.638  0.00  0.00     0.275 HD
ATOM      8  H2  NNH d          22.802 -11.135  -6.749  0.00  0.00     0.275 HD
ATOM      9  H3  NNH d          24.355 -10.727  -7.112  0.00  0.00     0.275 HD
ENDBRANCH   4   6
BRANCH   4  10
ATOM     10  C   NNH d          23.794  -9.471  -4.275  0.00  0.00     0.204 C 
ATOM     11  O   NNH d          23.744  -8.334  -4.697  0.00  0.00    -0.646 OA
ATOM     12  OXT NNH d          23.716  -9.757  -2.956  0.00  0.00    -0.646 OA
ENDBRANCH   4  10
ENDBRANCH   1   4
BRANCH   1  13
ATOM     13  CG  NNH d          25.913 -12.528  -4.689  0.00  0.00     0.012 C 
ATOM     14  H7  NNH d          26.546 -12.359  -3.805  0.00  0.00     0.065 H 
ATOM     15  H8  NNH d          26.523 -12.947  -5.503  0.00  0.00     0.065 H 
BRANCH  13  16
ATOM     16  ND  NNH d          24.883 -13.530  -4.328  0.00  0.00    -0.223 N 
ATOM     17  CE  NNH d          24.750 -14.812  -4.763  0.00  0.00     0.716 C 
ATOM     18  NH1 NNH d          25.695 -15.333  -5.691  0.00  0.00     0.058 NA
ATOM     19  NH2 NNH d          23.766 -15.649  -4.370  0.00  0.00    -0.231 N 
ATOM     20  H10 NNH d          23.728 -16.609  -4.741  0.00  0.00     0.174 HD
ATOM     21  H11 NNH d          23.054 -15.328  -3.698  0.00  0.00     0.174 HD
ATOM     22  H9  NNH d          24.171 -13.212  -3.656  0.00  0.00     0.177 HD
BRANCH  18  23
ATOM     23  OH1 NNH d          25.581 -16.539  -6.110  0.00  0.00    -0.252 OA
ATOM     24  H12 NNH d          25.491 -16.537  -7.055  0.00  0.00     0.247 HD
ENDBRANCH  18  23
ENDBRANCH  13  16
ENDBRANCH   1  13
TORSDOF 6
ENDMDL
MODEL 2
REMARK VINA RESULT:      -6.3      1.697      2.113
REMARK  6 active torsions:
REMARK  status: ('A' for Active; 'I' for Inactive)
REMARK    1  A    between atoms: N_1  and  CA_2 
REMARK    2  A    between atoms: CA_2  and  C_3 
REMARK    3  A    between atoms: CA_2  and  CB_5 
REMARK    4  A    between atoms: CB_5  and  CG_6 
REMARK    5  A    between atoms: CG_6  and  ND_7 
REMARK       I    between atoms: ND_7  and  CE_8 
REMARK       I    between atoms: CE_8  and  NH1_9 
REMARK    6  A    between atoms: NH1_9  and  OH1_11 
ROOT
ATOM      1  CB  NNH d          26.153 -11.616  -4.451  0.00  0.00    -0.014 C 
ATOM      2  H5  NNH d          26.729 -12.105  -3.652  0.00  0.00     0.039 H 
ATOM      3  H6  NNH d          26.793 -11.480  -5.335  0.00  0.00     0.039 H 
ENDROOT
BRANCH   1   4
ATOM      4  CA  NNH d          25.888 -10.215  -3.942  0.00  0.00     0.184 C 
ATOM      5  H4  NNH d          26.494  -9.495  -4.512  0.00  0.00     0.101 H 
BRANCH   4   6
ATOM      6  N   NNH d          26.304 -10.194  -2.550  0.00  0.00    -0.065 N 
ATOM      7  H1  NNH d          26.216 -11.119  -2.159  0.00  0.00     0.275 HD
ATOM      8  H2  NNH d          25.719  -9.555  -2.034  0.00  0.00     0.275 HD
ATOM      9  H3  NNH d          27.264  -9.895  -2.490  0.00  0.00     0.275 HD
ENDBRANCH   4   6
BRANCH   4  10
ATOM     10  C   NNH d          24.405  -9.845  -4.113  0.00  0.00     0.204 C 
ATOM     11  O   NNH d          23.850  -9.604  -5.165  0.00  0.00    -0.646 OA
ATOM     12  OXT NNH d          23.756  -9.813  -2.928  0.00  0.00    -0.646 OA
ENDBRANCH   4  10
ENDBRANCH   1   4
BRANCH   1  13
ATOM     13  CG  NNH d          25.136 -12.626  -4.865  0.00  0.00     0.012 C 
ATOM     14  H7  NNH d          24.523 -12.183  -5.664  0.00  0.00     0.065 H 
ATOM     15  H8  NNH d          24.501 -12.845  -3.993  0.00  0.00     0.065 H 
BRANCH  13  16
ATOM     16  ND  NNH d          25.679 -13.910  -5.366  0.00  0.00    -0.223 N 
ATOM     17  CE  NNH d          25.198 -15.170  -5.184  0.00  0.00     0.716 C 
ATOM     18  NH1 NNH d          24.012 -15.357  -4.421  0.00  0.00     0.058 NA
ATOM     19  NH2 NNH d          25.775 -16.283  -5.686  0.00  0.00    -0.231 N 
ATOM     20  H10 NNH d          25.354 -17.206  -5.508  0.00  0.00     0.174 HD
ATOM     21  H11 NNH d          26.635 -16.209  -6.248  0.00  0.00     0.174 HD
ATOM     22  H9  NNH d          26.538 -13.839  -5.928  0.00  0.00     0.177 HD
BRANCH  18  23
ATOM     23  OH1 NNH d          23.548 -16.539  -4.241  0.00  0.00    -0.252 OA
ATOM     24  H12 NNH d          23.948 -16.920  -3.469  0.00  0.00     0.247 HD
ENDBRANCH  18  23
ENDBRANCH  13  16
ENDBRANCH   1  13
TORSDOF 6
ENDMDL
MODEL 3
REMARK VINA RESULT:      -5.5      2.464      3.067
REMARK  6 active torsions:
REMARK  status: ('A' for Active; 'I' for Inactive)
REMARK    1  A    between atoms: N_1  and  CA_2 
REMARK    2  A    between atoms: CA_2  and  C_3 
REMARK    3  A    between atoms: CA_2  and  CB_5 
REMARK    4  A    between atoms: CB_5  and  CG_6 
REMARK    5  A    between atoms: CG_6  and  ND_7 
REMARK       I    between atoms: ND_7  and  CE_8 
REMARK       I    between atoms: CE_8  and  NH1_9 
REMARK    6  A    between atoms: NH1_9  and  OH1_11 
ROOT
ATOM      1  CB  NNH d          26.754 -10.225  -6.456  0.00  0.00    -0.014 C 
ATOM      2  H5  NNH d          27.622  -9.810  -6.988  0.00  0.00     0.039 H 
ATOM      3  H6  NNH d          25.946 -10.430  -7.174  0.00  0.00     0.039 H 
ENDROOT
BRANCH   1   4
ATOM      4  CA  NNH d          26.238  -9.088  -5.601  0.00  0.00     0.184 C 
ATOM      5  H4  NNH d          26.480  -8.128  -6.081  0.00  0.00     0.101 H 
BRANCH   4   6
ATOM      6  N   NNH d          26.934  -9.176  -4.328  0.00  0.00    -0.065 N 
ATOM      7  H1  NNH d          27.401  -8.303  -4.140  0.00  0.00     0.275 HD
ATOM      8  H2  NNH d          27.613  -9.919  -4.368  0.00  0.00     0.275 HD
ATOM      9  H3  NNH d          26.269  -9.365  -3.594  0.00  0.00     0.275 HD
ENDBRANCH   4   6
BRANCH   4  10
ATOM     10  C   NNH d          24.711  -9.177  -5.439  0.00  0.00     0.204 C 
ATOM     11  O   NNH d          24.048  -8.584  -4.613  0.00  0.00    -0.646 OA
ATOM     12  OXT NNH d          24.159 -10.017  -6.343  0.00  0.00    -0.646 OA
ENDBRANCH   4  10
ENDBRANCH   1   4
BRANCH   1  13
ATOM     13  CG  NNH d          27.199 -11.569  -5.985  0.00  0.00     0.012 C 
ATOM     14  H7  NNH d          27.740 -11.434  -5.036  0.00  0.00     0.065 H 
ATOM     15  H8  NNH d          27.883 -11.984  -6.741  0.00  0.00     0.065 H 
BRANCH  13  16
ATOM     16  ND  NNH d          26.119 -12.556  -5.757  0.00  0.00    -0.223 N 
ATOM     17  CE  NNH d          25.348 -12.740  -4.651  0.00  0.00     0.716 C 
ATOM     18  NH1 NNH d          25.550 -11.903  -3.517  0.00  0.00     0.058 NA
ATOM     19  NH2 NNH d          24.383 -13.677  -4.545  0.00  0.00    -0.231 N 
ATOM     20  H10 NNH d          23.837 -13.759  -3.675  0.00  0.00     0.174 HD
ATOM     21  H11 NNH d          24.191 -14.312  -5.334  0.00  0.00     0.174 HD
ATOM     22  H9  NNH d          25.924 -13.190  -6.545  0.00  0.00     0.177 HD
BRANCH  18  23
ATOM     23  OH1 NNH d          24.832 -12.065  -2.468  0.00  0.00    -0.252 OA
ATOM     24  H12 NNH d          24.131 -12.677  -2.657  0.00  0.00     0.247 HD
ENDBRANCH  18  23
ENDBRANCH  13  16
ENDBRANCH   1  13
TORSDOF 6
ENDMDL
MODEL 4
REMARK VINA RESULT:      -5.5      1.788      2.072
REMARK  6 active torsions:
REMARK  status: ('A' for Active; 'I' for Inactive)
REMARK    1  A    between atoms: N_1  and  CA_2 
REMARK    2  A    between atoms: CA_2  and  C_3 
REMARK    3  A    between atoms: CA_2  and  CB_5 
REMARK    4  A    between atoms: CB_5  and  CG_6 
REMARK    5  A    between atoms: CG_6  and  ND_7 
REMARK       I    between atoms: ND_7  and  CE_8 
REMARK       I    between atoms: CE_8  and  NH1_9 
REMARK    6  A    between atoms: NH1_9  and  OH1_11 
ROOT
ATOM      1  CB  NNH d          26.333 -10.845  -5.712  0.00  0.00    -0.014 C 
ATOM      2  H5  NNH d          27.385 -10.530  -5.644  0.00  0.00     0.039 H 
ATOM      3  H6  NNH d          25.928 -10.562  -6.695  0.00  0.00     0.039 H 
ENDROOT
BRANCH   1   4
ATOM      4  CA  NNH d          25.597  -9.970  -4.719  0.00  0.00     0.184 C 
ATOM      5  H4  NNH d          24.526  -9.951  -4.969  0.00  0.00     0.101 H 
BRANCH   4   6
ATOM      6  N   NNH d          26.146  -8.632  -4.859  0.00  0.00    -0.065 N 
ATOM      7  H1  NNH d          25.420  -7.952  -4.697  0.00  0.00     0.275 HD
ATOM      8  H2  NNH d          26.513  -8.515  -5.791  0.00  0.00     0.275 HD
ATOM      9  H3  NNH d          26.886  -8.500  -4.188  0.00  0.00     0.275 HD
ENDBRANCH   4   6
BRANCH   4  10
ATOM     10  C   NNH d          25.753 -10.518  -3.291  0.00  0.00     0.204 C 
ATOM     11  O   NNH d          24.855 -10.929  -2.585  0.00  0.00    -0.646 OA
ATOM     12  OXT NNH d          27.042 -10.493  -2.882  0.00  0.00    -0.646 OA
ENDBRANCH   4  10
ENDBRANCH   1   4
BRANCH   1  13
ATOM     13  CG  NNH d          26.379 -12.337  -5.730  0.00  0.00     0.012 C 
ATOM     14  H7  NNH d          27.279 -12.655  -5.183  0.00  0.00     0.065 H 
ATOM     15  H8  NNH d          26.453 -12.660  -6.780  0.00  0.00     0.065 H 
BRANCH  13  16
ATOM     16  ND  NNH d          25.211 -13.018  -5.125  0.00  0.00    -0.223 N 
ATOM     17  CE  NNH d          24.959 -14.351  -5.022  0.00  0.00     0.716 C 
ATOM     18  NH1 NNH d          25.905 -15.279  -5.544  0.00  0.00     0.058 NA
ATOM     19  NH2 NNH d          23.855 -14.874  -4.448  0.00  0.00    -0.231 N 
ATOM     20  H10 NNH d          23.731 -15.895  -4.406  0.00  0.00     0.174 HD
ATOM     21  H11 NNH d          23.136 -14.250  -4.052  0.00  0.00     0.174 HD
ATOM     22  H9  NNH d          24.492 -12.398  -4.727  0.00  0.00     0.177 HD
BRANCH  18  23
ATOM     23  OH1 NNH d          25.680 -16.538  -5.455  0.00  0.00    -0.252 OA
ATOM     24  H12 NNH d          24.747 -16.685  -5.356  0.00  0.00     0.247 HD
ENDBRANCH  18  23
ENDBRANCH  13  16
ENDBRANCH   1  13
TORSDOF 6
ENDMDL
MODEL 5
REMARK VINA RESULT:      -4.9      2.099      5.582
REMARK  6 active torsions:
REMARK  status: ('A' for Active; 'I' for Inactive)
REMARK    1  A    between atoms: N_1  and  CA_2 
REMARK    2  A    between atoms: CA_2  and  C_3 
REMARK    3  A    between atoms: CA_2  and  CB_5 
REMARK    4  A    between atoms: CB_5  and  CG_6 
REMARK    5  A    between atoms: CG_6  and  ND_7 
REMARK       I    between atoms: ND_7  and  CE_8 
REMARK       I    between atoms: CE_8  and  NH1_9 
REMARK    6  A    between atoms: NH1_9  and  OH1_11 
ROOT
ATOM      1  CB  NNH d          25.569 -14.000  -5.408  0.00  0.00    -0.014 C 
ATOM      2  H5  NNH d          25.402 -13.661  -6.442  0.00  0.00     0.039 H 
ATOM      3  H6  NNH d          26.575 -13.698  -5.081  0.00  0.00     0.039 H 
ENDROOT
BRANCH   1   4
ATOM      4  CA  NNH d          25.624 -15.510  -5.496  0.00  0.00     0.184 C 
ATOM      5  H4  NNH d          26.657 -15.852  -5.331  0.00  0.00     0.101 H 
BRANCH   4   6
ATOM      6  N   NNH d          25.213 -15.863  -6.845  0.00  0.00    -0.065 N 
ATOM      7  H1  NNH d          25.587 -16.768  -7.084  0.00  0.00     0.275 HD
ATOM      8  H2  NNH d          25.561 -15.174  -7.493  0.00  0.00     0.275 HD
ATOM      9  H3  NNH d          24.207 -15.892  -6.893  0.00  0.00     0.275 HD
ENDBRANCH   4   6
BRANCH   4  10
ATOM     10  C   NNH d          24.724 -16.151  -4.426  0.00  0.00     0.204 C 
ATOM     11  O   NNH d          23.563 -16.473  -4.574  0.00  0.00    -0.646 OA
ATOM     12  OXT NNH d          25.382 -16.328  -3.258  0.00  0.00    -0.646 OA
ENDBRANCH   4  10
ENDBRANCH   1   4
BRANCH   1  13
ATOM     13  CG  NNH d          24.634 -13.184  -4.580  0.00  0.00     0.012 C 
ATOM     14  H7  NNH d          23.907 -13.868  -4.117  0.00  0.00     0.065 H 
ATOM     15  H8  NNH d          24.109 -12.487  -5.250  0.00  0.00     0.065 H 
BRANCH  13  16
ATOM     16  ND  NNH d          25.266 -12.391  -3.500  0.00  0.00    -0.223 N 
ATOM     17  CE  NNH d          25.108 -11.072  -3.205  0.00  0.00     0.716 C 
ATOM     18  NH1 NNH d          24.228 -10.283  -3.999  0.00  0.00     0.058 NA
ATOM     19  NH2 NNH d          25.736 -10.440  -2.191  0.00  0.00    -0.231 N 
ATOM     20  H10 NNH d          25.568  -9.437  -2.027  0.00  0.00     0.174 HD
ATOM     21  H11 NNH d          26.384 -10.960  -1.582  0.00  0.00     0.174 HD
ATOM     22  H9  NNH d          25.912 -12.908  -2.889  0.00  0.00     0.177 HD
BRANCH  18  23
ATOM     23  OH1 NNH d          24.071  -9.038  -3.734  0.00  0.00    -0.252 OA
ATOM     24  H12 NNH d          24.858  -8.563  -3.972  0.00  0.00     0.247 HD
ENDBRANCH  18  23
ENDBRANCH  13  16
ENDBRANCH   1  13
TORSDOF 6
ENDMDL
MODEL 6
REMARK VINA RESULT:      -4.8      2.078      2.854
REMARK  6 active torsions:
REMARK  status: ('A' for Active; 'I' for Inactive)
REMARK    1  A    between atoms: N_1  and  CA_2 
REMARK    2  A    between atoms: CA_2  and  C_3 
REMARK    3  A    between atoms: CA_2  and  CB_5 
REMARK    4  A    between atoms: CB_5  and  CG_6 
REMARK    5  A    between atoms: CG_6  and  ND_7 
REMARK       I    between atoms: ND_7  and  CE_8 
REMARK       I    between atoms: CE_8  and  NH1_9 
REMARK    6  A    between atoms: NH1_9  and  OH1_11 
ROOT
ATOM      1  CB  NNH d          23.673 -10.177  -4.432  0.00  0.00    -0.014 C 
ATOM      2  H5  NNH d          22.889  -9.413  -4.542  0.00  0.00     0.039 H 
ATOM      3  H6  NNH d          23.315 -10.978  -3.768  0.00  0.00     0.039 H 
ENDROOT
BRANCH   1   4
ATOM      4  CA  NNH d          24.779  -9.493  -3.658  0.00  0.00     0.184 C 
ATOM      5  H4  NNH d          24.350  -8.706  -3.020  0.00  0.00     0.101 H 
BRANCH   4   6
ATOM      6  N   NNH d          25.659  -8.885  -4.642  0.00  0.00    -0.065 N 
ATOM      7  H1  NNH d          26.043  -9.601  -5.238  0.00  0.00     0.275 HD
ATOM      8  H2  NNH d          26.409  -8.404  -4.169  0.00  0.00     0.275 HD
ATOM      9  H3  NNH d          25.137  -8.228  -5.200  0.00  0.00     0.275 HD
ENDBRANCH   4   6
BRANCH   4  10
ATOM     10  C   NNH d          25.517 -10.499  -2.759  0.00  0.00     0.204 C 
ATOM     11  O   NNH d          26.721 -10.602  -2.647  0.00  0.00    -0.646 OA
ATOM     12  OXT NNH d          24.657 -11.289  -2.079  0.00  0.00    -0.646 OA
ENDBRANCH   4  10
ENDBRANCH   1   4
BRANCH   1  13
ATOM     13  CG  NNH d          23.781 -10.813  -5.778  0.00  0.00     0.012 C 
ATOM     14  H7  NNH d          23.678 -10.022  -6.536  0.00  0.00     0.065 H 
ATOM     15  H8  NNH d          22.953 -11.531  -5.881  0.00  0.00     0.065 H 
BRANCH  13  16
ATOM     16  ND  NNH d          25.047 -11.536  -6.042  0.00  0.00    -0.223 N 
ATOM     17  CE  NNH d          25.446 -12.754  -5.585  0.00  0.00     0.716 C 
ATOM     18  NH1 NNH d          24.579 -13.495  -4.733  0.00  0.00     0.058 NA
ATOM     19  NH2 NNH d          26.631 -13.327  -5.887  0.00  0.00    -0.231 N 
ATOM     20  H10 NNH d          26.866 -14.254  -5.504  0.00  0.00     0.174 HD
ATOM     21  H11 NNH d          27.299 -12.838  -6.500  0.00  0.00     0.174 HD
ATOM     22  H9  NNH d          25.715 -11.050  -6.656  0.00  0.00     0.177 HD
BRANCH  18  23
ATOM     23  OH1 NNH d          24.943 -14.643  -4.294  0.00  0.00    -0.252 OA
ATOM     24  H12 NNH d          25.316 -15.149  -5.006  0.00  0.00     0.247 HD
ENDBRANCH  18  23
ENDBRANCH  13  16
ENDBRANCH   1  13
TORSDOF 6
ENDMDL
MODEL 7
REMARK VINA RESULT:      -4.6      2.914      4.372
REMARK  6 active torsions:
REMARK  status: ('A' for Active; 'I' for Inactive)
REMARK    1  A    between atoms: N_1  and  CA_2 
REMARK    2  A    between atoms: CA_2  and  C_3 
REMARK    3  A    between atoms: CA_2  and  CB_5 
REMARK    4  A    between atoms: CB_5  and  CG_6 
REMARK    5  A    between atoms: CG_6  and  ND_7 
REMARK       I    between atoms: ND_7  and  CE_8 
REMARK       I    between atoms: CE_8  and  NH1_9 
REMARK    6  A    between atoms: NH1_9  and  OH1_11 
ROOT
ATOM      1  CB  NNH d          25.569 -12.703  -5.980  0.00  0.00    -0.014 C 
ATOM      2  H5  NNH d          26.431 -13.366  -5.812  0.00  0.00     0.039 H 
ATOM      3  H6  NNH d          24.911 -13.143  -6.743  0.00  0.00     0.039 H 
ENDROOT
BRANCH   1   4
ATOM      4  CA  NNH d          26.149 -11.465  -6.630  0.00  0.00     0.184 C 
ATOM      5  H4  NNH d          26.549 -11.723  -7.622  0.00  0.00     0.101 H 
BRANCH   4   6
ATOM      6  N   NNH d          27.237 -11.019  -5.776  0.00  0.00    -0.065 N 
ATOM      7  H1  NNH d          27.172 -11.477  -4.881  0.00  0.00     0.275 HD
ATOM      8  H2  NNH d          27.175 -10.021  -5.648  0.00  0.00     0.275 HD
ATOM      9  H3  NNH d          28.119 -11.248  -6.208  0.00  0.00     0.275 HD
ENDBRANCH   4   6
BRANCH   4  10
ATOM     10  C   NNH d          25.067 -10.386  -6.808  0.00  0.00     0.204 C 
ATOM     11  O   NNH d          23.879 -10.588  -6.953  0.00  0.00    -0.646 OA
ATOM     12  OXT NNH d          25.593  -9.141  -6.786  0.00  0.00    -0.646 OA
ENDBRANCH   4  10
ENDBRANCH   1   4
BRANCH   1  13
ATOM     13  CG  NNH d          24.784 -12.766  -4.712  0.00  0.00     0.012 C 
ATOM     14  H7  NNH d          24.700 -13.823  -4.417  0.00  0.00     0.065 H 
ATOM     15  H8  NNH d          23.781 -12.360  -4.915  0.00  0.00     0.065 H 
BRANCH  13  16
ATOM     16  ND  NNH d          25.355 -12.017  -3.570  0.00  0.00    -0.223 N 
ATOM     17  CE  NNH d          25.062 -10.760  -3.139  0.00  0.00     0.716 C 
ATOM     18  NH1 NNH d          24.078 -10.000  -3.833  0.00  0.00     0.058 NA
ATOM     19  NH2 NNH d          25.647 -10.164  -2.079  0.00  0.00    -0.231 N 
ATOM     20  H10 NNH d          25.374  -9.208  -1.810  0.00  0.00     0.174 HD
ATOM     21  H11 NNH d          26.366 -10.666  -1.537  0.00  0.00     0.174 HD
ATOM     22  H9  NNH d          26.073 -12.516  -3.026  0.00  0.00     0.177 HD
BRANCH  18  23
ATOM     23  OH1 NNH d          23.792  -8.814  -3.439  0.00  0.00    -0.252 OA
ATOM     24  H12 NNH d          23.826  -8.780  -2.491  0.00  0.00     0.247 HD
ENDBRANCH  18  23
ENDBRANCH  13  16
ENDBRANCH   1  13
TORSDOF 6
ENDMDL
