MODEL 1
REMARK VINA RESULT:      -8.7      0.000      0.000
REMARK  13 active torsions:
REMARK  status: ('A' for Active; 'I' for Inactive)
REMARK    1  A    between atoms: CA_2  and  N_1 
REMARK    2  A    between atoms: P_3  and  CA_2 
REMARK    3  A    between atoms: CA_2  and  CB_6 
REMARK    4  A    between atoms: CM_13  and  P_3 
REMARK    5  A    between atoms: CB_6  and  CG_7 
REMARK    6  A    between atoms: CA_14  and  CM_13 
REMARK    7  A    between atoms: CA_14  and  CB_15 
REMARK    8  A    between atoms: C_22  and  CA_14 
REMARK    9  A    between atoms: CB_15  and  CG_16 
REMARK       I    between atoms: C_22  and  N_24 
REMARK   10  A    between atoms: N_24  and  CA_25 
REMARK   11  A    between atoms: CA_25  and  CB_28 
REMARK   12  A    between atoms: CA_25  and  C_26 
REMARK   13  A    between atoms: CB_28  and  CG_29 
ROOT
ATOM      1  CA  MOL d          36.267  41.957  -3.596  0.00  0.00     0.036 C 
ATOM      2  H14 MOL d          36.473  42.933  -4.061  0.00  0.00     0.056 H 
ENDROOT
BRANCH   1   3
ATOM      3  CM  MOL d          35.221  41.256  -4.485  0.00  0.00     0.021 C 
ATOM      4  H12 MOL d          35.392  40.171  -4.412  0.00  0.00     0.050 H 
ATOM      5  H13 MOL d          34.225  41.497  -4.085  0.00  0.00     0.050 H 
BRANCH   3   6
ATOM      6  P   MOL d          35.237  41.690  -6.190  0.00  0.00     0.138 P 
ATOM      7  O1P MOL d          36.465  42.486  -6.518  0.00  0.00    -0.666 OA
ATOM      8  O2P MOL d          34.075  42.518  -6.569  0.00  0.00    -0.666 OA
BRANCH   6   9
ATOM      9  CA  MOL d          35.107  40.112  -6.857  0.00  0.00     0.177 C 
ATOM     10  H4  MOL d          35.053  40.282  -7.942  0.00  0.00     0.101 H 
BRANCH   9  11
ATOM     11  N   MOL d          36.322  39.324  -6.549  0.00  0.00    -0.065 N 
ATOM     12  H1  MOL d          36.055  38.431  -6.167  0.00  0.00     0.275 HD
ATOM     13  H2  MOL d          36.883  39.823  -5.876  0.00  0.00     0.275 HD
ATOM     14  H3  MOL d          36.854  39.184  -7.393  0.00  0.00     0.275 HD
ENDBRANCH   9  11
BRANCH   9  15
ATOM     15  CB  MOL d          34.055  39.128  -6.553  0.00  0.00    -0.005 C 
ATOM     16  H5  MOL d          33.541  39.441  -5.632  0.00  0.00     0.044 H 
ATOM     17  H6  MOL d          34.529  38.149  -6.394  0.00  0.00     0.044 H 
BRANCH  15  18
ATOM     18  CG  MOL d          33.019  38.989  -7.663  0.00  0.00    -0.056 A 
ATOM     19  CD1 MOL d          32.111  37.922  -7.587  0.00  0.00    -0.077 A 
ATOM     20  CE1 MOL d          31.190  37.828  -8.634  0.00  0.00    -0.082 A 
ATOM     21  H7  MOL d          32.124  37.214  -6.766  0.00  0.00     0.084 H 
ATOM     22  CZ  MOL d          31.146  38.737  -9.681  0.00  0.00    -0.083 A 
ATOM     23  H9  MOL d          30.480  37.010  -8.628  0.00  0.00     0.083 H 
ATOM     24  CE2 MOL d          32.076  39.757  -9.687  0.00  0.00    -0.082 A 
ATOM     25  H11 MOL d          30.407  38.650 -10.468  0.00  0.00     0.083 H 
ATOM     26  CD2 MOL d          32.996  39.859  -8.732  0.00  0.00    -0.077 A 
ATOM     27  H10 MOL d          32.055  40.490 -10.485  0.00  0.00     0.083 H 
ATOM     28  H8  MOL d          33.744  40.642  -8.796  0.00  0.00     0.084 H 
ENDBRANCH  15  18
ENDBRANCH   9  15
ENDBRANCH   6   9
ENDBRANCH   3   6
ENDBRANCH   1   3
BRANCH   1  29
ATOM     29  CB  MOL d          35.660  42.223  -2.208  0.00  0.00    -0.029 C 
ATOM     30  H15 MOL d          35.381  41.252  -1.771  0.00  0.00     0.041 H 
ATOM     31  H16 MOL d          34.756  42.835  -2.347  0.00  0.00     0.041 H 
BRANCH  29  32
ATOM     32  CG  MOL d          36.557  42.935  -1.221  0.00  0.00    -0.057 A 
ATOM     33  CD1 MOL d          36.967  44.242  -1.437  0.00  0.00    -0.077 A 
ATOM     34  CE1 MOL d          37.792  44.893  -0.541  0.00  0.00    -0.082 A 
ATOM     35  H17 MOL d          36.633  44.763  -2.327  0.00  0.00     0.084 H 
ATOM     36  CZ  MOL d          38.205  44.223   0.595  0.00  0.00    -0.083 A 
ATOM     37  H19 MOL d          38.111  45.913  -0.726  0.00  0.00     0.083 H 
ATOM     38  CE2 MOL d          37.804  42.917   0.822  0.00  0.00    -0.082 A 
ATOM     39  H21 MOL d          38.845  44.722   1.313  0.00  0.00     0.083 H 
ATOM     40  CD2 MOL d          36.956  42.284  -0.065  0.00  0.00    -0.077 A 
ATOM     41  H20 MOL d          38.158  42.389   1.700  0.00  0.00     0.083 H 
ATOM     42  H18 MOL d          36.603  41.281   0.142  0.00  0.00     0.084 H 
ENDBRANCH  29  32
ENDBRANCH   1  29
BRANCH   1  43
ATOM     43  C   MOL d          37.618  41.240  -3.481  0.00  0.00     0.223 C 
ATOM     44  O   MOL d          38.692  41.782  -3.727  0.00  0.00    -0.273 OA
ATOM     45  N   MOL d          37.539  39.996  -3.071  0.00  0.00    -0.346 N 
ATOM     46  H22 MOL d          36.605  39.712  -2.855  0.00  0.00     0.163 HD
BRANCH  45  47
ATOM     47  CA  MOL d          38.514  38.946  -2.864  0.00  0.00     0.100 C 
ATOM     48  H23 MOL d          39.467  39.368  -2.513  0.00  0.00     0.090 H 
BRANCH  47  49
ATOM     49  CB  MOL d          37.960  38.018  -1.820  0.00  0.00    -0.013 C 
ATOM     50  H24 MOL d          37.030  37.619  -2.253  0.00  0.00     0.043 H 
ATOM     51  H25 MOL d          37.718  38.660  -0.961  0.00  0.00     0.043 H 
BRANCH  49  52
ATOM     52  CG  MOL d          38.660  36.834  -1.238  0.00  0.00    -0.056 A 
ATOM     53  CD1 MOL d          39.866  36.960  -0.579  0.00  0.00    -0.077 A 
ATOM     54  CE1 MOL d          40.522  35.881  -0.012  0.00  0.00    -0.082 A 
ATOM     55  H26 MOL d          40.317  37.942  -0.503  0.00  0.00     0.084 H 
ATOM     56  CZ  MOL d          39.943  34.628  -0.115  0.00  0.00    -0.083 A 
ATOM     57  H28 MOL d          41.467  36.015   0.502  0.00  0.00     0.083 H 
ATOM     58  CE2 MOL d          38.735  34.477  -0.777  0.00  0.00    -0.082 A 
ATOM     59  H30 MOL d          40.434  33.766   0.323  0.00  0.00     0.083 H 
ATOM     60  CD2 MOL d          38.094  35.569  -1.332  0.00  0.00    -0.077 A 
ATOM     61  H29 MOL d          38.288  33.493  -0.861  0.00  0.00     0.083 H 
ATOM     62  H27 MOL d          37.146  35.437  -1.841  0.00  0.00     0.084 H 
ENDBRANCH  49  52
ENDBRANCH  47  49
BRANCH  47  63
ATOM     63  C   MOL d          38.728  38.244  -4.207  0.00  0.00     0.197 C 
ATOM     64  O   MOL d          39.794  38.458  -4.814  0.00  0.00    -0.646 OA
ATOM     65  OXT MOL d          37.849  37.496  -4.628  0.00  0.00    -0.646 OA
ENDBRANCH  47  63
ENDBRANCH  45  47
ENDBRANCH   1  43
TORSDOF 13
ENDMDL
MODEL 2
REMARK VINA RESULT:      -8.2      1.347      7.420
REMARK  13 active torsions:
REMARK  status: ('A' for Active; 'I' for Inactive)
REMARK    1  A    between atoms: CA_2  and  N_1 
REMARK    2  A    between atoms: P_3  and  CA_2 
REMARK    3  A    between atoms: CA_2  and  CB_6 
REMARK    4  A    between atoms: CM_13  and  P_3 
REMARK    5  A    between atoms: CB_6  and  CG_7 
REMARK    6  A    between atoms: CA_14  and  CM_13 
REMARK    7  A    between atoms: CA_14  and  CB_15 
REMARK    8  A    between atoms: C_22  and  CA_14 
REMARK    9  A    between atoms: CB_15  and  CG_16 
REMARK       I    between atoms: C_22  and  N_24 
REMARK   10  A    between atoms: N_24  and  CA_25 
REMARK   11  A    between atoms: CA_25  and  CB_28 
REMARK   12  A    between atoms: CA_25  and  C_26 
REMARK   13  A    between atoms: CB_28  and  CG_29 
ROOT
ATOM      1  CA  MOL d          36.374  41.233  -3.551  0.00  0.00     0.036 C 
ATOM      2  H14 MOL d          35.747  40.332  -3.632  0.00  0.00     0.056 H 
ENDROOT
BRANCH   1   3
ATOM      3  CM  MOL d          37.711  40.788  -2.927  0.00  0.00     0.021 C 
ATOM      4  H12 MOL d          38.431  41.610  -3.054  0.00  0.00     0.050 H 
ATOM      5  H13 MOL d          37.539  40.613  -1.855  0.00  0.00     0.050 H 
BRANCH   3   6
ATOM      6  P   MOL d          38.432  39.331  -3.601  0.00  0.00     0.138 P 
ATOM      7  O1P MOL d          39.800  39.624  -4.141  0.00  0.00    -0.666 OA
ATOM      8  O2P MOL d          37.639  38.777  -4.717  0.00  0.00    -0.666 OA
BRANCH   6   9
ATOM      9  CA  MOL d          38.320  38.325  -2.213  0.00  0.00     0.177 C 
ATOM     10  H4  MOL d          39.317  38.390  -1.752  0.00  0.00     0.101 H 
BRANCH   9  11
ATOM     11  N   MOL d          37.314  38.863  -1.270  0.00  0.00    -0.065 N 
ATOM     12  H1  MOL d          37.555  39.810  -1.026  0.00  0.00     0.275 HD
ATOM     13  H2  MOL d          37.296  38.295  -0.438  0.00  0.00     0.275 HD
ATOM     14  H3  MOL d          36.405  38.850  -1.706  0.00  0.00     0.275 HD
ENDBRANCH   9  11
BRANCH   9  15
ATOM     15  CB  MOL d          37.969  36.896  -2.206  0.00  0.00    -0.005 C 
ATOM     16  H5  MOL d          38.141  36.490  -3.214  0.00  0.00     0.044 H 
ATOM     17  H6  MOL d          36.904  36.800  -1.949  0.00  0.00     0.044 H 
BRANCH  15  18
ATOM     18  CG  MOL d          38.783  36.077  -1.210  0.00  0.00    -0.056 A 
ATOM     19  CD1 MOL d          38.227  34.883  -0.729  0.00  0.00    -0.077 A 
ATOM     20  CE1 MOL d          39.005  34.176   0.193  0.00  0.00    -0.082 A 
ATOM     21  H7  MOL d          37.255  34.530  -1.052  0.00  0.00     0.084 H 
ATOM     22  CZ  MOL d          40.261  34.601   0.602  0.00  0.00    -0.083 A 
ATOM     23  H9  MOL d          38.610  33.254   0.606  0.00  0.00     0.083 H 
ATOM     24  CE2 MOL d          40.736  35.789   0.086  0.00  0.00    -0.082 A 
ATOM     25  H11 MOL d          40.848  34.020   1.302  0.00  0.00     0.083 H 
ATOM     26  CD2 MOL d          40.011  36.515  -0.761  0.00  0.00    -0.077 A 
ATOM     27  H10 MOL d          41.720  36.138   0.377  0.00  0.00     0.083 H 
ATOM     28  H8  MOL d          40.394  37.469  -1.106  0.00  0.00     0.084 H 
ENDBRANCH  15  18
ENDBRANCH   9  15
ENDBRANCH   6   9
ENDBRANCH   3   6
ENDBRANCH   1   3
BRANCH   1  29
ATOM     29  CB  MOL d          35.665  42.207  -2.595  0.00  0.00    -0.029 C 
ATOM     30  H15 MOL d          34.867  41.652  -2.078  0.00  0.00     0.041 H 
ATOM     31  H16 MOL d          35.220  43.011  -3.200  0.00  0.00     0.041 H 
BRANCH  29  32
ATOM     32  CG  MOL d          36.539  42.850  -1.541  0.00  0.00    -0.057 A 
ATOM     33  CD1 MOL d          37.205  44.040  -1.789  0.00  0.00    -0.077 A 
ATOM     34  CE1 MOL d          38.010  44.626  -0.832  0.00  0.00    -0.082 A 
ATOM     35  H17 MOL d          37.093  44.520  -2.754  0.00  0.00     0.084 H 
ATOM     36  CZ  MOL d          38.140  44.011   0.399  0.00  0.00    -0.083 A 
ATOM     37  H19 MOL d          38.531  45.554  -1.042  0.00  0.00     0.083 H 
ATOM     38  CE2 MOL d          37.481  42.820   0.659  0.00  0.00    -0.082 A 
ATOM     39  H21 MOL d          38.760  44.461   1.164  0.00  0.00     0.083 H 
ATOM     40  CD2 MOL d          36.656  42.257  -0.294  0.00  0.00    -0.077 A 
ATOM     41  H20 MOL d          37.614  42.329   1.616  0.00  0.00     0.083 H 
ATOM     42  H18 MOL d          36.102  41.354  -0.068  0.00  0.00     0.084 H 
ENDBRANCH  29  32
ENDBRANCH   1  29
BRANCH   1  43
ATOM     43  C   MOL d          36.471  41.820  -4.965  0.00  0.00     0.223 C 
ATOM     44  O   MOL d          37.136  42.815  -5.237  0.00  0.00    -0.273 OA
ATOM     45  N   MOL d          35.802  41.155  -5.877  0.00  0.00    -0.346 N 
ATOM     46  H22 MOL d          35.357  40.335  -5.517  0.00  0.00     0.163 HD
BRANCH  45  47
ATOM     47  CA  MOL d          35.569  41.352  -7.292  0.00  0.00     0.100 C 
ATOM     48  H23 MOL d          36.441  41.830  -7.763  0.00  0.00     0.090 H 
BRANCH  47  49
ATOM     49  CB  MOL d          35.345  39.998  -7.904  0.00  0.00    -0.013 C 
ATOM     50  H24 MOL d          36.085  39.339  -7.426  0.00  0.00     0.043 H 
ATOM     51  H25 MOL d          35.593  40.117  -8.968  0.00  0.00     0.043 H 
BRANCH  49  52
ATOM     52  CG  MOL d          34.065  39.229  -7.885  0.00  0.00    -0.056 A 
ATOM     53  CD1 MOL d          33.264  39.129  -9.005  0.00  0.00    -0.077 A 
ATOM     54  CE1 MOL d          32.087  38.403  -9.017  0.00  0.00    -0.082 A 
ATOM     55  H26 MOL d          33.571  39.640  -9.910  0.00  0.00     0.084 H 
ATOM     56  CZ  MOL d          31.698  37.755  -7.858  0.00  0.00    -0.083 A 
ATOM     57  H28 MOL d          31.482  38.343  -9.915  0.00  0.00     0.083 H 
ATOM     58  CE2 MOL d          32.483  37.846  -6.719  0.00  0.00    -0.082 A 
ATOM     59  H30 MOL d          30.781  37.177  -7.840  0.00  0.00     0.083 H 
ATOM     60  CD2 MOL d          33.659  38.572  -6.729  0.00  0.00    -0.077 A 
ATOM     61  H29 MOL d          32.172  37.343  -5.811  0.00  0.00     0.083 H 
ATOM     62  H27 MOL d          34.266  38.629  -5.833  0.00  0.00     0.084 H 
ENDBRANCH  49  52
ENDBRANCH  47  49
BRANCH  47  63
ATOM     63  C   MOL d          34.347  42.262  -7.435  0.00  0.00     0.197 C 
ATOM     64  O   MOL d          34.096  42.731  -8.561  0.00  0.00    -0.646 OA
ATOM     65  OXT MOL d          33.659  42.486  -6.442  0.00  0.00    -0.646 OA
ENDBRANCH  47  63
ENDBRANCH  45  47
ENDBRANCH   1  43
TORSDOF 13
ENDMDL
MODEL 3
REMARK VINA RESULT:      -7.8      2.369      8.385
REMARK  13 active torsions:
REMARK  status: ('A' for Active; 'I' for Inactive)
REMARK    1  A    between atoms: CA_2  and  N_1 
REMARK    2  A    between atoms: P_3  and  CA_2 
REMARK    3  A    between atoms: CA_2  and  CB_6 
REMARK    4  A    between atoms: CM_13  and  P_3 
REMARK    5  A    between atoms: CB_6  and  CG_7 
REMARK    6  A    between atoms: CA_14  and  CM_13 
REMARK    7  A    between atoms: CA_14  and  CB_15 
REMARK    8  A    between atoms: C_22  and  CA_14 
REMARK    9  A    between atoms: CB_15  and  CG_16 
REMARK       I    between atoms: C_22  and  N_24 
REMARK   10  A    between atoms: N_24  and  CA_25 
REMARK   11  A    between atoms: CA_25  and  CB_28 
REMARK   12  A    between atoms: CA_25  and  C_26 
REMARK   13  A    between atoms: CB_28  and  CG_29 
ROOT
ATOM      1  CA  MOL d          37.591  39.614  -4.696  0.00  0.00     0.036 C 
ATOM      2  H14 MOL d          38.411  40.193  -5.147  0.00  0.00     0.056 H 
ENDROOT
BRANCH   1   3
ATOM      3  CM  MOL d          37.055  40.450  -3.517  0.00  0.00     0.021 C 
ATOM      4  H12 MOL d          35.957  40.450  -3.577  0.00  0.00     0.050 H 
ATOM      5  H13 MOL d          37.372  39.958  -2.585  0.00  0.00     0.050 H 
BRANCH   3   6
ATOM      6  P   MOL d          37.590  42.125  -3.450  0.00  0.00     0.138 P 
ATOM      7  O1P MOL d          38.189  42.538  -4.761  0.00  0.00    -0.666 OA
ATOM      8  O2P MOL d          38.623  42.343  -2.417  0.00  0.00    -0.666 OA
BRANCH   6   9
ATOM      9  CA  MOL d          36.102  42.850  -2.988  0.00  0.00     0.177 C 
ATOM     10  H4  MOL d          35.769  43.381  -3.892  0.00  0.00     0.101 H 
BRANCH   9  11
ATOM     11  N   MOL d          35.109  41.807  -2.645  0.00  0.00    -0.065 N 
ATOM     12  H1  MOL d          34.820  41.329  -3.484  0.00  0.00     0.275 HD
ATOM     13  H2  MOL d          34.308  42.236  -2.210  0.00  0.00     0.275 HD
ATOM     14  H3  MOL d          35.524  41.145  -2.009  0.00  0.00     0.275 HD
ENDBRANCH   9  11
BRANCH   9  15
ATOM     15  CB  MOL d          35.907  43.793  -1.876  0.00  0.00    -0.005 C 
ATOM     16  H5  MOL d          34.842  43.794  -1.602  0.00  0.00     0.044 H 
ATOM     17  H6  MOL d          36.200  44.797  -2.214  0.00  0.00     0.044 H 
BRANCH  15  18
ATOM     18  CG  MOL d          36.725  43.443  -0.637  0.00  0.00    -0.056 A 
ATOM     19  CD1 MOL d          36.336  42.325   0.116  0.00  0.00    -0.077 A 
ATOM     20  CE1 MOL d          37.108  42.054   1.250  0.00  0.00    -0.082 A 
ATOM     21  H7  MOL d          35.489  41.710  -0.164  0.00  0.00     0.084 H 
ATOM     22  CZ  MOL d          38.208  42.819   1.612  0.00  0.00    -0.083 A 
ATOM     23  H9  MOL d          36.835  41.210   1.873  0.00  0.00     0.083 H 
ATOM     24  CE2 MOL d          38.524  43.905   0.822  0.00  0.00    -0.082 A 
ATOM     25  H11 MOL d          38.799  42.571   2.485  0.00  0.00     0.083 H 
ATOM     26  CD2 MOL d          37.791  44.223  -0.241  0.00  0.00    -0.077 A 
ATOM     27  H10 MOL d          39.387  44.511   1.074  0.00  0.00     0.083 H 
ATOM     28  H8  MOL d          38.037  45.114  -0.809  0.00  0.00     0.084 H 
ENDBRANCH  15  18
ENDBRANCH   9  15
ENDBRANCH   6   9
ENDBRANCH   3   6
ENDBRANCH   1   3
BRANCH   1  29
ATOM     29  CB  MOL d          38.188  38.302  -4.160  0.00  0.00    -0.029 C 
ATOM     30  H15 MOL d          37.460  37.498  -4.348  0.00  0.00     0.041 H 
ATOM     31  H16 MOL d          38.336  38.417  -3.075  0.00  0.00     0.041 H 
BRANCH  29  32
ATOM     32  CG  MOL d          39.509  37.882  -4.765  0.00  0.00    -0.057 A 
ATOM     33  CD1 MOL d          40.714  38.300  -4.221  0.00  0.00    -0.077 A 
ATOM     34  CE1 MOL d          41.921  37.924  -4.776  0.00  0.00    -0.082 A 
ATOM     35  H17 MOL d          40.708  38.934  -3.343  0.00  0.00     0.084 H 
ATOM     36  CZ  MOL d          41.918  37.108  -5.891  0.00  0.00    -0.083 A 
ATOM     37  H19 MOL d          42.856  38.264  -4.345  0.00  0.00     0.083 H 
ATOM     38  CE2 MOL d          40.721  36.684  -6.446  0.00  0.00    -0.082 A 
ATOM     39  H21 MOL d          42.857  36.796  -6.334  0.00  0.00     0.083 H 
ATOM     40  CD2 MOL d          39.520  37.042  -5.867  0.00  0.00    -0.077 A 
ATOM     41  H20 MOL d          40.729  36.070  -7.338  0.00  0.00     0.083 H 
ATOM     42  H18 MOL d          38.589  36.666  -6.273  0.00  0.00     0.084 H 
ENDBRANCH  29  32
ENDBRANCH   1  29
BRANCH   1  43
ATOM     43  C   MOL d          36.584  39.344  -5.821  0.00  0.00     0.223 C 
ATOM     44  O   MOL d          36.339  38.221  -6.251  0.00  0.00    -0.273 OA
ATOM     45  N   MOL d          35.981  40.415  -6.278  0.00  0.00    -0.346 N 
ATOM     46  H22 MOL d          36.241  41.250  -5.793  0.00  0.00     0.163 HD
BRANCH  45  47
ATOM     47  CA  MOL d          35.019  40.649  -7.335  0.00  0.00     0.100 C 
ATOM     48  H23 MOL d          35.352  40.180  -8.272  0.00  0.00     0.090 H 
BRANCH  47  49
ATOM     49  CB  MOL d          33.716  40.038  -6.900  0.00  0.00    -0.013 C 
ATOM     50  H24 MOL d          33.051  40.890  -6.696  0.00  0.00     0.043 H 
ATOM     51  H25 MOL d          33.942  39.516  -5.960  0.00  0.00     0.043 H 
BRANCH  49  52
ATOM     52  CG  MOL d          32.892  39.078  -7.693  0.00  0.00    -0.056 A 
ATOM     53  CD1 MOL d          32.411  37.908  -7.138  0.00  0.00    -0.077 A 
ATOM     54  CE1 MOL d          31.626  37.016  -7.846  0.00  0.00    -0.082 A 
ATOM     55  H26 MOL d          32.659  37.681  -6.108  0.00  0.00     0.084 H 
ATOM     56  CZ  MOL d          31.314  37.309  -9.162  0.00  0.00    -0.083 A 
ATOM     57  H28 MOL d          31.262  36.107  -7.379  0.00  0.00     0.083 H 
ATOM     58  CE2 MOL d          31.790  38.475  -9.741  0.00  0.00    -0.082 A 
ATOM     59  H30 MOL d          30.699  36.628  -9.739  0.00  0.00     0.083 H 
ATOM     60  CD2 MOL d          32.569  39.356  -9.015  0.00  0.00    -0.077 A 
ATOM     61  H29 MOL d          31.549  38.698 -10.774  0.00  0.00     0.083 H 
ATOM     62  H27 MOL d          32.929  40.267  -9.479  0.00  0.00     0.084 H 
ENDBRANCH  49  52
ENDBRANCH  47  49
BRANCH  47  63
ATOM     63  C   MOL d          34.909  42.163  -7.531  0.00  0.00     0.197 C 
ATOM     64  O   MOL d          35.107  42.896  -6.544  0.00  0.00    -0.646 OA
ATOM     65  OXT MOL d          34.641  42.595  -8.650  0.00  0.00    -0.646 OA
ENDBRANCH  47  63
ENDBRANCH  45  47
ENDBRANCH   1  43
TORSDOF 13
ENDMDL
MODEL 4
REMARK VINA RESULT:      -7.8      1.509      2.237
REMARK  13 active torsions:
REMARK  status: ('A' for Active; 'I' for Inactive)
REMARK    1  A    between atoms: CA_2  and  N_1 
REMARK    2  A    between atoms: P_3  and  CA_2 
REMARK    3  A    between atoms: CA_2  and  CB_6 
REMARK    4  A    between atoms: CM_13  and  P_3 
REMARK    5  A    between atoms: CB_6  and  CG_7 
REMARK    6  A    between atoms: CA_14  and  CM_13 
REMARK    7  A    between atoms: CA_14  and  CB_15 
REMARK    8  A    between atoms: C_22  and  CA_14 
REMARK    9  A    between atoms: CB_15  and  CG_16 
REMARK       I    between atoms: C_22  and  N_24 
REMARK   10  A    between atoms: N_24  and  CA_25 
REMARK   11  A    between atoms: CA_25  and  CB_28 
REMARK   12  A    between atoms: CA_25  and  C_26 
REMARK   13  A    between atoms: CB_28  and  CG_29 
ROOT
ATOM      1  CA  MOL d          36.158  41.886  -4.154  0.00  0.00     0.036 C 
ATOM      2  H14 MOL d          36.270  42.908  -4.546  0.00  0.00     0.056 H 
ENDROOT
BRANCH   1   3
ATOM      3  CM  MOL d          35.233  41.135  -5.132  0.00  0.00     0.021 C 
ATOM      4  H12 MOL d          35.674  40.144  -5.316  0.00  0.00     0.050 H 
ATOM      5  H13 MOL d          34.255  41.017  -4.644  0.00  0.00     0.050 H 
BRANCH   3   6
ATOM      6  P   MOL d          34.969  41.905  -6.692  0.00  0.00     0.138 P 
ATOM      7  O1P MOL d          36.259  42.435  -7.242  0.00  0.00    -0.666 OA
ATOM      8  O2P MOL d          34.037  43.047  -6.603  0.00  0.00    -0.666 OA
BRANCH   6   9
ATOM      9  CA  MOL d          34.237  40.582  -7.508  0.00  0.00     0.177 C 
ATOM     10  H4  MOL d          33.627  40.092  -6.735  0.00  0.00     0.101 H 
BRANCH   9  11
ATOM     11  N   MOL d          33.351  41.073  -8.587  0.00  0.00    -0.065 N 
ATOM     12  H1  MOL d          32.588  41.594  -8.185  0.00  0.00     0.275 HD
ATOM     13  H2  MOL d          32.986  40.289  -9.105  0.00  0.00     0.275 HD
ATOM     14  H3  MOL d          33.876  41.671  -9.206  0.00  0.00     0.275 HD
ENDBRANCH   9  11
BRANCH   9  15
ATOM     15  CB  MOL d          34.946  39.496  -8.205  0.00  0.00    -0.005 C 
ATOM     16  H5  MOL d          36.014  39.557  -7.951  0.00  0.00     0.044 H 
ATOM     17  H6  MOL d          34.818  39.636  -9.289  0.00  0.00     0.044 H 
BRANCH  15  18
ATOM     18  CG  MOL d          34.438  38.107  -7.834  0.00  0.00    -0.056 A 
ATOM     19  CD1 MOL d          35.282  37.012  -8.070  0.00  0.00    -0.077 A 
ATOM     20  CE1 MOL d          34.767  35.758  -7.726  0.00  0.00    -0.082 A 
ATOM     21  H7  MOL d          36.273  37.130  -8.493  0.00  0.00     0.084 H 
ATOM     22  CZ  MOL d          33.510  35.590  -7.164  0.00  0.00    -0.083 A 
ATOM     23  H9  MOL d          35.377  34.880  -7.906  0.00  0.00     0.083 H 
ATOM     24  CE2 MOL d          32.738  36.716  -6.967  0.00  0.00    -0.082 A 
ATOM     25  H11 MOL d          33.147  34.607  -6.890  0.00  0.00     0.083 H 
ATOM     26  CD2 MOL d          33.173  37.923  -7.319  0.00  0.00    -0.077 A 
ATOM     27  H10 MOL d          31.757  36.615  -6.516  0.00  0.00     0.083 H 
ATOM     28  H8  MOL d          32.519  38.779  -7.197  0.00  0.00     0.084 H 
ENDBRANCH  15  18
ENDBRANCH   9  15
ENDBRANCH   6   9
ENDBRANCH   3   6
ENDBRANCH   1   3
BRANCH   1  29
ATOM     29  CB  MOL d          35.471  41.988  -2.781  0.00  0.00    -0.029 C 
ATOM     30  H15 MOL d          35.245  40.967  -2.440  0.00  0.00     0.041 H 
ATOM     31  H16 MOL d          34.532  42.546  -2.914  0.00  0.00     0.041 H 
BRANCH  29  32
ATOM     32  CG  MOL d          36.268  42.674  -1.693  0.00  0.00    -0.057 A 
ATOM     33  CD1 MOL d          36.701  41.979  -0.574  0.00  0.00    -0.077 A 
ATOM     34  CE1 MOL d          37.422  42.603   0.424  0.00  0.00    -0.082 A 
ATOM     35  H17 MOL d          36.468  40.924  -0.481  0.00  0.00     0.084 H 
ATOM     36  CZ  MOL d          37.722  43.946   0.292  0.00  0.00    -0.083 A 
ATOM     37  H19 MOL d          37.749  42.049   1.297  0.00  0.00     0.083 H 
ATOM     38  CE2 MOL d          37.294  44.652  -0.820  0.00  0.00    -0.082 A 
ATOM     39  H21 MOL d          38.295  44.449   1.062  0.00  0.00     0.083 H 
ATOM     40  CD2 MOL d          36.597  44.012  -1.827  0.00  0.00    -0.077 A 
ATOM     41  H20 MOL d          37.506  45.712  -0.901  0.00  0.00     0.083 H 
ATOM     42  H18 MOL d          36.310  44.556  -2.718  0.00  0.00     0.084 H 
ENDBRANCH  29  32
ENDBRANCH   1  29
BRANCH   1  43
ATOM     43  C   MOL d          37.576  41.318  -4.021  0.00  0.00     0.223 C 
ATOM     44  O   MOL d          38.579  42.020  -3.934  0.00  0.00    -0.273 OA
ATOM     45  N   MOL d          37.634  40.007  -3.983  0.00  0.00    -0.346 N 
ATOM     46  H22 MOL d          36.734  39.574  -4.007  0.00  0.00     0.163 HD
BRANCH  45  47
ATOM     47  CA  MOL d          38.722  39.054  -3.915  0.00  0.00     0.100 C 
ATOM     48  H23 MOL d          39.691  39.568  -3.999  0.00  0.00     0.090 H 
BRANCH  47  49
ATOM     49  CB  MOL d          38.632  38.363  -2.583  0.00  0.00    -0.013 C 
ATOM     50  H24 MOL d          37.709  37.765  -2.631  0.00  0.00     0.043 H 
ATOM     51  H25 MOL d          38.507  39.170  -1.847  0.00  0.00     0.043 H 
BRANCH  49  52
ATOM     52  CG  MOL d          39.659  37.453  -1.997  0.00  0.00    -0.056 A 
ATOM     53  CD1 MOL d          39.404  36.711  -0.861  0.00  0.00    -0.077 A 
ATOM     54  CE1 MOL d          40.333  35.844  -0.313  0.00  0.00    -0.082 A 
ATOM     55  H26 MOL d          38.438  36.811  -0.380  0.00  0.00     0.084 H 
ATOM     56  CZ  MOL d          41.566  35.721  -0.929  0.00  0.00    -0.083 A 
ATOM     57  H28 MOL d          40.099  35.273   0.578  0.00  0.00     0.083 H 
ATOM     58  CE2 MOL d          41.847  36.461  -2.067  0.00  0.00    -0.082 A 
ATOM     59  H30 MOL d          42.312  35.047  -0.522  0.00  0.00     0.083 H 
ATOM     60  CD2 MOL d          40.903  37.318  -2.601  0.00  0.00    -0.077 A 
ATOM     61  H29 MOL d          42.816  36.367  -2.543  0.00  0.00     0.083 H 
ATOM     62  H27 MOL d          41.134  37.885  -3.496  0.00  0.00     0.084 H 
ENDBRANCH  49  52
ENDBRANCH  47  49
BRANCH  47  63
ATOM     63  C   MOL d          38.556  38.081  -5.085  0.00  0.00     0.197 C 
ATOM     64  O   MOL d          37.403  37.713  -5.379  0.00  0.00    -0.646 OA
ATOM     65  OXT MOL d          39.559  37.708  -5.689  0.00  0.00    -0.646 OA
ENDBRANCH  47  63
ENDBRANCH  45  47
ENDBRANCH   1  43
TORSDOF 13
ENDMDL
MODEL 5
REMARK VINA RESULT:      -7.6      2.924      7.196
REMARK  13 active torsions:
REMARK  status: ('A' for Active; 'I' for Inactive)
REMARK    1  A    between atoms: CA_2  and  N_1 
REMARK    2  A    between atoms: P_3  and  CA_2 
REMARK    3  A    between atoms: CA_2  and  CB_6 
REMARK    4  A    between atoms: CM_13  and  P_3 
REMARK    5  A    between atoms: CB_6  and  CG_7 
REMARK    6  A    between atoms: CA_14  and  CM_13 
REMARK    7  A    between atoms: CA_14  and  CB_15 
REMARK    8  A    between atoms: C_22  and  CA_14 
REMARK    9  A    between atoms: CB_15  and  CG_16 
REMARK       I    between atoms: C_22  and  N_24 
REMARK   10  A    between atoms: N_24  and  CA_25 
REMARK   11  A    between atoms: CA_25  and  CB_28 
REMARK   12  A    between atoms: CA_25  and  C_26 
REMARK   13  A    between atoms: CB_28  and  CG_29 
ROOT
ATOM      1  CA  MOL d          37.999  39.821  -4.026  0.00  0.00     0.036 C 
ATOM      2  H14 MOL d          37.581  39.354  -3.122  0.00  0.00     0.056 H 
ENDROOT
BRANCH   1   3
ATOM      3  CM  MOL d          39.459  39.338  -4.139  0.00  0.00     0.021 C 
ATOM      4  H12 MOL d          39.667  39.144  -5.202  0.00  0.00     0.050 H 
ATOM      5  H13 MOL d          40.109  40.149  -3.780  0.00  0.00     0.050 H 
BRANCH   3   6
ATOM      6  P   MOL d          39.864  37.883  -3.237  0.00  0.00     0.138 P 
ATOM      7  O1P MOL d          38.850  37.632  -2.161  0.00  0.00    -0.666 OA
ATOM      8  O2P MOL d          41.179  37.982  -2.574  0.00  0.00    -0.666 OA
BRANCH   6   9
ATOM      9  CA  MOL d          39.924  36.777  -4.551  0.00  0.00     0.177 C 
ATOM     10  H4  MOL d          40.776  36.123  -4.314  0.00  0.00     0.101 H 
BRANCH   9  11
ATOM     11  N   MOL d          38.687  35.965  -4.592  0.00  0.00    -0.065 N 
ATOM     12  H1  MOL d          38.830  35.108  -4.081  0.00  0.00     0.275 HD
ATOM     13  H2  MOL d          38.458  35.750  -5.550  0.00  0.00     0.275 HD
ATOM     14  H3  MOL d          37.930  36.483  -4.174  0.00  0.00     0.275 HD
ENDBRANCH   9  11
BRANCH   9  15
ATOM     15  CB  MOL d          40.071  37.128  -5.972  0.00  0.00    -0.005 C 
ATOM     16  H5  MOL d          40.885  37.862  -6.067  0.00  0.00     0.044 H 
ATOM     17  H6  MOL d          39.130  37.577  -6.320  0.00  0.00     0.044 H 
BRANCH  15  18
ATOM     18  CG  MOL d          40.393  35.931  -6.861  0.00  0.00    -0.056 A 
ATOM     19  CD1 MOL d          41.670  35.359  -6.760  0.00  0.00    -0.077 A 
ATOM     20  CE1 MOL d          41.921  34.274  -7.604  0.00  0.00    -0.082 A 
ATOM     21  H7  MOL d          42.416  35.736  -6.070  0.00  0.00     0.084 H 
ATOM     22  CZ  MOL d          40.972  33.764  -8.478  0.00  0.00    -0.083 A 
ATOM     23  H9  MOL d          42.901  33.810  -7.574  0.00  0.00     0.083 H 
ATOM     24  CE2 MOL d          39.740  34.385  -8.521  0.00  0.00    -0.082 A 
ATOM     25  H11 MOL d          41.190  32.909  -9.105  0.00  0.00     0.083 H 
ATOM     26  CD2 MOL d          39.473  35.446  -7.766  0.00  0.00    -0.077 A 
ATOM     27  H10 MOL d          38.974  33.998  -9.185  0.00  0.00     0.083 H 
ATOM     28  H8  MOL d          38.513  35.940  -7.864  0.00  0.00     0.084 H 
ENDBRANCH  15  18
ENDBRANCH   9  15
ENDBRANCH   6   9
ENDBRANCH   3   6
ENDBRANCH   1   3
BRANCH   1  29
ATOM     29  CB  MOL d          37.983  41.345  -3.813  0.00  0.00    -0.029 C 
ATOM     30  H15 MOL d          37.312  41.784  -4.566  0.00  0.00     0.041 H 
ATOM     31  H16 MOL d          39.006  41.718  -3.969  0.00  0.00     0.041 H 
BRANCH  29  32
ATOM     32  CG  MOL d          37.520  41.815  -2.451  0.00  0.00    -0.057 A 
ATOM     33  CD1 MOL d          37.338  43.163  -2.181  0.00  0.00    -0.077 A 
ATOM     34  CE1 MOL d          36.924  43.596  -0.937  0.00  0.00    -0.082 A 
ATOM     35  H17 MOL d          37.526  43.891  -2.962  0.00  0.00     0.084 H 
ATOM     36  CZ  MOL d          36.679  42.659   0.049  0.00  0.00    -0.083 A 
ATOM     37  H19 MOL d          36.792  44.654  -0.737  0.00  0.00     0.083 H 
ATOM     38  CE2 MOL d          36.859  41.310  -0.208  0.00  0.00    -0.082 A 
ATOM     39  H21 MOL d          36.345  42.981   1.028  0.00  0.00     0.083 H 
ATOM     40  CD2 MOL d          37.246  40.884  -1.463  0.00  0.00    -0.077 A 
ATOM     41  H20 MOL d          36.695  40.585   0.581  0.00  0.00     0.083 H 
ATOM     42  H18 MOL d          37.336  39.825  -1.673  0.00  0.00     0.084 H 
ENDBRANCH  29  32
ENDBRANCH   1  29
BRANCH   1  43
ATOM     43  C   MOL d          37.081  39.416  -5.186  0.00  0.00     0.223 C 
ATOM     44  O   MOL d          36.990  38.265  -5.603  0.00  0.00    -0.273 OA
ATOM     45  N   MOL d          36.375  40.401  -5.689  0.00  0.00    -0.346 N 
ATOM     46  H22 MOL d          36.513  41.267  -5.211  0.00  0.00     0.163 HD
BRANCH  45  47
ATOM     47  CA  MOL d          35.438  40.502  -6.789  0.00  0.00     0.100 C 
ATOM     48  H23 MOL d          35.836  39.999  -7.682  0.00  0.00     0.090 H 
BRANCH  47  49
ATOM     49  CB  MOL d          34.164  39.831  -6.358  0.00  0.00    -0.013 C 
ATOM     50  H24 MOL d          33.547  40.633  -5.926  0.00  0.00     0.043 H 
ATOM     51  H25 MOL d          34.462  39.130  -5.564  0.00  0.00     0.043 H 
BRANCH  49  52
ATOM     52  CG  MOL d          33.241  39.056  -7.238  0.00  0.00    -0.056 A 
ATOM     53  CD1 MOL d          32.582  37.931  -6.784  0.00  0.00    -0.077 A 
ATOM     54  CE1 MOL d          31.704  37.211  -7.574  0.00  0.00    -0.082 A 
ATOM     55  H26 MOL d          32.761  37.599  -5.768  0.00  0.00     0.084 H 
ATOM     56  CZ  MOL d          31.482  37.637  -8.872  0.00  0.00    -0.083 A 
ATOM     57  H28 MOL d          31.201  36.333  -7.185  0.00  0.00     0.083 H 
ATOM     58  CE2 MOL d          32.136  38.761  -9.352  0.00  0.00    -0.082 A 
ATOM     59  H30 MOL d          30.797  37.093  -9.512  0.00  0.00     0.083 H 
ATOM     60  CD2 MOL d          33.006  39.469  -8.544  0.00  0.00    -0.077 A 
ATOM     61  H29 MOL d          31.964  39.088 -10.371  0.00  0.00     0.083 H 
ATOM     62  H27 MOL d          33.506  40.350  -8.931  0.00  0.00     0.084 H 
ENDBRANCH  49  52
ENDBRANCH  47  49
BRANCH  47  63
ATOM     63  C   MOL d          35.236  41.990  -7.086  0.00  0.00     0.197 C 
ATOM     64  O   MOL d          35.011  42.325  -8.264  0.00  0.00    -0.646 OA
ATOM     65  OXT MOL d          35.295  42.790  -6.155  0.00  0.00    -0.646 OA
ENDBRANCH  47  63
ENDBRANCH  45  47
ENDBRANCH   1  43
TORSDOF 13
ENDMDL
MODEL 6
REMARK VINA RESULT:      -7.5      1.465      8.196
REMARK  13 active torsions:
REMARK  status: ('A' for Active; 'I' for Inactive)
REMARK    1  A    between atoms: CA_2  and  N_1 
REMARK    2  A    between atoms: P_3  and  CA_2 
REMARK    3  A    between atoms: CA_2  and  CB_6 
REMARK    4  A    between atoms: CM_13  and  P_3 
REMARK    5  A    between atoms: CB_6  and  CG_7 
REMARK    6  A    between atoms: CA_14  and  CM_13 
REMARK    7  A    between atoms: CA_14  and  CB_15 
REMARK    8  A    between atoms: C_22  and  CA_14 
REMARK    9  A    between atoms: CB_15  and  CG_16 
REMARK       I    between atoms: C_22  and  N_24 
REMARK   10  A    between atoms: N_24  and  CA_25 
REMARK   11  A    between atoms: CA_25  and  CB_28 
REMARK   12  A    between atoms: CA_25  and  C_26 
REMARK   13  A    between atoms: CB_28  and  CG_29 
ROOT
ATOM      1  CA  MOL d          38.145  39.242  -4.728  0.00  0.00     0.036 C 
ATOM      2  H14 MOL d          38.722  40.090  -5.128  0.00  0.00     0.056 H 
ENDROOT
BRANCH   1   3
ATOM      3  CM  MOL d          37.644  39.667  -3.333  0.00  0.00     0.021 C 
ATOM      4  H12 MOL d          36.674  39.177  -3.162  0.00  0.00     0.050 H 
ATOM      5  H13 MOL d          38.372  39.307  -2.591  0.00  0.00     0.050 H 
BRANCH   3   6
ATOM      6  P   MOL d          37.428  41.394  -3.081  0.00  0.00     0.138 P 
ATOM      7  O1P MOL d          37.223  42.095  -4.391  0.00  0.00    -0.666 OA
ATOM      8  O2P MOL d          38.601  42.019  -2.438  0.00  0.00    -0.666 OA
BRANCH   6   9
ATOM      9  CA  MOL d          36.098  41.330  -1.995  0.00  0.00     0.177 C 
ATOM     10  H4  MOL d          35.272  40.935  -2.604  0.00  0.00     0.101 H 
BRANCH   9  11
ATOM     11  N   MOL d          36.384  40.384  -0.893  0.00  0.00    -0.065 N 
ATOM     12  H1  MOL d          35.926  39.505  -1.076  0.00  0.00     0.275 HD
ATOM     13  H2  MOL d          36.041  40.766  -0.025  0.00  0.00     0.275 HD
ATOM     14  H3  MOL d          37.379  40.236  -0.826  0.00  0.00     0.275 HD
ENDBRANCH   9  11
BRANCH   9  15
ATOM     15  CB  MOL d          35.537  42.465  -1.246  0.00  0.00    -0.005 C 
ATOM     16  H5  MOL d          34.895  42.071  -0.444  0.00  0.00     0.044 H 
ATOM     17  H6  MOL d          34.931  43.072  -1.935  0.00  0.00     0.044 H 
BRANCH  15  18
ATOM     18  CG  MOL d          36.600  43.361  -0.619  0.00  0.00    -0.056 A 
ATOM     19  CD1 MOL d          36.803  44.632  -1.176  0.00  0.00    -0.077 A 
ATOM     20  CE1 MOL d          37.797  45.410  -0.576  0.00  0.00    -0.082 A 
ATOM     21  H7  MOL d          36.224  44.989  -2.020  0.00  0.00     0.084 H 
ATOM     22  CZ  MOL d          38.532  44.978   0.519  0.00  0.00    -0.083 A 
ATOM     23  H9  MOL d          38.002  46.393  -0.983  0.00  0.00     0.083 H 
ATOM     24  CE2 MOL d          38.276  43.713   1.007  0.00  0.00    -0.082 A 
ATOM     25  H11 MOL d          39.282  45.613   0.975  0.00  0.00     0.083 H 
ATOM     26  CD2 MOL d          37.368  42.924   0.439  0.00  0.00    -0.077 A 
ATOM     27  H10 MOL d          38.825  43.356   1.870  0.00  0.00     0.083 H 
ATOM     28  H8  MOL d          37.229  41.917   0.816  0.00  0.00     0.084 H 
ENDBRANCH  15  18
ENDBRANCH   9  15
ENDBRANCH   6   9
ENDBRANCH   3   6
ENDBRANCH   1   3
BRANCH   1  29
ATOM     29  CB  MOL d          39.109  38.052  -4.582  0.00  0.00    -0.029 C 
ATOM     30  H15 MOL d          40.137  38.440  -4.651  0.00  0.00     0.041 H 
ATOM     31  H16 MOL d          38.921  37.362  -5.417  0.00  0.00     0.041 H 
BRANCH  29  32
ATOM     32  CG  MOL d          38.997  37.266  -3.294  0.00  0.00    -0.057 A 
ATOM     33  CD1 MOL d          38.153  36.171  -3.193  0.00  0.00    -0.077 A 
ATOM     34  CE1 MOL d          38.043  35.455  -2.017  0.00  0.00    -0.082 A 
ATOM     35  H17 MOL d          37.568  35.870  -4.054  0.00  0.00     0.084 H 
ATOM     36  CZ  MOL d          38.800  35.842  -0.927  0.00  0.00    -0.083 A 
ATOM     37  H19 MOL d          37.374  34.605  -1.950  0.00  0.00     0.083 H 
ATOM     38  CE2 MOL d          39.646  36.936  -1.015  0.00  0.00    -0.082 A 
ATOM     39  H21 MOL d          38.732  35.286   0.000  0.00  0.00     0.083 H 
ATOM     40  CD2 MOL d          39.770  37.627  -2.203  0.00  0.00    -0.077 A 
ATOM     41  H20 MOL d          40.212  37.250  -0.145  0.00  0.00     0.083 H 
ATOM     42  H18 MOL d          40.471  38.449  -2.282  0.00  0.00     0.084 H 
ENDBRANCH  29  32
ENDBRANCH   1  29
BRANCH   1  43
ATOM     43  C   MOL d          37.048  38.942  -5.757  0.00  0.00     0.223 C 
ATOM     44  O   MOL d          36.847  37.824  -6.221  0.00  0.00    -0.273 OA
ATOM     45  N   MOL d          36.317  39.979  -6.089  0.00  0.00    -0.346 N 
ATOM     46  H22 MOL d          36.561  40.809  -5.588  0.00  0.00     0.163 HD
BRANCH  45  47
ATOM     47  CA  MOL d          35.232  40.181  -7.027  0.00  0.00     0.100 C 
ATOM     48  H23 MOL d          35.523  39.845  -8.032  0.00  0.00     0.090 H 
BRANCH  47  49
ATOM     49  CB  MOL d          34.063  39.370  -6.543  0.00  0.00    -0.013 C 
ATOM     50  H24 MOL d          33.526  40.027  -5.842  0.00  0.00     0.043 H 
ATOM     51  H25 MOL d          34.505  38.528  -5.990  0.00  0.00     0.043 H 
BRANCH  49  52
ATOM     52  CG  MOL d          33.004  38.762  -7.401  0.00  0.00    -0.056 A 
ATOM     53  CD1 MOL d          32.648  39.317  -8.613  0.00  0.00    -0.077 A 
ATOM     54  CE1 MOL d          31.686  38.758  -9.436  0.00  0.00    -0.082 A 
ATOM     55  H26 MOL d          33.142  40.227  -8.934  0.00  0.00     0.084 H 
ATOM     56  CZ  MOL d          31.056  37.597  -9.021  0.00  0.00    -0.083 A 
ATOM     57  H28 MOL d          31.432  39.218 -10.384  0.00  0.00     0.083 H 
ATOM     58  CE2 MOL d          31.393  37.025  -7.805  0.00  0.00    -0.082 A 
ATOM     59  H30 MOL d          30.300  37.137  -9.647  0.00  0.00     0.083 H 
ATOM     60  CD2 MOL d          32.360  37.596  -7.001  0.00  0.00    -0.077 A 
ATOM     61  H29 MOL d          30.892  36.120  -7.481  0.00  0.00     0.083 H 
ATOM     62  H27 MOL d          32.618  37.134  -6.055  0.00  0.00     0.084 H 
ENDBRANCH  49  52
ENDBRANCH  47  49
BRANCH  47  63
ATOM     63  C   MOL d          34.923  41.680  -7.057  0.00  0.00     0.197 C 
ATOM     64  O   MOL d          35.558  42.392  -7.857  0.00  0.00    -0.646 OA
ATOM     65  OXT MOL d          34.059  42.119  -6.302  0.00  0.00    -0.646 OA
ENDBRANCH  47  63
ENDBRANCH  45  47
ENDBRANCH   1  43
TORSDOF 13
ENDMDL
MODEL 7
REMARK VINA RESULT:      -7.5      2.103      8.512
REMARK  13 active torsions:
REMARK  status: ('A' for Active; 'I' for Inactive)
REMARK    1  A    between atoms: CA_2  and  N_1 
REMARK    2  A    between atoms: P_3  and  CA_2 
REMARK    3  A    between atoms: CA_2  and  CB_6 
REMARK    4  A    between atoms: CM_13  and  P_3 
REMARK    5  A    between atoms: CB_6  and  CG_7 
REMARK    6  A    between atoms: CA_14  and  CM_13 
REMARK    7  A    between atoms: CA_14  and  CB_15 
REMARK    8  A    between atoms: C_22  and  CA_14 
REMARK    9  A    between atoms: CB_15  and  CG_16 
REMARK       I    between atoms: C_22  and  N_24 
REMARK   10  A    between atoms: N_24  and  CA_25 
REMARK   11  A    between atoms: CA_25  and  CB_28 
REMARK   12  A    between atoms: CA_25  and  C_26 
REMARK   13  A    between atoms: CB_28  and  CG_29 
ROOT
ATOM      1  CA  MOL d          37.211  39.980  -5.011  0.00  0.00     0.036 C 
ATOM      2  H14 MOL d          37.995  40.545  -5.536  0.00  0.00     0.056 H 
ENDROOT
BRANCH   1   3
ATOM      3  CM  MOL d          37.131  40.554  -3.582  0.00  0.00     0.021 C 
ATOM      4  H12 MOL d          36.079  40.514  -3.263  0.00  0.00     0.050 H 
ATOM      5  H13 MOL d          37.738  39.911  -2.928  0.00  0.00     0.050 H 
BRANCH   3   6
ATOM      6  P   MOL d          37.693  42.209  -3.382  0.00  0.00     0.138 P 
ATOM      7  O1P MOL d          38.373  42.688  -4.629  0.00  0.00    -0.666 OA
ATOM      8  O2P MOL d          38.669  42.341  -2.282  0.00  0.00    -0.666 OA
BRANCH   6   9
ATOM      9  CA  MOL d          36.195  42.937  -2.959  0.00  0.00     0.177 C 
ATOM     10  H4  MOL d          35.908  43.503  -3.858  0.00  0.00     0.101 H 
BRANCH   9  11
ATOM     11  N   MOL d          35.176  41.896  -2.695  0.00  0.00    -0.065 N 
ATOM     12  H1  MOL d          35.327  41.114  -3.313  0.00  0.00     0.275 HD
ATOM     13  H2  MOL d          34.257  42.278  -2.855  0.00  0.00     0.275 HD
ATOM     14  H3  MOL d          35.251  41.588  -1.739  0.00  0.00     0.275 HD
ENDBRANCH   9  11
BRANCH   9  15
ATOM     15  CB  MOL d          35.963  43.845  -1.824  0.00  0.00    -0.005 C 
ATOM     16  H5  MOL d          34.893  43.823  -1.573  0.00  0.00     0.044 H 
ATOM     17  H6  MOL d          36.248  44.863  -2.128  0.00  0.00     0.044 H 
BRANCH  15  18
ATOM     18  CG  MOL d          36.761  43.471  -0.579  0.00  0.00    -0.056 A 
ATOM     19  CD1 MOL d          37.840  44.291  -0.218  0.00  0.00    -0.077 A 
ATOM     20  CE1 MOL d          38.549  43.899   0.922  0.00  0.00    -0.082 A 
ATOM     21  H7  MOL d          38.109  45.173  -0.787  0.00  0.00     0.084 H 
ATOM     22  CZ  MOL d          38.206  42.786   1.676  0.00  0.00    -0.083 A 
ATOM     23  H9  MOL d          39.402  44.492   1.231  0.00  0.00     0.083 H 
ATOM     24  CE2 MOL d          37.134  42.028   1.252  0.00  0.00    -0.082 A 
ATOM     25  H11 MOL d          38.763  42.520   2.566  0.00  0.00     0.083 H 
ATOM     26  CD2 MOL d          36.459  42.341   0.150  0.00  0.00    -0.077 A 
ATOM     27  H10 MOL d          36.835  41.161   1.830  0.00  0.00     0.083 H 
ATOM     28  H8  MOL d          35.654  41.694  -0.182  0.00  0.00     0.084 H 
ENDBRANCH  15  18
ENDBRANCH   9  15
ENDBRANCH   6   9
ENDBRANCH   3   6
ENDBRANCH   1   3
BRANCH   1  29
ATOM     29  CB  MOL d          37.662  38.511  -4.944  0.00  0.00    -0.029 C 
ATOM     30  H15 MOL d          37.892  38.182  -5.969  0.00  0.00     0.041 H 
ATOM     31  H16 MOL d          36.825  37.918  -4.548  0.00  0.00     0.041 H 
BRANCH  29  32
ATOM     32  CG  MOL d          38.876  38.232  -4.086  0.00  0.00    -0.057 A 
ATOM     33  CD1 MOL d          40.151  38.567  -4.514  0.00  0.00    -0.077 A 
ATOM     34  CE1 MOL d          41.262  38.306  -3.736  0.00  0.00    -0.082 A 
ATOM     35  H17 MOL d          40.279  39.042  -5.480  0.00  0.00     0.084 H 
ATOM     36  CZ  MOL d          41.088  37.708  -2.503  0.00  0.00    -0.083 A 
ATOM     37  H19 MOL d          42.254  38.567  -4.087  0.00  0.00     0.083 H 
ATOM     38  CE2 MOL d          39.819  37.366  -2.064  0.00  0.00    -0.082 A 
ATOM     39  H21 MOL d          41.948  37.504  -1.876  0.00  0.00     0.083 H 
ATOM     40  CD2 MOL d          38.712  37.656  -2.837  0.00  0.00    -0.077 A 
ATOM     41  H20 MOL d          39.695  36.868  -1.109  0.00  0.00     0.083 H 
ATOM     42  H18 MOL d          37.718  37.434  -2.466  0.00  0.00     0.084 H 
ENDBRANCH  29  32
ENDBRANCH   1  29
BRANCH   1  43
ATOM     43  C   MOL d          35.936  40.129  -5.851  0.00  0.00     0.223 C 
ATOM     44  O   MOL d          35.179  41.091  -5.762  0.00  0.00    -0.273 OA
ATOM     45  N   MOL d          35.726  39.149  -6.697  0.00  0.00    -0.346 N 
ATOM     46  H22 MOL d          36.456  38.466  -6.696  0.00  0.00     0.163 HD
BRANCH  45  47
ATOM     47  CA  MOL d          34.664  38.844  -7.634  0.00  0.00     0.100 C 
ATOM     48  H23 MOL d          33.681  39.020  -7.173  0.00  0.00     0.090 H 
BRANCH  47  49
ATOM     49  CB  MOL d          34.836  39.752  -8.819  0.00  0.00    -0.013 C 
ATOM     50  H24 MOL d          35.010  39.081  -9.674  0.00  0.00     0.043 H 
ATOM     51  H25 MOL d          35.750  40.326  -8.613  0.00  0.00     0.043 H 
BRANCH  49  52
ATOM     52  CG  MOL d          33.843  40.756  -9.305  0.00  0.00    -0.056 A 
ATOM     53  CD1 MOL d          34.110  42.109  -9.274  0.00  0.00    -0.077 A 
ATOM     54  CE1 MOL d          33.216  43.057  -9.741  0.00  0.00    -0.082 A 
ATOM     55  H26 MOL d          35.058  42.444  -8.869  0.00  0.00     0.084 H 
ATOM     56  CZ  MOL d          32.005  42.625 -10.254  0.00  0.00    -0.083 A 
ATOM     57  H28 MOL d          33.458  44.112  -9.705  0.00  0.00     0.083 H 
ATOM     58  CE2 MOL d          31.713  41.270 -10.290  0.00  0.00    -0.082 A 
ATOM     59  H30 MOL d          31.286  43.345 -10.629  0.00  0.00     0.083 H 
ATOM     60  CD2 MOL d          32.623  40.341  -9.824  0.00  0.00    -0.077 A 
ATOM     61  H29 MOL d          30.761  40.937 -10.687  0.00  0.00     0.083 H 
ATOM     62  H27 MOL d          32.384  39.284  -9.864  0.00  0.00     0.084 H 
ENDBRANCH  49  52
ENDBRANCH  47  49
BRANCH  47  63
ATOM     63  C   MOL d          34.795  37.366  -8.013  0.00  0.00     0.197 C 
ATOM     64  O   MOL d          34.439  37.023  -9.155  0.00  0.00    -0.646 OA
ATOM     65  OXT MOL d          35.251  36.583  -7.183  0.00  0.00    -0.646 OA
ENDBRANCH  47  63
ENDBRANCH  45  47
ENDBRANCH   1  43
TORSDOF 13
ENDMDL
MODEL 8
REMARK VINA RESULT:      -7.4      2.812      6.210
REMARK  13 active torsions:
REMARK  status: ('A' for Active; 'I' for Inactive)
REMARK    1  A    between atoms: CA_2  and  N_1 
REMARK    2  A    between atoms: P_3  and  CA_2 
REMARK    3  A    between atoms: CA_2  and  CB_6 
REMARK    4  A    between atoms: CM_13  and  P_3 
REMARK    5  A    between atoms: CB_6  and  CG_7 
REMARK    6  A    between atoms: CA_14  and  CM_13 
REMARK    7  A    between atoms: CA_14  and  CB_15 
REMARK    8  A    between atoms: C_22  and  CA_14 
REMARK    9  A    between atoms: CB_15  and  CG_16 
REMARK       I    between atoms: C_22  and  N_24 
REMARK   10  A    between atoms: N_24  and  CA_25 
REMARK   11  A    between atoms: CA_25  and  CB_28 
REMARK   12  A    between atoms: CA_25  and  C_26 
REMARK   13  A    between atoms: CB_28  and  CG_29 
ROOT
ATOM      1  CA  MOL d          37.611  40.248  -3.955  0.00  0.00     0.036 C 
ATOM      2  H14 MOL d          37.246  39.576  -3.164  0.00  0.00     0.056 H 
ENDROOT
BRANCH   1   3
ATOM      3  CM  MOL d          38.672  39.463  -4.750  0.00  0.00     0.021 C 
ATOM      4  H12 MOL d          38.448  39.584  -5.820  0.00  0.00     0.050 H 
ATOM      5  H13 MOL d          39.654  39.906  -4.528  0.00  0.00     0.050 H 
BRANCH   3   6
ATOM      6  P   MOL d          38.771  37.738  -4.413  0.00  0.00     0.138 P 
ATOM      7  O1P MOL d          37.803  37.357  -3.333  0.00  0.00    -0.666 OA
ATOM      8  O2P MOL d          40.113  37.333  -3.951  0.00  0.00    -0.666 OA
BRANCH   6   9
ATOM      9  CA  MOL d          38.468  37.151  -6.000  0.00  0.00     0.177 C 
ATOM     10  H4  MOL d          37.871  37.944  -6.472  0.00  0.00     0.101 H 
BRANCH   9  11
ATOM     11  N   MOL d          39.741  36.996  -6.739  0.00  0.00    -0.065 N 
ATOM     12  H1  MOL d          39.847  36.036  -7.028  0.00  0.00     0.275 HD
ATOM     13  H2  MOL d          40.510  37.253  -6.141  0.00  0.00     0.275 HD
ATOM     14  H3  MOL d          39.733  37.592  -7.551  0.00  0.00     0.275 HD
ENDBRANCH   9  11
BRANCH   9  15
ATOM     15  CB  MOL d          37.795  35.887  -6.341  0.00  0.00    -0.005 C 
ATOM     16  H5  MOL d          37.308  35.496  -5.435  0.00  0.00     0.044 H 
ATOM     17  H6  MOL d          38.554  35.170  -6.687  0.00  0.00     0.044 H 
BRANCH  15  18
ATOM     18  CG  MOL d          36.740  36.039  -7.431  0.00  0.00    -0.056 A 
ATOM     19  CD1 MOL d          36.892  37.084  -8.354  0.00  0.00    -0.077 A 
ATOM     20  CE1 MOL d          35.892  37.191  -9.326  0.00  0.00    -0.082 A 
ATOM     21  H7  MOL d          37.734  37.766  -8.317  0.00  0.00     0.084 H 
ATOM     22  CZ  MOL d          34.820  36.314  -9.402  0.00  0.00    -0.083 A 
ATOM     23  H9  MOL d          35.958  37.994 -10.051  0.00  0.00     0.083 H 
ATOM     24  CE2 MOL d          34.739  35.315  -8.454  0.00  0.00    -0.082 A 
ATOM     25  H11 MOL d          34.072  36.411 -10.179  0.00  0.00     0.083 H 
ATOM     26  CD2 MOL d          35.646  35.203  -7.487  0.00  0.00    -0.077 A 
ATOM     27  H10 MOL d          33.919  34.606  -8.498  0.00  0.00     0.083 H 
ATOM     28  H8  MOL d          35.522  34.438  -6.729  0.00  0.00     0.084 H 
ENDBRANCH  15  18
ENDBRANCH   9  15
ENDBRANCH   6   9
ENDBRANCH   3   6
ENDBRANCH   1   3
BRANCH   1  29
ATOM     29  CB  MOL d          38.277  41.453  -3.270  0.00  0.00    -0.029 C 
ATOM     30  H15 MOL d          38.141  42.330  -3.921  0.00  0.00     0.041 H 
ATOM     31  H16 MOL d          39.351  41.233  -3.171  0.00  0.00     0.041 H 
BRANCH  29  32
ATOM     32  CG  MOL d          37.748  41.809  -1.898  0.00  0.00    -0.057 A 
ATOM     33  CD1 MOL d          37.131  40.859  -1.098  0.00  0.00    -0.077 A 
ATOM     34  CE1 MOL d          36.639  41.182   0.151  0.00  0.00    -0.082 A 
ATOM     35  H17 MOL d          37.032  39.843  -1.461  0.00  0.00     0.084 H 
ATOM     36  CZ  MOL d          36.778  42.479   0.608  0.00  0.00    -0.083 A 
ATOM     37  H19 MOL d          36.153  40.431   0.763  0.00  0.00     0.083 H 
ATOM     38  CE2 MOL d          37.391  43.438  -0.182  0.00  0.00    -0.082 A 
ATOM     39  H21 MOL d          36.406  42.747   1.590  0.00  0.00     0.083 H 
ATOM     40  CD2 MOL d          37.904  43.098  -1.418  0.00  0.00    -0.077 A 
ATOM     41  H20 MOL d          37.467  44.459   0.172  0.00  0.00     0.083 H 
ATOM     42  H18 MOL d          38.428  43.839  -2.010  0.00  0.00     0.084 H 
ENDBRANCH  29  32
ENDBRANCH   1  29
BRANCH   1  43
ATOM     43  C   MOL d          36.376  40.681  -4.756  0.00  0.00     0.223 C 
ATOM     44  O   MOL d          35.567  41.511  -4.352  0.00  0.00    -0.273 OA
ATOM     45  N   MOL d          36.263  40.109  -5.931  0.00  0.00    -0.346 N 
ATOM     46  H22 MOL d          37.027  39.500  -6.147  0.00  0.00     0.163 HD
BRANCH  45  47
ATOM     47  CA  MOL d          35.271  40.168  -6.984  0.00  0.00     0.100 C 
ATOM     48  H23 MOL d          35.668  39.737  -7.914  0.00  0.00     0.090 H 
BRANCH  47  49
ATOM     49  CB  MOL d          34.082  39.371  -6.526  0.00  0.00    -0.013 C 
ATOM     50  H24 MOL d          33.528  40.040  -5.850  0.00  0.00     0.043 H 
ATOM     51  H25 MOL d          34.501  38.533  -5.950  0.00  0.00     0.043 H 
BRANCH  49  52
ATOM     52  CG  MOL d          33.044  38.759  -7.408  0.00  0.00    -0.056 A 
ATOM     53  CD1 MOL d          32.800  39.240  -8.678  0.00  0.00    -0.077 A 
ATOM     54  CE1 MOL d          31.860  38.675  -9.522  0.00  0.00    -0.082 A 
ATOM     55  H26 MOL d          33.366  40.096  -9.028  0.00  0.00     0.084 H 
ATOM     56  CZ  MOL d          31.138  37.585  -9.070  0.00  0.00    -0.083 A 
ATOM     57  H28 MOL d          31.695  39.076 -10.515  0.00  0.00     0.083 H 
ATOM     58  CE2 MOL d          31.363  37.087  -7.796  0.00  0.00    -0.082 A 
ATOM     59  H30 MOL d          30.397  37.121  -9.711  0.00  0.00     0.083 H 
ATOM     60  CD2 MOL d          32.309  37.663  -6.971  0.00  0.00    -0.077 A 
ATOM     61  H29 MOL d          30.790  36.237  -7.443  0.00  0.00     0.083 H 
ATOM     62  H27 MOL d          32.479  37.260  -5.979  0.00  0.00     0.084 H 
ENDBRANCH  49  52
ENDBRANCH  47  49
BRANCH  47  63
ATOM     63  C   MOL d          34.926  41.643  -7.209  0.00  0.00     0.197 C 
ATOM     64  O   MOL d          33.791  42.034  -6.879  0.00  0.00    -0.646 OA
ATOM     65  OXT MOL d          35.780  42.379  -7.696  0.00  0.00    -0.646 OA
ENDBRANCH  47  63
ENDBRANCH  45  47
ENDBRANCH   1  43
TORSDOF 13
ENDMDL
MODEL 9
REMARK VINA RESULT:      -7.3      2.048      7.625
REMARK  13 active torsions:
REMARK  status: ('A' for Active; 'I' for Inactive)
REMARK    1  A    between atoms: CA_2  and  N_1 
REMARK    2  A    between atoms: P_3  and  CA_2 
REMARK    3  A    between atoms: CA_2  and  CB_6 
REMARK    4  A    between atoms: CM_13  and  P_3 
REMARK    5  A    between atoms: CB_6  and  CG_7 
REMARK    6  A    between atoms: CA_14  and  CM_13 
REMARK    7  A    between atoms: CA_14  and  CB_15 
REMARK    8  A    between atoms: C_22  and  CA_14 
REMARK    9  A    between atoms: CB_15  and  CG_16 
REMARK       I    between atoms: C_22  and  N_24 
REMARK   10  A    between atoms: N_24  and  CA_25 
REMARK   11  A    between atoms: CA_25  and  CB_28 
REMARK   12  A    between atoms: CA_25  and  C_26 
REMARK   13  A    between atoms: CB_28  and  CG_29 
ROOT
ATOM      1  CA  MOL d          37.901  39.833  -3.966  0.00  0.00     0.036 C 
ATOM      2  H14 MOL d          37.386  39.460  -3.069  0.00  0.00     0.056 H 
ENDROOT
BRANCH   1   3
ATOM      3  CM  MOL d          39.331  39.258  -3.929  0.00  0.00     0.021 C 
ATOM      4  H12 MOL d          39.576  38.903  -4.942  0.00  0.00     0.050 H 
ATOM      5  H13 MOL d          40.014  40.073  -3.651  0.00  0.00     0.050 H 
BRANCH   3   6
ATOM      6  P   MOL d          39.599  37.925  -2.813  0.00  0.00     0.138 P 
ATOM      7  O1P MOL d          38.776  38.104  -1.572  0.00  0.00    -0.666 OA
ATOM      8  O2P MOL d          41.009  37.827  -2.384  0.00  0.00    -0.666 OA
BRANCH   6   9
ATOM      9  CA  MOL d          39.189  36.626  -3.861  0.00  0.00     0.177 C 
ATOM     10  H4  MOL d          38.090  36.640  -3.889  0.00  0.00     0.101 H 
BRANCH   9  11
ATOM     11  N   MOL d          39.712  36.883  -5.222  0.00  0.00    -0.065 N 
ATOM     12  H1  MOL d          40.264  37.726  -5.216  0.00  0.00     0.275 HD
ATOM     13  H2  MOL d          38.941  36.991  -5.863  0.00  0.00     0.275 HD
ATOM     14  H3  MOL d          40.286  36.108  -5.513  0.00  0.00     0.275 HD
ENDBRANCH   9  11
BRANCH   9  15
ATOM     15  CB  MOL d          39.568  35.216  -3.681  0.00  0.00    -0.005 C 
ATOM     16  H5  MOL d          40.662  35.136  -3.757  0.00  0.00     0.044 H 
ATOM     17  H6  MOL d          39.101  34.624  -4.482  0.00  0.00     0.044 H 
BRANCH  15  18
ATOM     18  CG  MOL d          39.132  34.640  -2.338  0.00  0.00    -0.056 A 
ATOM     19  CD1 MOL d          37.779  34.314  -2.168  0.00  0.00    -0.077 A 
ATOM     20  CE1 MOL d          37.426  33.803  -0.915  0.00  0.00    -0.082 A 
ATOM     21  H7  MOL d          37.051  34.451  -2.959  0.00  0.00     0.084 H 
ATOM     22  CZ  MOL d          38.348  33.601   0.102  0.00  0.00    -0.083 A 
ATOM     23  H9  MOL d          36.388  33.553  -0.730  0.00  0.00     0.083 H 
ATOM     24  CE2 MOL d          39.661  33.950  -0.142  0.00  0.00    -0.082 A 
ATOM     25  H11 MOL d          38.048  33.184   1.055  0.00  0.00     0.083 H 
ATOM     26  CD2 MOL d          40.031  34.479  -1.305  0.00  0.00    -0.077 A 
ATOM     27  H10 MOL d          40.405  33.790   0.630  0.00  0.00     0.083 H 
ATOM     28  H8  MOL d          41.061  34.790  -1.443  0.00  0.00     0.084 H 
ENDBRANCH  15  18
ENDBRANCH   9  15
ENDBRANCH   6   9
ENDBRANCH   3   6
ENDBRANCH   1   3
BRANCH   1  29
ATOM     29  CB  MOL d          37.967  41.366  -3.859  0.00  0.00    -0.029 C 
ATOM     30  H15 MOL d          37.345  41.788  -4.663  0.00  0.00     0.041 H 
ATOM     31  H16 MOL d          39.014  41.670  -4.009  0.00  0.00     0.041 H 
BRANCH  29  32
ATOM     32  CG  MOL d          37.495  41.958  -2.549  0.00  0.00    -0.057 A 
ATOM     33  CD1 MOL d          37.160  41.148  -1.475  0.00  0.00    -0.077 A 
ATOM     34  CE1 MOL d          36.722  41.683  -0.281  0.00  0.00    -0.082 A 
ATOM     35  H17 MOL d          37.244  40.071  -1.576  0.00  0.00     0.084 H 
ATOM     36  CZ  MOL d          36.627  43.057  -0.160  0.00  0.00    -0.083 A 
ATOM     37  H19 MOL d          36.457  41.038   0.549  0.00  0.00     0.083 H 
ATOM     38  CE2 MOL d          36.957  43.878  -1.226  0.00  0.00    -0.082 A 
ATOM     39  H21 MOL d          36.293  43.494   0.773  0.00  0.00     0.083 H 
ATOM     40  CD2 MOL d          37.421  43.333  -2.407  0.00  0.00    -0.077 A 
ATOM     41  H20 MOL d          36.850  44.952  -1.133  0.00  0.00     0.083 H 
ATOM     42  H18 MOL d          37.727  43.981  -3.220  0.00  0.00     0.084 H 
ENDBRANCH  29  32
ENDBRANCH   1  29
BRANCH   1  43
ATOM     43  C   MOL d          37.049  39.399  -5.165  0.00  0.00     0.223 C 
ATOM     44  O   MOL d          37.042  38.254  -5.608  0.00  0.00    -0.273 OA
ATOM     45  N   MOL d          36.300  40.350  -5.672  0.00  0.00    -0.346 N 
ATOM     46  H22 MOL d          36.368  41.212  -5.171  0.00  0.00     0.163 HD
BRANCH  45  47
ATOM     47  CA  MOL d          35.396  40.419  -6.801  0.00  0.00     0.100 C 
ATOM     48  H23 MOL d          35.830  39.912  -7.675  0.00  0.00     0.090 H 
BRANCH  47  49
ATOM     49  CB  MOL d          34.122  39.729  -6.399  0.00  0.00    -0.013 C 
ATOM     50  H24 MOL d          33.489  40.519  -5.969  0.00  0.00     0.043 H 
ATOM     51  H25 MOL d          34.414  39.022  -5.609  0.00  0.00     0.043 H 
BRANCH  49  52
ATOM     52  CG  MOL d          33.222  38.955  -7.304  0.00  0.00    -0.056 A 
ATOM     53  CD1 MOL d          33.082  39.283  -8.638  0.00  0.00    -0.077 A 
ATOM     54  CE1 MOL d          32.272  38.566  -9.501  0.00  0.00    -0.082 A 
ATOM     55  H26 MOL d          33.628  40.136  -9.024  0.00  0.00     0.084 H 
ATOM     56  CZ  MOL d          31.574  37.479  -9.002  0.00  0.00    -0.083 A 
ATOM     57  H28 MOL d          32.186  38.848 -10.544  0.00  0.00     0.083 H 
ATOM     58  CE2 MOL d          31.696  37.135  -7.665  0.00  0.00    -0.082 A 
ATOM     59  H30 MOL d          30.934  36.898  -9.657  0.00  0.00     0.083 H 
ATOM     60  CD2 MOL d          32.514  37.861  -6.822  0.00  0.00    -0.077 A 
ATOM     61  H29 MOL d          31.143  36.287  -7.278  0.00  0.00     0.083 H 
ATOM     62  H27 MOL d          32.604  37.576  -5.779  0.00  0.00     0.084 H 
ENDBRANCH  49  52
ENDBRANCH  47  49
BRANCH  47  63
ATOM     63  C   MOL d          35.175  41.899  -7.124  0.00  0.00     0.197 C 
ATOM     64  O   MOL d          35.146  42.705  -6.176  0.00  0.00    -0.646 OA
ATOM     65  OXT MOL d          35.043  42.232  -8.299  0.00  0.00    -0.646 OA
ENDBRANCH  47  63
ENDBRANCH  45  47
ENDBRANCH   1  43
TORSDOF 13
ENDMDL
MODEL 10
REMARK VINA RESULT:      -7.3      2.422      6.266
REMARK  13 active torsions:
REMARK  status: ('A' for Active; 'I' for Inactive)
REMARK    1  A    between atoms: CA_2  and  N_1 
REMARK    2  A    between atoms: P_3  and  CA_2 
REMARK    3  A    between atoms: CA_2  and  CB_6 
REMARK    4  A    between atoms: CM_13  and  P_3 
REMARK    5  A    between atoms: CB_6  and  CG_7 
REMARK    6  A    between atoms: CA_14  and  CM_13 
REMARK    7  A    between atoms: CA_14  and  CB_15 
REMARK    8  A    between atoms: C_22  and  CA_14 
REMARK    9  A    between atoms: CB_15  and  CG_16 
REMARK       I    between atoms: C_22  and  N_24 
REMARK   10  A    between atoms: N_24  and  CA_25 
REMARK   11  A    between atoms: CA_25  and  CB_28 
REMARK   12  A    between atoms: CA_25  and  C_26 
REMARK   13  A    between atoms: CB_28  and  CG_29 
ROOT
ATOM      1  CA  MOL d          38.703  38.407  -3.112  0.00  0.00     0.036 C 
ATOM      2  H14 MOL d          37.748  37.868  -3.206  0.00  0.00     0.056 H 
ENDROOT
BRANCH   1   3
ATOM      3  CM  MOL d          39.709  37.690  -4.032  0.00  0.00     0.021 C 
ATOM      4  H12 MOL d          40.046  38.413  -4.790  0.00  0.00     0.050 H 
ATOM      5  H13 MOL d          40.566  37.380  -3.416  0.00  0.00     0.050 H 
BRANCH   3   6
ATOM      6  P   MOL d          39.109  36.267  -4.875  0.00  0.00     0.138 P 
ATOM      7  O1P MOL d          37.777  35.853  -4.326  0.00  0.00    -0.666 OA
ATOM      8  O2P MOL d          40.012  35.107  -4.730  0.00  0.00    -0.666 OA
BRANCH   6   9
ATOM      9  CA  MOL d          39.156  36.881  -6.479  0.00  0.00     0.177 C 
ATOM     10  H4  MOL d          38.669  37.864  -6.405  0.00  0.00     0.101 H 
BRANCH   9  11
ATOM     11  N   MOL d          40.558  37.065  -6.915  0.00  0.00    -0.065 N 
ATOM     12  H1  MOL d          41.078  36.219  -6.743  0.00  0.00     0.275 HD
ATOM     13  H2  MOL d          40.973  37.825  -6.400  0.00  0.00     0.275 HD
ATOM     14  H3  MOL d          40.579  37.276  -7.901  0.00  0.00     0.275 HD
ENDBRANCH   9  11
BRANCH   9  15
ATOM     15  CB  MOL d          38.578  36.237  -7.669  0.00  0.00    -0.005 C 
ATOM     16  H5  MOL d          38.197  35.247  -7.379  0.00  0.00     0.044 H 
ATOM     17  H6  MOL d          39.372  36.118  -8.421  0.00  0.00     0.044 H 
BRANCH  15  18
ATOM     18  CG  MOL d          37.436  37.032  -8.293  0.00  0.00    -0.056 A 
ATOM     19  CD1 MOL d          36.529  37.667  -7.433  0.00  0.00    -0.077 A 
ATOM     20  CE1 MOL d          35.492  38.372  -8.052  0.00  0.00    -0.082 A 
ATOM     21  H7  MOL d          36.626  37.615  -6.355  0.00  0.00     0.084 H 
ATOM     22  CZ  MOL d          35.365  38.467  -9.430  0.00  0.00    -0.083 A 
ATOM     23  H9  MOL d          34.756  38.865  -7.427  0.00  0.00     0.083 H 
ATOM     24  CE2 MOL d          36.296  37.811 -10.208  0.00  0.00    -0.082 A 
ATOM     25  H11 MOL d          34.561  39.038  -9.880  0.00  0.00     0.083 H 
ATOM     26  CD2 MOL d          37.273  37.094  -9.661  0.00  0.00    -0.077 A 
ATOM     27  H10 MOL d          36.229  37.880 -11.288  0.00  0.00     0.083 H 
ATOM     28  H8  MOL d          37.956  36.549 -10.302  0.00  0.00     0.084 H 
ENDBRANCH  15  18
ENDBRANCH   9  15
ENDBRANCH   6   9
ENDBRANCH   3   6
ENDBRANCH   1   3
BRANCH   1  29
ATOM     29  CB  MOL d          39.167  38.279  -1.651  0.00  0.00    -0.029 C 
ATOM     30  H15 MOL d          38.471  38.855  -1.024  0.00  0.00     0.041 H 
ATOM     31  H16 MOL d          40.174  38.716  -1.578  0.00  0.00     0.041 H 
BRANCH  29  32
ATOM     32  CG  MOL d          39.231  36.871  -1.100  0.00  0.00    -0.057 A 
ATOM     33  CD1 MOL d          38.117  36.046  -1.107  0.00  0.00    -0.077 A 
ATOM     34  CE1 MOL d          38.170  34.764  -0.598  0.00  0.00    -0.082 A 
ATOM     35  H17 MOL d          37.185  36.416  -1.520  0.00  0.00     0.084 H 
ATOM     36  CZ  MOL d          39.365  34.299  -0.082  0.00  0.00    -0.083 A 
ATOM     37  H19 MOL d          37.289  34.132  -0.603  0.00  0.00     0.083 H 
ATOM     38  CE2 MOL d          40.485  35.114  -0.068  0.00  0.00    -0.082 A 
ATOM     39  H21 MOL d          39.426  33.292   0.313  0.00  0.00     0.083 H 
ATOM     40  CD2 MOL d          40.430  36.385  -0.605  0.00  0.00    -0.077 A 
ATOM     41  H20 MOL d          41.410  34.752   0.367  0.00  0.00     0.083 H 
ATOM     42  H18 MOL d          41.321  36.999  -0.638  0.00  0.00     0.084 H 
ENDBRANCH  29  32
ENDBRANCH   1  29
BRANCH   1  43
ATOM     43  C   MOL d          38.409  39.869  -3.472  0.00  0.00     0.223 C 
ATOM     44  O   MOL d          39.258  40.638  -3.913  0.00  0.00    -0.273 OA
ATOM     45  N   MOL d          37.161  40.233  -3.293  0.00  0.00    -0.346 N 
ATOM     46  H22 MOL d          36.575  39.484  -2.983  0.00  0.00     0.163 HD
BRANCH  45  47
ATOM     47  CA  MOL d          36.450  41.485  -3.447  0.00  0.00     0.100 C 
ATOM     48  H23 MOL d          35.456  41.423  -2.981  0.00  0.00     0.090 H 
BRANCH  47  49
ATOM     49  CB  MOL d          37.262  42.549  -2.764  0.00  0.00    -0.013 C 
ATOM     50  H24 MOL d          36.836  43.503  -3.109  0.00  0.00     0.043 H 
ATOM     51  H25 MOL d          38.280  42.437  -3.163  0.00  0.00     0.043 H 
BRANCH  49  52
ATOM     52  CG  MOL d          37.435  42.709  -1.289  0.00  0.00    -0.056 A 
ATOM     53  CD1 MOL d          36.863  41.828  -0.395  0.00  0.00    -0.077 A 
ATOM     54  CE1 MOL d          37.029  41.942   0.974  0.00  0.00    -0.082 A 
ATOM     55  H26 MOL d          36.259  41.014  -0.780  0.00  0.00     0.084 H 
ATOM     56  CZ  MOL d          37.798  42.984   1.462  0.00  0.00    -0.083 A 
ATOM     57  H28 MOL d          36.568  41.230   1.650  0.00  0.00     0.083 H 
ATOM     58  CE2 MOL d          38.379  43.884   0.582  0.00  0.00    -0.082 A 
ATOM     59  H30 MOL d          37.947  43.096   2.530  0.00  0.00     0.083 H 
ATOM     60  CD2 MOL d          38.204  43.749  -0.782  0.00  0.00    -0.077 A 
ATOM     61  H29 MOL d          38.975  44.703   0.968  0.00  0.00     0.083 H 
ATOM     62  H27 MOL d          38.669  44.457  -1.459  0.00  0.00     0.084 H 
ENDBRANCH  49  52
ENDBRANCH  47  49
BRANCH  47  63
ATOM     63  C   MOL d          36.298  41.746  -4.947  0.00  0.00     0.197 C 
ATOM     64  O   MOL d          35.554  40.991  -5.599  0.00  0.00    -0.646 OA
ATOM     65  OXT MOL d          36.906  42.690  -5.445  0.00  0.00    -0.646 OA
ENDBRANCH  47  63
ENDBRANCH  45  47
ENDBRANCH   1  43
TORSDOF 13
ENDMDL
