MODEL 1
REMARK VINA RESULT:      -6.4      0.000      0.000
REMARK  17 active torsions:
REMARK  status: ('A' for Active; 'I' for Inactive)
REMARK    1  A    between atoms: C1_1  and  C2_4 
REMARK    2  A    between atoms: C2_4  and  C3_5 
REMARK    3  A    between atoms: C3_5  and  C4_6 
REMARK    4  A    between atoms: C4_6  and  C5_7 
REMARK    5  A    between atoms: C5_7  and  C6_8 
REMARK    6  A    between atoms: C6_8  and  C7_9 
REMARK    7  A    between atoms: C7_9  and  C8_10 
REMARK    8  A    between atoms: C8_10  and  C9_11 
REMARK    9  A    between atoms: C9_11  and  C10_12 
REMARK   10  A    between atoms: C10_12  and  C11_13 
REMARK   11  A    between atoms: C11_13  and  C12_14 
REMARK   12  A    between atoms: C12_14  and  C13_15 
REMARK   13  A    between atoms: C13_15  and  C14_16 
REMARK   14  A    between atoms: C14_16  and  C15_17 
REMARK   15  A    between atoms: C15_17  and  C16_18 
REMARK   16  A    between atoms: C16_18  and  C17_19 
REMARK   17  A    between atoms: C17_19  and  C18_20 
ROOT
ATOM      1  C10 STE d          -2.709  15.456  17.751  0.00  0.00    -0.065 C 
ATOM      2  H17 STE d          -2.138  14.970  16.946  0.00  0.00     0.033 H 
ATOM      3  H18 STE d          -2.597  16.548  17.673  0.00  0.00     0.033 H 
ENDROOT
BRANCH   1   4
ATOM      4  C9  STE d          -2.221  14.972  19.110  0.00  0.00    -0.065 C 
ATOM      5  H15 STE d          -1.405  15.621  19.460  0.00  0.00     0.033 H 
ATOM      6  H16 STE d          -3.050  15.004  19.832  0.00  0.00     0.033 H 
BRANCH   4   7
ATOM      7  C8  STE d          -1.716  13.545  18.977  0.00  0.00    -0.065 C 
ATOM      8  H13 STE d          -1.764  13.230  17.924  0.00  0.00     0.033 H 
ATOM      9  H14 STE d          -0.677  13.484  19.332  0.00  0.00     0.033 H 
BRANCH   7  10
ATOM     10  C7  STE d          -2.595  12.651  19.817  0.00  0.00    -0.065 C 
ATOM     11  H11 STE d          -1.971  12.129  20.558  0.00  0.00     0.033 H 
ATOM     12  H12 STE d          -3.341  13.270  20.337  0.00  0.00     0.033 H 
BRANCH  10  13
ATOM     13  C6  STE d          -3.317  11.619  18.961  0.00  0.00    -0.065 C 
ATOM     14  H9  STE d          -4.163  11.204  19.529  0.00  0.00     0.033 H 
ATOM     15  H10 STE d          -3.691  12.103  18.047  0.00  0.00     0.033 H 
BRANCH  13  16
ATOM     16  C5  STE d          -2.365  10.490  18.579  0.00  0.00    -0.065 C 
ATOM     17  H7  STE d          -2.957   9.600  18.321  0.00  0.00     0.033 H 
ATOM     18  H8  STE d          -1.775  10.805  17.705  0.00  0.00     0.033 H 
BRANCH  16  19
ATOM     19  C4  STE d          -1.414  10.134  19.709  0.00  0.00    -0.065 C 
ATOM     20  H5  STE d          -0.396  10.436  19.426  0.00  0.00     0.033 H 
ATOM     21  H6  STE d          -1.719  10.676  20.617  0.00  0.00     0.033 H 
BRANCH  19  22
ATOM     22  C3  STE d          -1.421   8.636  20.004  0.00  0.00    -0.056 C 
ATOM     23  H3  STE d          -1.123   8.092  19.095  0.00  0.00     0.033 H 
ATOM     24  H4  STE d          -0.701   8.427  20.809  0.00  0.00     0.033 H 
BRANCH  22  25
ATOM     25  C2  STE d          -2.803   8.155  20.439  0.00  0.00     0.016 C 
ATOM     26  H1  STE d          -3.110   8.692  21.348  0.00  0.00     0.049 H 
ATOM     27  H2  STE d          -3.530   8.349  19.636  0.00  0.00     0.049 H 
BRANCH  25  28
ATOM     28  C1  STE d          -2.743   6.677  20.720  0.00  0.00     0.172 C 
ATOM     29  O1  STE d          -1.688   6.064  20.424  0.00  0.00    -0.648 OA
ATOM     30  O2  STE d          -3.748   6.118  21.210  0.00  0.00    -0.648 OA
ENDBRANCH  25  28
ENDBRANCH  22  25
ENDBRANCH  19  22
ENDBRANCH  16  19
ENDBRANCH  13  16
ENDBRANCH  10  13
ENDBRANCH   7  10
ENDBRANCH   4   7
ENDBRANCH   1   4
BRANCH   1  31
ATOM     31  C11 STE d          -4.172  15.070  17.663  0.00  0.00    -0.065 C 
ATOM     32  H19 STE d          -4.801  15.938  17.904  0.00  0.00     0.033 H 
ATOM     33  H20 STE d          -4.385  14.254  18.370  0.00  0.00     0.033 H 
BRANCH  31  34
ATOM     34  C12 STE d          -4.456  14.610  16.251  0.00  0.00    -0.065 C 
ATOM     35  H21 STE d          -5.538  14.466  16.118  0.00  0.00     0.033 H 
ATOM     36  H22 STE d          -3.933  13.662  16.057  0.00  0.00     0.033 H 
BRANCH  34  37
ATOM     37  C13 STE d          -3.963  15.665  15.305  0.00  0.00    -0.065 C 
ATOM     38  H23 STE d          -3.072  15.288  14.780  0.00  0.00     0.033 H 
ATOM     39  H24 STE d          -3.697  16.565  15.879  0.00  0.00     0.033 H 
BRANCH  37  40
ATOM     40  C14 STE d          -5.023  16.027  14.280  0.00  0.00    -0.065 C 
ATOM     41  H25 STE d          -5.951  15.489  14.520  0.00  0.00     0.033 H 
ATOM     42  H26 STE d          -4.673  15.725  13.281  0.00  0.00     0.033 H 
BRANCH  40  43
ATOM     43  C15 STE d          -5.305  17.528  14.274  0.00  0.00    -0.065 C 
ATOM     44  H27 STE d          -6.176  17.749  14.908  0.00  0.00     0.033 H 
ATOM     45  H28 STE d          -5.504  17.869  13.247  0.00  0.00     0.033 H 
BRANCH  43  46
ATOM     46  C16 STE d          -4.076  18.225  14.821  0.00  0.00    -0.065 C 
ATOM     47  H29 STE d          -3.543  18.706  13.986  0.00  0.00     0.033 H 
ATOM     48  H30 STE d          -3.424  17.471  15.287  0.00  0.00     0.033 H 
BRANCH  46  49
ATOM     49  C17 STE d          -4.411  19.275  15.848  0.00  0.00    -0.069 C 
ATOM     50  H31 STE d          -5.385  19.719  15.593  0.00  0.00     0.032 H 
ATOM     51  H32 STE d          -3.634  20.053  15.823  0.00  0.00     0.032 H 
BRANCH  49  52
ATOM     52  C18 STE d          -4.487  18.712  17.251  0.00  0.00    -0.077 C 
ATOM     53  H33 STE d          -5.540  18.639  17.560  0.00  0.00     0.027 H 
ATOM     54  H34 STE d          -3.949  19.377  17.943  0.00  0.00     0.027 H 
ATOM     55  H35 STE d          -4.029  17.713  17.271  0.00  0.00     0.027 H 
ENDBRANCH  49  52
ENDBRANCH  46  49
ENDBRANCH  43  46
ENDBRANCH  40  43
ENDBRANCH  37  40
ENDBRANCH  34  37
ENDBRANCH  31  34
ENDBRANCH   1  31
TORSDOF 17
ENDMDL
MODEL 2
REMARK VINA RESULT:      -6.4      1.397      2.609
REMARK  17 active torsions:
REMARK  status: ('A' for Active; 'I' for Inactive)
REMARK    1  A    between atoms: C1_1  and  C2_4 
REMARK    2  A    between atoms: C2_4  and  C3_5 
REMARK    3  A    between atoms: C3_5  and  C4_6 
REMARK    4  A    between atoms: C4_6  and  C5_7 
REMARK    5  A    between atoms: C5_7  and  C6_8 
REMARK    6  A    between atoms: C6_8  and  C7_9 
REMARK    7  A    between atoms: C7_9  and  C8_10 
REMARK    8  A    between atoms: C8_10  and  C9_11 
REMARK    9  A    between atoms: C9_11  and  C10_12 
REMARK   10  A    between atoms: C10_12  and  C11_13 
REMARK   11  A    between atoms: C11_13  and  C12_14 
REMARK   12  A    between atoms: C12_14  and  C13_15 
REMARK   13  A    between atoms: C13_15  and  C14_16 
REMARK   14  A    between atoms: C14_16  and  C15_17 
REMARK   15  A    between atoms: C15_17  and  C16_18 
REMARK   16  A    between atoms: C16_18  and  C17_19 
REMARK   17  A    between atoms: C17_19  and  C18_20 
ROOT
ATOM      1  C10 STE d          -2.364  13.735  19.122  0.00  0.00    -0.065 C 
ATOM      2  H17 STE d          -1.530  13.690  18.405  0.00  0.00     0.033 H 
ATOM      3  H18 STE d          -2.331  14.692  19.664  0.00  0.00     0.033 H 
ENDROOT
BRANCH   1   4
ATOM      4  C9  STE d          -2.281  12.571  20.100  0.00  0.00    -0.065 C 
ATOM      5  H15 STE d          -2.299  12.955  21.132  0.00  0.00     0.033 H 
ATOM      6  H16 STE d          -3.137  11.897  19.946  0.00  0.00     0.033 H 
BRANCH   4   7
ATOM      7  C8  STE d          -0.986  11.812  19.862  0.00  0.00    -0.065 C 
ATOM      8  H13 STE d          -0.252  12.472  19.377  0.00  0.00     0.033 H 
ATOM      9  H14 STE d          -0.582  11.456  20.822  0.00  0.00     0.033 H 
BRANCH   7  10
ATOM     10  C7  STE d          -1.285  10.635  18.966  0.00  0.00    -0.065 C 
ATOM     11  H11 STE d          -2.161  10.872  18.345  0.00  0.00     0.033 H 
ATOM     12  H12 STE d          -0.415  10.450  18.318  0.00  0.00     0.033 H 
BRANCH  10  13
ATOM     13  C6  STE d          -1.576   9.380  19.778  0.00  0.00    -0.065 C 
ATOM     14  H9  STE d          -0.964   8.550  19.395  0.00  0.00     0.033 H 
ATOM     15  H10 STE d          -1.326   9.564  20.833  0.00  0.00     0.033 H 
BRANCH  13  16
ATOM     16  C5  STE d          -3.051   9.009  19.667  0.00  0.00    -0.065 C 
ATOM     17  H7  STE d          -3.584   9.410  20.542  0.00  0.00     0.033 H 
ATOM     18  H8  STE d          -3.461   9.459  18.750  0.00  0.00     0.033 H 
BRANCH  16  19
ATOM     19  C4  STE d          -3.263   7.506  19.612  0.00  0.00    -0.065 C 
ATOM     20  H5  STE d          -4.230   7.266  20.080  0.00  0.00     0.033 H 
ATOM     21  H6  STE d          -3.275   7.185  18.560  0.00  0.00     0.033 H 
BRANCH  19  22
ATOM     22  C3  STE d          -2.158   6.751  20.346  0.00  0.00    -0.056 C 
ATOM     23  H3  STE d          -1.510   6.258  19.606  0.00  0.00     0.033 H 
ATOM     24  H4  STE d          -1.565   7.468  20.933  0.00  0.00     0.033 H 
BRANCH  22  25
ATOM     25  C2  STE d          -2.729   5.693  21.286  0.00  0.00     0.016 C 
ATOM     26  H1  STE d          -2.352   5.863  22.305  0.00  0.00     0.049 H 
ATOM     27  H2  STE d          -3.828   5.755  21.286  0.00  0.00     0.049 H 
BRANCH  25  28
ATOM     28  C1  STE d          -2.300   4.330  20.811  0.00  0.00     0.172 C 
ATOM     29  O1  STE d          -1.756   3.561  21.641  0.00  0.00    -0.648 OA
ATOM     30  O2  STE d          -2.477   4.030  19.610  0.00  0.00    -0.648 OA
ENDBRANCH  25  28
ENDBRANCH  22  25
ENDBRANCH  19  22
ENDBRANCH  16  19
ENDBRANCH  13  16
ENDBRANCH  10  13
ENDBRANCH   7  10
ENDBRANCH   4   7
ENDBRANCH   1   4
BRANCH   1  31
ATOM     31  C11 STE d          -3.686  13.586  18.397  0.00  0.00    -0.065 C 
ATOM     32  H19 STE d          -4.507  13.534  19.127  0.00  0.00     0.033 H 
ATOM     33  H20 STE d          -3.677  12.670  17.789  0.00  0.00     0.033 H 
BRANCH  31  34
ATOM     34  C12 STE d          -3.873  14.791  17.502  0.00  0.00    -0.065 C 
ATOM     35  H21 STE d          -4.927  15.105  17.517  0.00  0.00     0.033 H 
ATOM     36  H22 STE d          -3.580  14.538  16.473  0.00  0.00     0.033 H 
BRANCH  34  37
ATOM     37  C13 STE d          -3.005  15.900  18.020  0.00  0.00    -0.065 C 
ATOM     38  H23 STE d          -2.089  15.951  17.413  0.00  0.00     0.033 H 
ATOM     39  H24 STE d          -2.741  15.689  19.067  0.00  0.00     0.033 H 
BRANCH  37  40
ATOM     40  C14 STE d          -3.719  17.239  17.950  0.00  0.00    -0.065 C 
ATOM     41  H25 STE d          -2.988  18.021  17.700  0.00  0.00     0.033 H 
ATOM     42  H26 STE d          -4.168  17.457  18.931  0.00  0.00     0.033 H 
BRANCH  40  43
ATOM     43  C15 STE d          -4.821  17.230  16.891  0.00  0.00    -0.065 C 
ATOM     44  H27 STE d          -5.768  17.575  17.332  0.00  0.00     0.033 H 
ATOM     45  H28 STE d          -4.951  16.213  16.493  0.00  0.00     0.033 H 
BRANCH  43  46
ATOM     46  C16 STE d          -4.393  18.169  15.782  0.00  0.00    -0.065 C 
ATOM     47  H29 STE d          -3.293  18.206  15.757  0.00  0.00     0.033 H 
ATOM     48  H30 STE d          -4.788  19.173  15.999  0.00  0.00     0.033 H 
BRANCH  46  49
ATOM     49  C17 STE d          -4.892  17.736  14.428  0.00  0.00    -0.069 C 
ATOM     50  H31 STE d          -4.151  18.030  13.669  0.00  0.00     0.032 H 
ATOM     51  H32 STE d          -5.846  18.245  14.225  0.00  0.00     0.032 H 
BRANCH  49  52
ATOM     52  C18 STE d          -5.111  16.241  14.339  0.00  0.00    -0.077 C 
ATOM     53  H33 STE d          -5.249  15.830  15.350  0.00  0.00     0.027 H 
ATOM     54  H34 STE d          -4.236  15.770  13.868  0.00  0.00     0.027 H 
ATOM     55  H35 STE d          -6.008  16.037  13.736  0.00  0.00     0.027 H 
ENDBRANCH  49  52
ENDBRANCH  46  49
ENDBRANCH  43  46
ENDBRANCH  40  43
ENDBRANCH  37  40
ENDBRANCH  34  37
ENDBRANCH  31  34
ENDBRANCH   1  31
TORSDOF 17
ENDMDL
MODEL 3
REMARK VINA RESULT:      -6.3      2.065      3.339
REMARK  17 active torsions:
REMARK  status: ('A' for Active; 'I' for Inactive)
REMARK    1  A    between atoms: C1_1  and  C2_4 
REMARK    2  A    between atoms: C2_4  and  C3_5 
REMARK    3  A    between atoms: C3_5  and  C4_6 
REMARK    4  A    between atoms: C4_6  and  C5_7 
REMARK    5  A    between atoms: C5_7  and  C6_8 
REMARK    6  A    between atoms: C6_8  and  C7_9 
REMARK    7  A    between atoms: C7_9  and  C8_10 
REMARK    8  A    between atoms: C8_10  and  C9_11 
REMARK    9  A    between atoms: C9_11  and  C10_12 
REMARK   10  A    between atoms: C10_12  and  C11_13 
REMARK   11  A    between atoms: C11_13  and  C12_14 
REMARK   12  A    between atoms: C12_14  and  C13_15 
REMARK   13  A    between atoms: C13_15  and  C14_16 
REMARK   14  A    between atoms: C14_16  and  C15_17 
REMARK   15  A    between atoms: C15_17  and  C16_18 
REMARK   16  A    between atoms: C16_18  and  C17_19 
REMARK   17  A    between atoms: C17_19  and  C18_20 
ROOT
ATOM      1  C10 STE d          -2.311  13.029  19.626  0.00  0.00    -0.065 C 
ATOM      2  H17 STE d          -1.689  13.888  19.334  0.00  0.00     0.033 H 
ATOM      3  H18 STE d          -2.686  13.179  20.650  0.00  0.00     0.033 H 
ENDROOT
BRANCH   1   4
ATOM      4  C9  STE d          -1.504  11.741  19.544  0.00  0.00    -0.065 C 
ATOM      5  H15 STE d          -0.430  11.977  19.571  0.00  0.00     0.033 H 
ATOM      6  H16 STE d          -1.758  11.091  20.395  0.00  0.00     0.033 H 
BRANCH   4   7
ATOM      7  C8  STE d          -1.836  11.028  18.244  0.00  0.00    -0.065 C 
ATOM      8  H13 STE d          -2.900  11.169  18.003  0.00  0.00     0.033 H 
ATOM      9  H14 STE d          -1.218  11.434  17.429  0.00  0.00     0.033 H 
BRANCH   7  10
ATOM     10  C7  STE d          -1.544   9.558  18.421  0.00  0.00    -0.065 C 
ATOM     11  H11 STE d          -2.287   8.975  17.857  0.00  0.00     0.033 H 
ATOM     12  H12 STE d          -0.538   9.344  18.032  0.00  0.00     0.033 H 
BRANCH  10  13
ATOM     13  C6  STE d          -1.606   9.153  19.888  0.00  0.00    -0.065 C 
ATOM     14  H9  STE d          -0.633   8.739  20.191  0.00  0.00     0.033 H 
ATOM     15  H10 STE d          -1.834  10.039  20.500  0.00  0.00     0.033 H 
BRANCH  13  16
ATOM     16  C5  STE d          -2.689   8.102  20.101  0.00  0.00    -0.065 C 
ATOM     17  H7  STE d          -2.321   7.134  19.733  0.00  0.00     0.033 H 
ATOM     18  H8  STE d          -2.904   8.028  21.178  0.00  0.00     0.033 H 
BRANCH  16  19
ATOM     19  C4  STE d          -3.976   8.446  19.368  0.00  0.00    -0.065 C 
ATOM     20  H5  STE d          -4.311   9.444  19.687  0.00  0.00     0.033 H 
ATOM     21  H6  STE d          -3.778   8.453  18.286  0.00  0.00     0.033 H 
BRANCH  19  22
ATOM     22  C3  STE d          -5.082   7.435  19.662  0.00  0.00    -0.056 C 
ATOM     23  H3  STE d          -4.644   6.564  20.171  0.00  0.00     0.033 H 
ATOM     24  H4  STE d          -5.830   7.905  20.317  0.00  0.00     0.033 H 
BRANCH  22  25
ATOM     25  C2  STE d          -5.768   6.967  18.381  0.00  0.00     0.016 C 
ATOM     26  H1  STE d          -6.855   7.105  18.475  0.00  0.00     0.049 H 
ATOM     27  H2  STE d          -5.397   7.554  17.528  0.00  0.00     0.049 H 
BRANCH  25  28
ATOM     28  C1  STE d          -5.461   5.509  18.164  0.00  0.00     0.172 C 
ATOM     29  O1  STE d          -4.286   5.196  17.849  0.00  0.00    -0.648 OA
ATOM     30  O2  STE d          -6.386   4.677  18.278  0.00  0.00    -0.648 OA
ENDBRANCH  25  28
ENDBRANCH  22  25
ENDBRANCH  19  22
ENDBRANCH  16  19
ENDBRANCH  13  16
ENDBRANCH  10  13
ENDBRANCH   7  10
ENDBRANCH   4   7
ENDBRANCH   1   4
BRANCH   1  31
ATOM     31  C11 STE d          -3.469  12.867  18.661  0.00  0.00    -0.065 C 
ATOM     32  H19 STE d          -4.358  12.512  19.202  0.00  0.00     0.033 H 
ATOM     33  H20 STE d          -3.202  12.142  17.878  0.00  0.00     0.033 H 
BRANCH  31  34
ATOM     34  C12 STE d          -3.755  14.213  18.036  0.00  0.00    -0.065 C 
ATOM     35  H21 STE d          -4.774  14.535  18.295  0.00  0.00     0.033 H 
ATOM     36  H22 STE d          -3.659  14.143  16.942  0.00  0.00     0.033 H 
BRANCH  34  37
ATOM     37  C13 STE d          -2.759  15.201  18.570  0.00  0.00    -0.065 C 
ATOM     38  H23 STE d          -1.750  14.904  18.248  0.00  0.00     0.033 H 
ATOM     39  H24 STE d          -2.809  15.201  19.669  0.00  0.00     0.033 H 
BRANCH  37  40
ATOM     40  C14 STE d          -3.046  16.604  18.063  0.00  0.00    -0.065 C 
ATOM     41  H25 STE d          -2.293  16.872  17.307  0.00  0.00     0.033 H 
ATOM     42  H26 STE d          -2.986  17.309  18.906  0.00  0.00     0.033 H 
BRANCH  40  43
ATOM     43  C15 STE d          -4.436  16.698  17.435  0.00  0.00    -0.065 C 
ATOM     44  H27 STE d          -5.124  17.210  18.123  0.00  0.00     0.033 H 
ATOM     45  H28 STE d          -4.818  15.691  17.216  0.00  0.00     0.033 H 
BRANCH  43  46
ATOM     46  C16 STE d          -4.302  17.491  16.151  0.00  0.00    -0.065 C 
ATOM     47  H29 STE d          -3.241  17.508  15.857  0.00  0.00     0.033 H 
ATOM     48  H30 STE d          -4.648  18.519  16.335  0.00  0.00     0.033 H 
BRANCH  46  49
ATOM     49  C17 STE d          -5.106  16.906  15.019  0.00  0.00    -0.069 C 
ATOM     50  H31 STE d          -5.087  17.610  14.173  0.00  0.00     0.032 H 
ATOM     51  H32 STE d          -6.143  16.768  15.358  0.00  0.00     0.032 H 
BRANCH  49  52
ATOM     52  C18 STE d          -4.568  15.571  14.551  0.00  0.00    -0.077 C 
ATOM     53  H33 STE d          -4.264  15.648  13.497  0.00  0.00     0.027 H 
ATOM     54  H34 STE d          -5.350  14.805  14.652  0.00  0.00     0.027 H 
ATOM     55  H35 STE d          -3.698  15.292  15.164  0.00  0.00     0.027 H 
ENDBRANCH  49  52
ENDBRANCH  46  49
ENDBRANCH  43  46
ENDBRANCH  40  43
ENDBRANCH  37  40
ENDBRANCH  34  37
ENDBRANCH  31  34
ENDBRANCH   1  31
TORSDOF 17
ENDMDL
MODEL 4
REMARK VINA RESULT:      -6.1      4.547      9.423
REMARK  17 active torsions:
REMARK  status: ('A' for Active; 'I' for Inactive)
REMARK    1  A    between atoms: C1_1  and  C2_4 
REMARK    2  A    between atoms: C2_4  and  C3_5 
REMARK    3  A    between atoms: C3_5  and  C4_6 
REMARK    4  A    between atoms: C4_6  and  C5_7 
REMARK    5  A    between atoms: C5_7  and  C6_8 
REMARK    6  A    between atoms: C6_8  and  C7_9 
REMARK    7  A    between atoms: C7_9  and  C8_10 
REMARK    8  A    between atoms: C8_10  and  C9_11 
REMARK    9  A    between atoms: C9_11  and  C10_12 
REMARK   10  A    between atoms: C10_12  and  C11_13 
REMARK   11  A    between atoms: C11_13  and  C12_14 
REMARK   12  A    between atoms: C12_14  and  C13_15 
REMARK   13  A    between atoms: C13_15  and  C14_16 
REMARK   14  A    between atoms: C14_16  and  C15_17 
REMARK   15  A    between atoms: C15_17  and  C16_18 
REMARK   16  A    between atoms: C16_18  and  C17_19 
REMARK   17  A    between atoms: C17_19  and  C18_20 
ROOT
ATOM      1  C10 STE d          -2.054  10.470  19.795  0.00  0.00    -0.065 C 
ATOM      2  H17 STE d          -2.998  10.250  20.315  0.00  0.00     0.033 H 
ATOM      3  H18 STE d          -1.350  10.943  20.497  0.00  0.00     0.033 H 
ENDROOT
BRANCH   1   4
ATOM      4  C9  STE d          -2.308  11.385  18.606  0.00  0.00    -0.065 C 
ATOM      5  H15 STE d          -1.689  12.290  18.698  0.00  0.00     0.033 H 
ATOM      6  H16 STE d          -2.050  10.859  17.674  0.00  0.00     0.033 H 
BRANCH   4   7
ATOM      7  C8  STE d          -3.777  11.773  18.581  0.00  0.00    -0.065 C 
ATOM      8  H13 STE d          -4.281  11.270  17.743  0.00  0.00     0.033 H 
ATOM      9  H14 STE d          -4.255  11.479  19.528  0.00  0.00     0.033 H 
BRANCH   7  10
ATOM     10  C7  STE d          -3.869  13.269  18.407  0.00  0.00    -0.065 C 
ATOM     11  H11 STE d          -4.061  13.495  17.348  0.00  0.00     0.033 H 
ATOM     12  H12 STE d          -4.699  13.650  19.020  0.00  0.00     0.033 H 
BRANCH  10  13
ATOM     13  C6  STE d          -2.579  13.958  18.835  0.00  0.00    -0.065 C 
ATOM     14  H9  STE d          -2.528  13.983  19.933  0.00  0.00     0.033 H 
ATOM     15  H10 STE d          -1.720  13.396  18.439  0.00  0.00     0.033 H 
BRANCH  13  16
ATOM     16  C5  STE d          -2.539  15.384  18.297  0.00  0.00    -0.065 C 
ATOM     17  H7  STE d          -2.045  16.028  19.039  0.00  0.00     0.033 H 
ATOM     18  H8  STE d          -1.961  15.393  17.360  0.00  0.00     0.033 H 
BRANCH  16  19
ATOM     19  C4  STE d          -3.928  15.934  18.021  0.00  0.00    -0.065 C 
ATOM     20  H5  STE d          -4.342  15.426  17.137  0.00  0.00     0.033 H 
ATOM     21  H6  STE d          -4.570  15.736  18.892  0.00  0.00     0.033 H 
BRANCH  19  22
ATOM     22  C3  STE d          -3.901  17.437  17.759  0.00  0.00    -0.056 C 
ATOM     23  H3  STE d          -3.868  17.967  18.723  0.00  0.00     0.033 H 
ATOM     24  H4  STE d          -3.000  17.682  17.177  0.00  0.00     0.033 H 
BRANCH  22  25
ATOM     25  C2  STE d          -5.133  17.895  16.983  0.00  0.00     0.016 C 
ATOM     26  H1  STE d          -5.995  17.270  17.259  0.00  0.00     0.049 H 
ATOM     27  H2  STE d          -5.350  18.946  17.224  0.00  0.00     0.049 H 
BRANCH  25  28
ATOM     28  C1  STE d          -4.862  17.759  15.508  0.00  0.00     0.172 C 
ATOM     29  O1  STE d          -3.973  18.488  15.003  0.00  0.00    -0.648 OA
ATOM     30  O2  STE d          -5.547  16.951  14.844  0.00  0.00    -0.648 OA
ENDBRANCH  25  28
ENDBRANCH  22  25
ENDBRANCH  19  22
ENDBRANCH  16  19
ENDBRANCH  13  16
ENDBRANCH  10  13
ENDBRANCH   7  10
ENDBRANCH   4   7
ENDBRANCH   1   4
BRANCH   1  31
ATOM     31  C11 STE d          -1.457   9.196  19.231  0.00  0.00    -0.065 C 
ATOM     32  H19 STE d          -0.360   9.272  19.221  0.00  0.00     0.033 H 
ATOM     33  H20 STE d          -1.823   9.035  18.206  0.00  0.00     0.033 H 
BRANCH  31  34
ATOM     34  C12 STE d          -1.881   8.043  20.113  0.00  0.00    -0.065 C 
ATOM     35  H21 STE d          -1.097   7.836  20.856  0.00  0.00     0.033 H 
ATOM     36  H22 STE d          -2.049   7.148  19.497  0.00  0.00     0.033 H 
BRANCH  34  37
ATOM     37  C13 STE d          -3.153   8.428  20.809  0.00  0.00    -0.065 C 
ATOM     38  H23 STE d          -3.420   9.457  20.526  0.00  0.00     0.033 H 
ATOM     39  H24 STE d          -2.996   8.375  21.897  0.00  0.00     0.033 H 
BRANCH  37  40
ATOM     40  C14 STE d          -4.294   7.500  20.430  0.00  0.00    -0.065 C 
ATOM     41  H25 STE d          -4.986   7.417  21.280  0.00  0.00     0.033 H 
ATOM     42  H26 STE d          -3.883   6.507  20.193  0.00  0.00     0.033 H 
BRANCH  40  43
ATOM     43  C15 STE d          -5.059   8.023  19.215  0.00  0.00    -0.065 C 
ATOM     44  H27 STE d          -4.428   8.720  18.644  0.00  0.00     0.033 H 
ATOM     45  H28 STE d          -5.973   8.540  19.542  0.00  0.00     0.033 H 
BRANCH  43  46
ATOM     46  C16 STE d          -5.420   6.829  18.356  0.00  0.00    -0.065 C 
ATOM     47  H29 STE d          -5.899   7.191  17.433  0.00  0.00     0.033 H 
ATOM     48  H30 STE d          -6.128   6.196  18.912  0.00  0.00     0.033 H 
BRANCH  46  49
ATOM     49  C17 STE d          -4.220   5.997  17.983  0.00  0.00    -0.069 C 
ATOM     50  H31 STE d          -3.531   5.968  18.840  0.00  0.00     0.032 H 
ATOM     51  H32 STE d          -3.719   6.466  17.124  0.00  0.00     0.032 H 
BRANCH  49  52
ATOM     52  C18 STE d          -4.590   4.577  17.610  0.00  0.00    -0.077 C 
ATOM     53  H33 STE d          -5.583   4.569  17.137  0.00  0.00     0.027 H 
ATOM     54  H34 STE d          -4.612   3.954  18.517  0.00  0.00     0.027 H 
ATOM     55  H35 STE d          -3.846   4.176  16.907  0.00  0.00     0.027 H 
ENDBRANCH  49  52
ENDBRANCH  46  49
ENDBRANCH  43  46
ENDBRANCH  40  43
ENDBRANCH  37  40
ENDBRANCH  34  37
ENDBRANCH  31  34
ENDBRANCH   1  31
TORSDOF 17
ENDMDL
MODEL 5
REMARK VINA RESULT:      -6.1      4.435     10.014
REMARK  17 active torsions:
REMARK  status: ('A' for Active; 'I' for Inactive)
REMARK    1  A    between atoms: C1_1  and  C2_4 
REMARK    2  A    between atoms: C2_4  and  C3_5 
REMARK    3  A    between atoms: C3_5  and  C4_6 
REMARK    4  A    between atoms: C4_6  and  C5_7 
REMARK    5  A    between atoms: C5_7  and  C6_8 
REMARK    6  A    between atoms: C6_8  and  C7_9 
REMARK    7  A    between atoms: C7_9  and  C8_10 
REMARK    8  A    between atoms: C8_10  and  C9_11 
REMARK    9  A    between atoms: C9_11  and  C10_12 
REMARK   10  A    between atoms: C10_12  and  C11_13 
REMARK   11  A    between atoms: C11_13  and  C12_14 
REMARK   12  A    between atoms: C12_14  and  C13_15 
REMARK   13  A    between atoms: C13_15  and  C14_16 
REMARK   14  A    between atoms: C14_16  and  C15_17 
REMARK   15  A    between atoms: C15_17  and  C16_18 
REMARK   16  A    between atoms: C16_18  and  C17_19 
REMARK   17  A    between atoms: C17_19  and  C18_20 
ROOT
ATOM      1  C10 STE d          -1.718  10.626  18.519  0.00  0.00    -0.065 C 
ATOM      2  H17 STE d          -0.771  10.816  17.993  0.00  0.00     0.033 H 
ATOM      3  H18 STE d          -2.400  10.071  17.858  0.00  0.00     0.033 H 
ENDROOT
BRANCH   1   4
ATOM      4  C9  STE d          -2.355  11.940  18.950  0.00  0.00    -0.065 C 
ATOM      5  H15 STE d          -2.377  11.997  20.049  0.00  0.00     0.033 H 
ATOM      6  H16 STE d          -1.770  12.782  18.551  0.00  0.00     0.033 H 
BRANCH   4   7
ATOM      7  C8  STE d          -3.774  12.006  18.408  0.00  0.00    -0.065 C 
ATOM      8  H13 STE d          -3.851  11.401  17.493  0.00  0.00     0.033 H 
ATOM      9  H14 STE d          -4.478  11.623  19.162  0.00  0.00     0.033 H 
BRANCH   7  10
ATOM     10  C7  STE d          -4.095  13.447  18.096  0.00  0.00    -0.065 C 
ATOM     11  H11 STE d          -4.211  13.561  17.008  0.00  0.00     0.033 H 
ATOM     12  H12 STE d          -5.037  13.720  18.595  0.00  0.00     0.033 H 
BRANCH  10  13
ATOM     13  C6  STE d          -2.991  14.379  18.577  0.00  0.00    -0.065 C 
ATOM     14  H9  STE d          -3.277  14.812  19.547  0.00  0.00     0.033 H 
ATOM     15  H10 STE d          -2.058  13.807  18.691  0.00  0.00     0.033 H 
BRANCH  13  16
ATOM     16  C5  STE d          -2.772  15.503  17.570  0.00  0.00    -0.065 C 
ATOM     17  H7  STE d          -1.704  15.541  17.308  0.00  0.00     0.033 H 
ATOM     18  H8  STE d          -3.364  15.289  16.667  0.00  0.00     0.033 H 
BRANCH  16  19
ATOM     19  C4  STE d          -3.188  16.856  18.120  0.00  0.00    -0.065 C 
ATOM     20  H5  STE d          -3.161  16.817  19.219  0.00  0.00     0.033 H 
ATOM     21  H6  STE d          -2.481  17.620  17.762  0.00  0.00     0.033 H 
BRANCH  19  22
ATOM     22  C3  STE d          -4.597  17.240  17.674  0.00  0.00    -0.056 C 
ATOM     23  H3  STE d          -5.037  16.399  17.118  0.00  0.00     0.033 H 
ATOM     24  H4  STE d          -5.208  17.451  18.564  0.00  0.00     0.033 H 
BRANCH  22  25
ATOM     25  C2  STE d          -4.585  18.475  16.777  0.00  0.00     0.016 C 
ATOM     26  H1  STE d          -5.488  19.074  16.963  0.00  0.00     0.049 H 
ATOM     27  H2  STE d          -3.692  19.080  16.994  0.00  0.00     0.049 H 
BRANCH  25  28
ATOM     28  C1  STE d          -4.558  18.035  15.336  0.00  0.00     0.172 C 
ATOM     29  O1  STE d          -3.776  18.629  14.554  0.00  0.00    -0.648 OA
ATOM     30  O2  STE d          -5.330  17.121  14.974  0.00  0.00    -0.648 OA
ENDBRANCH  25  28
ENDBRANCH  22  25
ENDBRANCH  19  22
ENDBRANCH  16  19
ENDBRANCH  13  16
ENDBRANCH  10  13
ENDBRANCH   7  10
ENDBRANCH   4   7
ENDBRANCH   1   4
BRANCH   1  31
ATOM     31  C11 STE d          -1.464   9.841  19.791  0.00  0.00    -0.065 C 
ATOM     32  H19 STE d          -1.927  10.356  20.645  0.00  0.00     0.033 H 
ATOM     33  H20 STE d          -0.381   9.749  19.961  0.00  0.00     0.033 H 
BRANCH  31  34
ATOM     34  C12 STE d          -2.074   8.468  19.629  0.00  0.00    -0.065 C 
ATOM     35  H21 STE d          -1.303   7.698  19.776  0.00  0.00     0.033 H 
ATOM     36  H22 STE d          -2.505   8.369  18.622  0.00  0.00     0.033 H 
BRANCH  34  37
ATOM     37  C13 STE d          -3.153   8.309  20.661  0.00  0.00    -0.065 C 
ATOM     38  H23 STE d          -3.965   9.018  20.443  0.00  0.00     0.033 H 
ATOM     39  H24 STE d          -2.732   8.526  21.654  0.00  0.00     0.033 H 
BRANCH  37  40
ATOM     40  C14 STE d          -3.715   6.899  20.659  0.00  0.00    -0.065 C 
ATOM     41  H25 STE d          -4.603   6.868  20.011  0.00  0.00     0.033 H 
ATOM     42  H26 STE d          -4.002   6.626  21.686  0.00  0.00     0.033 H 
BRANCH  40  43
ATOM     43  C15 STE d          -2.690   5.888  20.146  0.00  0.00    -0.065 C 
ATOM     44  H27 STE d          -1.914   6.405  19.563  0.00  0.00     0.033 H 
ATOM     45  H28 STE d          -3.187   5.139  19.512  0.00  0.00     0.033 H 
BRANCH  43  46
ATOM     46  C16 STE d          -2.071   5.216  21.353  0.00  0.00    -0.065 C 
ATOM     47  H29 STE d          -2.573   4.250  21.515  0.00  0.00     0.033 H 
ATOM     48  H30 STE d          -2.223   5.860  22.232  0.00  0.00     0.033 H 
BRANCH  46  49
ATOM     49  C17 STE d          -0.593   4.969  21.187  0.00  0.00    -0.069 C 
ATOM     50  H31 STE d          -0.429   3.889  21.056  0.00  0.00     0.032 H 
ATOM     51  H32 STE d          -0.074   5.311  22.095  0.00  0.00     0.032 H 
BRANCH  49  52
ATOM     52  C18 STE d          -0.012   5.696  19.994  0.00  0.00    -0.077 C 
ATOM     53  H33 STE d           0.325   4.963  19.247  0.00  0.00     0.027 H 
ATOM     54  H34 STE d           0.843   6.308  20.318  0.00  0.00     0.027 H 
ATOM     55  H35 STE d          -0.781   6.345  19.549  0.00  0.00     0.027 H 
ENDBRANCH  49  52
ENDBRANCH  46  49
ENDBRANCH  43  46
ENDBRANCH  40  43
ENDBRANCH  37  40
ENDBRANCH  34  37
ENDBRANCH  31  34
ENDBRANCH   1  31
TORSDOF 17
ENDMDL
MODEL 6
REMARK VINA RESULT:      -6.1      4.546      9.570
REMARK  17 active torsions:
REMARK  status: ('A' for Active; 'I' for Inactive)
REMARK    1  A    between atoms: C1_1  and  C2_4 
REMARK    2  A    between atoms: C2_4  and  C3_5 
REMARK    3  A    between atoms: C3_5  and  C4_6 
REMARK    4  A    between atoms: C4_6  and  C5_7 
REMARK    5  A    between atoms: C5_7  and  C6_8 
REMARK    6  A    between atoms: C6_8  and  C7_9 
REMARK    7  A    between atoms: C7_9  and  C8_10 
REMARK    8  A    between atoms: C8_10  and  C9_11 
REMARK    9  A    between atoms: C9_11  and  C10_12 
REMARK   10  A    between atoms: C10_12  and  C11_13 
REMARK   11  A    between atoms: C11_13  and  C12_14 
REMARK   12  A    between atoms: C12_14  and  C13_15 
REMARK   13  A    between atoms: C13_15  and  C14_16 
REMARK   14  A    between atoms: C14_16  and  C15_17 
REMARK   15  A    between atoms: C15_17  and  C16_18 
REMARK   16  A    between atoms: C16_18  and  C17_19 
REMARK   17  A    between atoms: C17_19  and  C18_20 
ROOT
ATOM      1  C10 STE d          -1.861   9.908  18.886  0.00  0.00    -0.065 C 
ATOM      2  H17 STE d          -1.423   9.640  17.913  0.00  0.00     0.033 H 
ATOM      3  H18 STE d          -2.938  10.096  18.763  0.00  0.00     0.033 H 
ENDROOT
BRANCH   1   4
ATOM      4  C9  STE d          -1.172  11.140  19.454  0.00  0.00    -0.065 C 
ATOM      5  H15 STE d          -0.591  10.859  20.346  0.00  0.00     0.033 H 
ATOM      6  H16 STE d          -0.497  11.567  18.698  0.00  0.00     0.033 H 
BRANCH   4   7
ATOM      7  C8  STE d          -2.225  12.168  19.836  0.00  0.00    -0.065 C 
ATOM      8  H13 STE d          -2.748  11.843  20.747  0.00  0.00     0.033 H 
ATOM      9  H14 STE d          -1.746  13.142  20.014  0.00  0.00     0.033 H 
BRANCH   7  10
ATOM     10  C7  STE d          -3.207  12.284  18.697  0.00  0.00    -0.065 C 
ATOM     11  H11 STE d          -2.794  11.774  17.813  0.00  0.00     0.033 H 
ATOM     12  H12 STE d          -4.152  11.802  18.989  0.00  0.00     0.033 H 
BRANCH  10  13
ATOM     13  C6  STE d          -3.481  13.741  18.346  0.00  0.00    -0.065 C 
ATOM     14  H9  STE d          -3.586  13.838  17.255  0.00  0.00     0.033 H 
ATOM     15  H10 STE d          -4.412  14.063  18.835  0.00  0.00     0.033 H 
BRANCH  13  16
ATOM     16  C5  STE d          -2.331  14.623  18.821  0.00  0.00    -0.065 C 
ATOM     17  H7  STE d          -2.160  14.437  19.891  0.00  0.00     0.033 H 
ATOM     18  H8  STE d          -1.426  14.360  18.253  0.00  0.00     0.033 H 
BRANCH  16  19
ATOM     19  C4  STE d          -2.622  16.101  18.622  0.00  0.00    -0.065 C 
ATOM     20  H5  STE d          -2.726  16.579  19.608  0.00  0.00     0.033 H 
ATOM     21  H6  STE d          -1.783  16.560  18.079  0.00  0.00     0.033 H 
BRANCH  19  22
ATOM     22  C3  STE d          -3.906  16.324  17.827  0.00  0.00    -0.056 C 
ATOM     23  H3  STE d          -3.774  15.918  16.813  0.00  0.00     0.033 H 
ATOM     24  H4  STE d          -4.732  15.798  18.328  0.00  0.00     0.033 H 
BRANCH  22  25
ATOM     25  C2  STE d          -4.253  17.807  17.725  0.00  0.00     0.016 C 
ATOM     26  H1  STE d          -5.229  17.990  18.196  0.00  0.00     0.049 H 
ATOM     27  H2  STE d          -3.482  18.402  18.237  0.00  0.00     0.049 H 
BRANCH  25  28
ATOM     28  C1  STE d          -4.312  18.199  16.272  0.00  0.00     0.172 C 
ATOM     29  O1  STE d          -4.442  19.417  15.996  0.00  0.00    -0.648 OA
ATOM     30  O2  STE d          -4.255  17.300  15.405  0.00  0.00    -0.648 OA
ENDBRANCH  25  28
ENDBRANCH  22  25
ENDBRANCH  19  22
ENDBRANCH  16  19
ENDBRANCH  13  16
ENDBRANCH  10  13
ENDBRANCH   7  10
ENDBRANCH   4   7
ENDBRANCH   1   4
BRANCH   1  31
ATOM     31  C11 STE d          -1.634   8.794  19.888  0.00  0.00    -0.065 C 
ATOM     32  H19 STE d          -1.057   9.174  20.743  0.00  0.00     0.033 H 
ATOM     33  H20 STE d          -1.082   7.970  19.410  0.00  0.00     0.033 H 
BRANCH  31  34
ATOM     34  C12 STE d          -2.982   8.299  20.360  0.00  0.00    -0.065 C 
ATOM     35  H21 STE d          -3.194   8.697  21.363  0.00  0.00     0.033 H 
ATOM     36  H22 STE d          -2.984   7.200  20.394  0.00  0.00     0.033 H 
BRANCH  34  37
ATOM     37  C13 STE d          -4.024   8.780  19.393  0.00  0.00    -0.065 C 
ATOM     38  H23 STE d          -3.527   9.137  18.479  0.00  0.00     0.033 H 
ATOM     39  H24 STE d          -4.586   9.606  19.853  0.00  0.00     0.033 H 
BRANCH  37  40
ATOM     40  C14 STE d          -4.992   7.668  19.026  0.00  0.00    -0.065 C 
ATOM     41  H25 STE d          -5.841   8.100  18.477  0.00  0.00     0.033 H 
ATOM     42  H26 STE d          -5.357   7.192  19.949  0.00  0.00     0.033 H 
BRANCH  40  43
ATOM     43  C15 STE d          -4.322   6.609  18.152  0.00  0.00    -0.065 C 
ATOM     44  H27 STE d          -3.239   6.792  18.105  0.00  0.00     0.033 H 
ATOM     45  H28 STE d          -4.744   6.638  17.137  0.00  0.00     0.033 H 
BRANCH  43  46
ATOM     46  C16 STE d          -4.592   5.260  18.786  0.00  0.00    -0.065 C 
ATOM     47  H29 STE d          -5.155   4.641  18.070  0.00  0.00     0.033 H 
ATOM     48  H30 STE d          -5.196   5.412  19.693  0.00  0.00     0.033 H 
BRANCH  46  49
ATOM     49  C17 STE d          -3.328   4.531  19.164  0.00  0.00    -0.069 C 
ATOM     50  H31 STE d          -2.495   4.943  18.576  0.00  0.00     0.032 H 
ATOM     51  H32 STE d          -3.452   3.464  18.927  0.00  0.00     0.032 H 
BRANCH  49  52
ATOM     52  C18 STE d          -2.997   4.665  20.635  0.00  0.00    -0.077 C 
ATOM     53  H33 STE d          -3.909   4.513  21.231  0.00  0.00     0.027 H 
ATOM     54  H34 STE d          -2.596   5.671  20.830  0.00  0.00     0.027 H 
ATOM     55  H35 STE d          -2.248   3.910  20.913  0.00  0.00     0.027 H 
ENDBRANCH  49  52
ENDBRANCH  46  49
ENDBRANCH  43  46
ENDBRANCH  40  43
ENDBRANCH  37  40
ENDBRANCH  34  37
ENDBRANCH  31  34
ENDBRANCH   1  31
TORSDOF 17
ENDMDL
MODEL 7
REMARK VINA RESULT:      -6.0      4.570      9.270
REMARK  17 active torsions:
REMARK  status: ('A' for Active; 'I' for Inactive)
REMARK    1  A    between atoms: C1_1  and  C2_4 
REMARK    2  A    between atoms: C2_4  and  C3_5 
REMARK    3  A    between atoms: C3_5  and  C4_6 
REMARK    4  A    between atoms: C4_6  and  C5_7 
REMARK    5  A    between atoms: C5_7  and  C6_8 
REMARK    6  A    between atoms: C6_8  and  C7_9 
REMARK    7  A    between atoms: C7_9  and  C8_10 
REMARK    8  A    between atoms: C8_10  and  C9_11 
REMARK    9  A    between atoms: C9_11  and  C10_12 
REMARK   10  A    between atoms: C10_12  and  C11_13 
REMARK   11  A    between atoms: C11_13  and  C12_14 
REMARK   12  A    between atoms: C12_14  and  C13_15 
REMARK   13  A    between atoms: C13_15  and  C14_16 
REMARK   14  A    between atoms: C14_16  and  C15_17 
REMARK   15  A    between atoms: C15_17  and  C16_18 
REMARK   16  A    between atoms: C16_18  and  C17_19 
REMARK   17  A    between atoms: C17_19  and  C18_20 
ROOT
ATOM      1  C10 STE d          -2.150   9.369  18.577  0.00  0.00    -0.065 C 
ATOM      2  H17 STE d          -1.884   8.690  17.753  0.00  0.00     0.033 H 
ATOM      3  H18 STE d          -3.241   9.510  18.599  0.00  0.00     0.033 H 
ENDROOT
BRANCH   1   4
ATOM      4  C9  STE d          -1.449  10.709  18.405  0.00  0.00    -0.065 C 
ATOM      5  H15 STE d          -0.414  10.542  18.070  0.00  0.00     0.033 H 
ATOM      6  H16 STE d          -1.984  11.311  17.655  0.00  0.00     0.033 H 
BRANCH   4   7
ATOM      7  C8  STE d          -1.442  11.442  19.736  0.00  0.00    -0.065 C 
ATOM      8  H13 STE d          -1.956  10.836  20.497  0.00  0.00     0.033 H 
ATOM      9  H14 STE d          -0.405  11.628  20.053  0.00  0.00     0.033 H 
BRANCH   7  10
ATOM     10  C7  STE d          -2.164  12.755  19.557  0.00  0.00    -0.065 C 
ATOM     11  H11 STE d          -2.177  13.291  20.518  0.00  0.00     0.033 H 
ATOM     12  H12 STE d          -1.629  13.358  18.809  0.00  0.00     0.033 H 
BRANCH  10  13
ATOM     13  C6  STE d          -3.598  12.541  19.090  0.00  0.00    -0.065 C 
ATOM     14  H9  STE d          -3.669  11.576  18.567  0.00  0.00     0.033 H 
ATOM     15  H10 STE d          -4.267  12.535  19.964  0.00  0.00     0.033 H 
BRANCH  13  16
ATOM     16  C5  STE d          -4.017  13.659  18.143  0.00  0.00    -0.065 C 
ATOM     17  H7  STE d          -4.185  13.233  17.143  0.00  0.00     0.033 H 
ATOM     18  H8  STE d          -4.953  14.105  18.513  0.00  0.00     0.033 H 
BRANCH  16  19
ATOM     19  C4  STE d          -2.964  14.750  18.039  0.00  0.00    -0.065 C 
ATOM     20  H5  STE d          -2.892  15.269  19.006  0.00  0.00     0.033 H 
ATOM     21  H6  STE d          -1.995  14.288  17.798  0.00  0.00     0.033 H 
BRANCH  19  22
ATOM     22  C3  STE d          -3.309  15.768  16.955  0.00  0.00    -0.056 C 
ATOM     23  H3  STE d          -2.376  16.153  16.517  0.00  0.00     0.033 H 
ATOM     24  H4  STE d          -3.903  15.271  16.174  0.00  0.00     0.033 H 
BRANCH  22  25
ATOM     25  C2  STE d          -4.110  16.939  17.519  0.00  0.00     0.016 C 
ATOM     26  H1  STE d          -5.042  16.564  17.967  0.00  0.00     0.049 H 
ATOM     27  H2  STE d          -3.517  17.456  18.287  0.00  0.00     0.049 H 
BRANCH  25  28
ATOM     28  C1  STE d          -4.435  17.895  16.402  0.00  0.00     0.172 C 
ATOM     29  O1  STE d          -4.472  19.121  16.670  0.00  0.00    -0.648 OA
ATOM     30  O2  STE d          -4.679  17.432  15.267  0.00  0.00    -0.648 OA
ENDBRANCH  25  28
ENDBRANCH  22  25
ENDBRANCH  19  22
ENDBRANCH  16  19
ENDBRANCH  13  16
ENDBRANCH  10  13
ENDBRANCH   7  10
ENDBRANCH   4   7
ENDBRANCH   1   4
BRANCH   1  31
ATOM     31  C11 STE d          -1.668   8.803  19.898  0.00  0.00    -0.065 C 
ATOM     32  H19 STE d          -1.233   9.607  20.510  0.00  0.00     0.033 H 
ATOM     33  H20 STE d          -0.908   8.029  19.716  0.00  0.00     0.033 H 
BRANCH  31  34
ATOM     34  C12 STE d          -2.852   8.199  20.616  0.00  0.00    -0.065 C 
ATOM     35  H21 STE d          -3.776   8.419  20.060  0.00  0.00     0.033 H 
ATOM     36  H22 STE d          -2.926   8.617  21.630  0.00  0.00     0.033 H 
BRANCH  34  37
ATOM     37  C13 STE d          -2.648   6.714  20.692  0.00  0.00    -0.065 C 
ATOM     38  H23 STE d          -2.405   6.438  21.729  0.00  0.00     0.033 H 
ATOM     39  H24 STE d          -1.814   6.433  20.032  0.00  0.00     0.033 H 
BRANCH  37  40
ATOM     40  C14 STE d          -3.895   5.961  20.260  0.00  0.00    -0.065 C 
ATOM     41  H25 STE d          -4.782   6.545  20.548  0.00  0.00     0.033 H 
ATOM     42  H26 STE d          -3.918   4.985  20.768  0.00  0.00     0.033 H 
BRANCH  40  43
ATOM     43  C15 STE d          -3.917   5.736  18.749  0.00  0.00    -0.065 C 
ATOM     44  H27 STE d          -3.792   4.666  18.527  0.00  0.00     0.033 H 
ATOM     45  H28 STE d          -3.106   6.305  18.273  0.00  0.00     0.033 H 
BRANCH  43  46
ATOM     46  C16 STE d          -5.258   6.218  18.237  0.00  0.00    -0.065 C 
ATOM     47  H29 STE d          -5.837   5.348  17.891  0.00  0.00     0.033 H 
ATOM     48  H30 STE d          -5.086   6.903  17.392  0.00  0.00     0.033 H 
BRANCH  46  49
ATOM     49  C17 STE d          -6.058   6.941  19.289  0.00  0.00    -0.069 C 
ATOM     50  H31 STE d          -5.475   6.960  20.222  0.00  0.00     0.032 H 
ATOM     51  H32 STE d          -6.998   6.396  19.454  0.00  0.00     0.032 H 
BRANCH  49  52
ATOM     52  C18 STE d          -6.386   8.366  18.894  0.00  0.00    -0.077 C 
ATOM     53  H33 STE d          -5.551   9.025  19.173  0.00  0.00     0.027 H 
ATOM     54  H34 STE d          -7.298   8.690  19.416  0.00  0.00     0.027 H 
ATOM     55  H35 STE d          -6.546   8.417  17.807  0.00  0.00     0.027 H 
ENDBRANCH  49  52
ENDBRANCH  46  49
ENDBRANCH  43  46
ENDBRANCH  40  43
ENDBRANCH  37  40
ENDBRANCH  34  37
ENDBRANCH  31  34
ENDBRANCH   1  31
TORSDOF 17
ENDMDL
MODEL 8
REMARK VINA RESULT:      -5.9      4.248      9.689
REMARK  17 active torsions:
REMARK  status: ('A' for Active; 'I' for Inactive)
REMARK    1  A    between atoms: C1_1  and  C2_4 
REMARK    2  A    between atoms: C2_4  and  C3_5 
REMARK    3  A    between atoms: C3_5  and  C4_6 
REMARK    4  A    between atoms: C4_6  and  C5_7 
REMARK    5  A    between atoms: C5_7  and  C6_8 
REMARK    6  A    between atoms: C6_8  and  C7_9 
REMARK    7  A    between atoms: C7_9  and  C8_10 
REMARK    8  A    between atoms: C8_10  and  C9_11 
REMARK    9  A    between atoms: C9_11  and  C10_12 
REMARK   10  A    between atoms: C10_12  and  C11_13 
REMARK   11  A    between atoms: C11_13  and  C12_14 
REMARK   12  A    between atoms: C12_14  and  C13_15 
REMARK   13  A    between atoms: C13_15  and  C14_16 
REMARK   14  A    between atoms: C14_16  and  C15_17 
REMARK   15  A    between atoms: C15_17  and  C16_18 
REMARK   16  A    between atoms: C16_18  and  C17_19 
REMARK   17  A    between atoms: C17_19  and  C18_20 
ROOT
ATOM      1  C10 STE d          -2.774   8.468  20.405  0.00  0.00    -0.065 C 
ATOM      2  H17 STE d          -3.040   8.926  21.370  0.00  0.00     0.033 H 
ATOM      3  H18 STE d          -2.774   7.373  20.506  0.00  0.00     0.033 H 
ENDROOT
BRANCH   1   4
ATOM      4  C9  STE d          -1.405   8.955  19.951  0.00  0.00    -0.065 C 
ATOM      5  H15 STE d          -0.801   9.230  20.829  0.00  0.00     0.033 H 
ATOM      6  H16 STE d          -0.896   8.155  19.392  0.00  0.00     0.033 H 
BRANCH   4   7
ATOM      7  C8  STE d          -1.581  10.169  19.054  0.00  0.00    -0.065 C 
ATOM      8  H13 STE d          -1.006  10.033  18.127  0.00  0.00     0.033 H 
ATOM      9  H14 STE d          -2.646  10.300  18.810  0.00  0.00     0.033 H 
BRANCH   7  10
ATOM     10  C7  STE d          -1.075  11.383  19.795  0.00  0.00    -0.065 C 
ATOM     11  H11 STE d          -0.624  11.060  20.745  0.00  0.00     0.033 H 
ATOM     12  H12 STE d          -0.315  11.886  19.180  0.00  0.00     0.033 H 
BRANCH  10  13
ATOM     13  C6  STE d          -2.203  12.363  20.090  0.00  0.00    -0.065 C 
ATOM     14  H9  STE d          -3.021  11.833  20.601  0.00  0.00     0.033 H 
ATOM     15  H10 STE d          -1.825  13.167  20.738  0.00  0.00     0.033 H 
BRANCH  13  16
ATOM     16  C5  STE d          -2.730  12.968  18.793  0.00  0.00    -0.065 C 
ATOM     17  H7  STE d          -2.193  12.515  17.947  0.00  0.00     0.033 H 
ATOM     18  H8  STE d          -3.804  12.744  18.709  0.00  0.00     0.033 H 
BRANCH  16  19
ATOM     19  C4  STE d          -2.538  14.475  18.743  0.00  0.00    -0.065 C 
ATOM     20  H5  STE d          -2.420  14.853  19.769  0.00  0.00     0.033 H 
ATOM     21  H6  STE d          -1.631  14.699  18.162  0.00  0.00     0.033 H 
BRANCH  19  22
ATOM     22  C3  STE d          -3.727  15.175  18.091  0.00  0.00    -0.056 C 
ATOM     23  H3  STE d          -3.820  14.829  17.051  0.00  0.00     0.033 H 
ATOM     24  H4  STE d          -4.642  14.918  18.646  0.00  0.00     0.033 H 
BRANCH  22  25
ATOM     25  C2  STE d          -3.556  16.692  18.095  0.00  0.00     0.016 C 
ATOM     26  H1  STE d          -4.220  17.136  18.851  0.00  0.00     0.049 H 
ATOM     27  H2  STE d          -2.512  16.944  18.330  0.00  0.00     0.049 H 
BRANCH  25  28
ATOM     28  C1  STE d          -3.911  17.229  16.733  0.00  0.00     0.172 C 
ATOM     29  O1  STE d          -3.705  16.492  15.738  0.00  0.00    -0.648 OA
ATOM     30  O2  STE d          -4.368  18.390  16.646  0.00  0.00    -0.648 OA
ENDBRANCH  25  28
ENDBRANCH  22  25
ENDBRANCH  19  22
ENDBRANCH  16  19
ENDBRANCH  13  16
ENDBRANCH  10  13
ENDBRANCH   7  10
ENDBRANCH   4   7
ENDBRANCH   1   4
BRANCH   1  31
ATOM     31  C11 STE d          -3.755   8.898  19.333  0.00  0.00    -0.065 C 
ATOM     32  H19 STE d          -3.214   9.123  18.402  0.00  0.00     0.033 H 
ATOM     33  H20 STE d          -4.302   9.792  19.665  0.00  0.00     0.033 H 
BRANCH  31  34
ATOM     34  C12 STE d          -4.725   7.763  19.097  0.00  0.00    -0.065 C 
ATOM     35  H21 STE d          -5.609   8.135  18.558  0.00  0.00     0.033 H 
ATOM     36  H22 STE d          -5.037   7.334  20.061  0.00  0.00     0.033 H 
BRANCH  34  37
ATOM     37  C13 STE d          -4.033   6.715  18.275  0.00  0.00    -0.065 C 
ATOM     38  H23 STE d          -2.971   6.982  18.176  0.00  0.00     0.033 H 
ATOM     39  H24 STE d          -4.498   6.677  17.279  0.00  0.00     0.033 H 
BRANCH  37  40
ATOM     40  C14 STE d          -4.140   5.346  18.923  0.00  0.00    -0.065 C 
ATOM     41  H25 STE d          -4.630   4.655  18.221  0.00  0.00     0.033 H 
ATOM     42  H26 STE d          -4.745   5.428  19.838  0.00  0.00     0.033 H 
BRANCH  40  43
ATOM     43  C15 STE d          -2.763   4.791  19.287  0.00  0.00    -0.065 C 
ATOM     44  H27 STE d          -1.976   5.418  18.844  0.00  0.00     0.033 H 
ATOM     45  H28 STE d          -2.664   3.761  18.915  0.00  0.00     0.033 H 
BRANCH  43  46
ATOM     46  C16 STE d          -2.651   4.808  20.797  0.00  0.00    -0.065 C 
ATOM     47  H29 STE d          -2.906   3.809  21.181  0.00  0.00     0.033 H 
ATOM     48  H30 STE d          -3.363   5.547  21.194  0.00  0.00     0.033 H 
BRANCH  46  49
ATOM     49  C17 STE d          -1.267   5.168  21.274  0.00  0.00    -0.069 C 
ATOM     50  H31 STE d          -0.865   4.325  21.854  0.00  0.00     0.032 H 
ATOM     51  H32 STE d          -1.336   6.058  21.917  0.00  0.00     0.032 H 
BRANCH  49  52
ATOM     52  C18 STE d          -0.319   5.469  20.133  0.00  0.00    -0.077 C 
ATOM     53  H33 STE d           0.604   5.915  20.531  0.00  0.00     0.027 H 
ATOM     54  H34 STE d          -0.795   6.174  19.436  0.00  0.00     0.027 H 
ATOM     55  H35 STE d          -0.076   4.536  19.603  0.00  0.00     0.027 H 
ENDBRANCH  49  52
ENDBRANCH  46  49
ENDBRANCH  43  46
ENDBRANCH  40  43
ENDBRANCH  37  40
ENDBRANCH  34  37
ENDBRANCH  31  34
ENDBRANCH   1  31
TORSDOF 17
ENDMDL
MODEL 9
REMARK VINA RESULT:      -5.7      2.313      4.912
REMARK  17 active torsions:
REMARK  status: ('A' for Active; 'I' for Inactive)
REMARK    1  A    between atoms: C1_1  and  C2_4 
REMARK    2  A    between atoms: C2_4  and  C3_5 
REMARK    3  A    between atoms: C3_5  and  C4_6 
REMARK    4  A    between atoms: C4_6  and  C5_7 
REMARK    5  A    between atoms: C5_7  and  C6_8 
REMARK    6  A    between atoms: C6_8  and  C7_9 
REMARK    7  A    between atoms: C7_9  and  C8_10 
REMARK    8  A    between atoms: C8_10  and  C9_11 
REMARK    9  A    between atoms: C9_11  and  C10_12 
REMARK   10  A    between atoms: C10_12  and  C11_13 
REMARK   11  A    between atoms: C11_13  and  C12_14 
REMARK   12  A    between atoms: C12_14  and  C13_15 
REMARK   13  A    between atoms: C13_15  and  C14_16 
REMARK   14  A    between atoms: C14_16  and  C15_17 
REMARK   15  A    between atoms: C15_17  and  C16_18 
REMARK   16  A    between atoms: C16_18  and  C17_19 
REMARK   17  A    between atoms: C17_19  and  C18_20 
ROOT
ATOM      1  C10 STE d          -1.625   9.599  19.890  0.00  0.00    -0.065 C 
ATOM      2  H17 STE d          -1.058  10.210  20.609  0.00  0.00     0.033 H 
ATOM      3  H18 STE d          -2.696   9.638  20.141  0.00  0.00     0.033 H 
ENDROOT
BRANCH   1   4
ATOM      4  C9  STE d          -1.129   8.160  19.915  0.00  0.00    -0.065 C 
ATOM      5  H15 STE d          -0.735   7.890  18.923  0.00  0.00     0.033 H 
ATOM      6  H16 STE d          -0.332   8.057  20.666  0.00  0.00     0.033 H 
BRANCH   4   7
ATOM      7  C8  STE d          -2.286   7.241  20.270  0.00  0.00    -0.065 C 
ATOM      8  H13 STE d          -2.691   6.782  19.357  0.00  0.00     0.033 H 
ATOM      9  H14 STE d          -1.938   6.453  20.955  0.00  0.00     0.033 H 
BRANCH   7  10
ATOM     10  C7  STE d          -3.356   8.066  20.943  0.00  0.00    -0.065 C 
ATOM     11  H11 STE d          -3.303   7.903  22.030  0.00  0.00     0.033 H 
ATOM     12  H12 STE d          -3.180   9.129  20.723  0.00  0.00     0.033 H 
BRANCH  10  13
ATOM     13  C6  STE d          -4.745   7.680  20.452  0.00  0.00    -0.065 C 
ATOM     14  H9  STE d          -5.016   6.696  20.863  0.00  0.00     0.033 H 
ATOM     15  H10 STE d          -5.472   8.433  20.792  0.00  0.00     0.033 H 
BRANCH  13  16
ATOM     16  C5  STE d          -4.767   7.612  18.929  0.00  0.00    -0.065 C 
ATOM     17  H7  STE d          -4.719   8.634  18.528  0.00  0.00     0.033 H 
ATOM     18  H8  STE d          -3.888   7.043  18.588  0.00  0.00     0.033 H 
BRANCH  16  19
ATOM     19  C4  STE d          -6.022   6.937  18.402  0.00  0.00    -0.065 C 
ATOM     20  H5  STE d          -6.828   7.060  19.140  0.00  0.00     0.033 H 
ATOM     21  H6  STE d          -6.314   7.417  17.456  0.00  0.00     0.033 H 
BRANCH  19  22
ATOM     22  C3  STE d          -5.803   5.447  18.152  0.00  0.00    -0.056 C 
ATOM     23  H3  STE d          -6.129   4.885  19.039  0.00  0.00     0.033 H 
ATOM     24  H4  STE d          -6.402   5.139  17.282  0.00  0.00     0.033 H 
BRANCH  22  25
ATOM     25  C2  STE d          -4.334   5.134  17.878  0.00  0.00     0.016 C 
ATOM     26  H1  STE d          -4.199   4.904  16.811  0.00  0.00     0.049 H 
ATOM     27  H2  STE d          -3.716   6.004  18.146  0.00  0.00     0.049 H 
BRANCH  25  28
ATOM     28  C1  STE d          -3.922   3.947  18.707  0.00  0.00     0.172 C 
ATOM     29  O1  STE d          -3.783   2.843  18.126  0.00  0.00    -0.648 OA
ATOM     30  O2  STE d          -3.762   4.100  19.938  0.00  0.00    -0.648 OA
ENDBRANCH  25  28
ENDBRANCH  22  25
ENDBRANCH  19  22
ENDBRANCH  16  19
ENDBRANCH  13  16
ENDBRANCH  10  13
ENDBRANCH   7  10
ENDBRANCH   4   7
ENDBRANCH   1   4
BRANCH   1  31
ATOM     31  C11 STE d          -1.398  10.103  18.479  0.00  0.00    -0.065 C 
ATOM     32  H19 STE d          -1.188   9.256  17.811  0.00  0.00     0.033 H 
ATOM     33  H20 STE d          -0.548  10.801  18.466  0.00  0.00     0.033 H 
BRANCH  31  34
ATOM     34  C12 STE d          -2.651  10.816  18.023  0.00  0.00    -0.065 C 
ATOM     35  H21 STE d          -3.486  10.102  17.969  0.00  0.00     0.033 H 
ATOM     36  H22 STE d          -2.485  11.262  17.032  0.00  0.00     0.033 H 
BRANCH  34  37
ATOM     37  C13 STE d          -2.968  11.893  19.019  0.00  0.00    -0.065 C 
ATOM     38  H23 STE d          -2.028  12.346  19.369  0.00  0.00     0.033 H 
ATOM     39  H24 STE d          -3.500  11.447  19.872  0.00  0.00     0.033 H 
BRANCH  37  40
ATOM     40  C14 STE d          -3.838  12.975  18.404  0.00  0.00    -0.065 C 
ATOM     41  H25 STE d          -4.730  13.116  19.032  0.00  0.00     0.033 H 
ATOM     42  H26 STE d          -4.145  12.658  17.396  0.00  0.00     0.033 H 
BRANCH  40  43
ATOM     43  C15 STE d          -3.089  14.303  18.300  0.00  0.00    -0.065 C 
ATOM     44  H27 STE d          -2.358  14.258  17.479  0.00  0.00     0.033 H 
ATOM     45  H28 STE d          -2.567  14.515  19.244  0.00  0.00     0.033 H 
BRANCH  43  46
ATOM     46  C16 STE d          -4.114  15.383  18.022  0.00  0.00    -0.065 C 
ATOM     47  H29 STE d          -4.898  15.331  18.793  0.00  0.00     0.033 H 
ATOM     48  H30 STE d          -4.560  15.198  17.033  0.00  0.00     0.033 H 
BRANCH  46  49
ATOM     49  C17 STE d          -3.519  16.767  18.031  0.00  0.00    -0.069 C 
ATOM     50  H31 STE d          -2.568  16.745  17.479  0.00  0.00     0.032 H 
ATOM     51  H32 STE d          -3.332  17.064  19.073  0.00  0.00     0.032 H 
BRANCH  49  52
ATOM     52  C18 STE d          -4.427  17.795  17.391  0.00  0.00    -0.077 C 
ATOM     53  H33 STE d          -4.000  18.112  16.428  0.00  0.00     0.027 H 
ATOM     54  H34 STE d          -4.520  18.667  18.055  0.00  0.00     0.027 H 
ATOM     55  H35 STE d          -5.421  17.353  17.223  0.00  0.00     0.027 H 
ENDBRANCH  49  52
ENDBRANCH  46  49
ENDBRANCH  43  46
ENDBRANCH  40  43
ENDBRANCH  37  40
ENDBRANCH  34  37
ENDBRANCH  31  34
ENDBRANCH   1  31
TORSDOF 17
ENDMDL
MODEL 10
REMARK VINA RESULT:      -5.6      1.909      4.667
REMARK  17 active torsions:
REMARK  status: ('A' for Active; 'I' for Inactive)
REMARK    1  A    between atoms: C1_1  and  C2_4 
REMARK    2  A    between atoms: C2_4  and  C3_5 
REMARK    3  A    between atoms: C3_5  and  C4_6 
REMARK    4  A    between atoms: C4_6  and  C5_7 
REMARK    5  A    between atoms: C5_7  and  C6_8 
REMARK    6  A    between atoms: C6_8  and  C7_9 
REMARK    7  A    between atoms: C7_9  and  C8_10 
REMARK    8  A    between atoms: C8_10  and  C9_11 
REMARK    9  A    between atoms: C9_11  and  C10_12 
REMARK   10  A    between atoms: C10_12  and  C11_13 
REMARK   11  A    between atoms: C11_13  and  C12_14 
REMARK   12  A    between atoms: C12_14  and  C13_15 
REMARK   13  A    between atoms: C13_15  and  C14_16 
REMARK   14  A    between atoms: C14_16  and  C15_17 
REMARK   15  A    between atoms: C15_17  and  C16_18 
REMARK   16  A    between atoms: C16_18  and  C17_19 
REMARK   17  A    between atoms: C17_19  and  C18_20 
ROOT
ATOM      1  C10 STE d          -1.438  10.013  19.867  0.00  0.00    -0.065 C 
ATOM      2  H17 STE d          -0.445  10.313  20.235  0.00  0.00     0.033 H 
ATOM      3  H18 STE d          -2.216  10.465  20.501  0.00  0.00     0.033 H 
ENDROOT
BRANCH   1   4
ATOM      4  C9  STE d          -1.568   8.496  19.875  0.00  0.00    -0.065 C 
ATOM      5  H15 STE d          -1.599   8.124  18.840  0.00  0.00     0.033 H 
ATOM      6  H16 STE d          -0.706   8.055  20.398  0.00  0.00     0.033 H 
BRANCH   4   7
ATOM      7  C8  STE d          -2.850   8.111  20.594  0.00  0.00    -0.065 C 
ATOM      8  H13 STE d          -2.796   7.059  20.911  0.00  0.00     0.033 H 
ATOM      9  H14 STE d          -2.990   8.753  21.476  0.00  0.00     0.033 H 
BRANCH   7  10
ATOM     10  C7  STE d          -4.003   8.297  19.639  0.00  0.00    -0.065 C 
ATOM     11  H11 STE d          -4.736   8.981  20.091  0.00  0.00     0.033 H 
ATOM     12  H12 STE d          -3.625   8.733  18.702  0.00  0.00     0.033 H 
BRANCH  10  13
ATOM     13  C6  STE d          -4.686   6.972  19.328  0.00  0.00    -0.065 C 
ATOM     14  H9  STE d          -4.516   6.272  20.159  0.00  0.00     0.033 H 
ATOM     15  H10 STE d          -5.767   7.140  19.206  0.00  0.00     0.033 H 
BRANCH  13  16
ATOM     16  C5  STE d          -4.122   6.374  18.044  0.00  0.00    -0.065 C 
ATOM     17  H7  STE d          -4.871   6.479  17.245  0.00  0.00     0.033 H 
ATOM     18  H8  STE d          -3.211   6.926  17.767  0.00  0.00     0.033 H 
BRANCH  16  19
ATOM     19  C4  STE d          -3.774   4.903  18.199  0.00  0.00    -0.065 C 
ATOM     20  H5  STE d          -4.551   4.300  17.705  0.00  0.00     0.033 H 
ATOM     21  H6  STE d          -2.803   4.713  17.719  0.00  0.00     0.033 H 
BRANCH  19  22
ATOM     22  C3  STE d          -3.688   4.493  19.667  0.00  0.00    -0.056 C 
ATOM     23  H3  STE d          -3.737   5.396  20.293  0.00  0.00     0.033 H 
ATOM     24  H4  STE d          -4.538   3.835  19.904  0.00  0.00     0.033 H 
BRANCH  22  25
ATOM     25  C2  STE d          -2.388   3.751  19.967  0.00  0.00     0.016 C 
ATOM     26  H1  STE d          -2.586   2.936  20.678  0.00  0.00     0.049 H 
ATOM     27  H2  STE d          -1.979   3.334  19.035  0.00  0.00     0.049 H 
BRANCH  25  28
ATOM     28  C1  STE d          -1.400   4.716  20.566  0.00  0.00     0.172 C 
ATOM     29  O1  STE d          -0.478   5.147  19.831  0.00  0.00    -0.648 OA
ATOM     30  O2  STE d          -1.519   5.027  21.771  0.00  0.00    -0.648 OA
ENDBRANCH  25  28
ENDBRANCH  22  25
ENDBRANCH  19  22
ENDBRANCH  16  19
ENDBRANCH  13  16
ENDBRANCH  10  13
ENDBRANCH   7  10
ENDBRANCH   4   7
ENDBRANCH   1   4
BRANCH   1  31
ATOM     31  C11 STE d          -1.617  10.447  18.427  0.00  0.00    -0.065 C 
ATOM     32  H19 STE d          -2.037   9.619  17.838  0.00  0.00     0.033 H 
ATOM     33  H20 STE d          -0.645  10.743  18.003  0.00  0.00     0.033 H 
BRANCH  31  34
ATOM     34  C12 STE d          -2.564  11.625  18.401  0.00  0.00    -0.065 C 
ATOM     35  H21 STE d          -3.551  11.317  18.777  0.00  0.00     0.033 H 
ATOM     36  H22 STE d          -2.665  11.999  17.372  0.00  0.00     0.033 H 
BRANCH  34  37
ATOM     37  C13 STE d          -1.999  12.702  19.280  0.00  0.00    -0.065 C 
ATOM     38  H23 STE d          -0.901  12.647  19.253  0.00  0.00     0.033 H 
ATOM     39  H24 STE d          -2.350  12.544  20.310  0.00  0.00     0.033 H 
BRANCH  37  40
ATOM     40  C14 STE d          -2.436  14.080  18.815  0.00  0.00    -0.065 C 
ATOM     41  H25 STE d          -1.653  14.505  18.170  0.00  0.00     0.033 H 
ATOM     42  H26 STE d          -2.576  14.727  19.695  0.00  0.00     0.033 H 
BRANCH  40  43
ATOM     43  C15 STE d          -3.746  14.017  18.031  0.00  0.00    -0.065 C 
ATOM     44  H27 STE d          -4.552  13.637  18.676  0.00  0.00     0.033 H 
ATOM     45  H28 STE d          -3.631  13.355  17.161  0.00  0.00     0.033 H 
BRANCH  43  46
ATOM     46  C16 STE d          -4.070  15.424  17.573  0.00  0.00    -0.065 C 
ATOM     47  H29 STE d          -5.143  15.608  17.733  0.00  0.00     0.033 H 
ATOM     48  H30 STE d          -3.840  15.506  16.500  0.00  0.00     0.033 H 
BRANCH  46  49
ATOM     49  C17 STE d          -3.285  16.474  18.316  0.00  0.00    -0.069 C 
ATOM     50  H31 STE d          -2.228  16.398  18.020  0.00  0.00     0.032 H 
ATOM     51  H32 STE d          -3.378  16.286  19.395  0.00  0.00     0.032 H 
BRANCH  49  52
ATOM     52  C18 STE d          -3.770  17.878  18.025  0.00  0.00    -0.077 C 
ATOM     53  H33 STE d          -3.459  18.170  17.011  0.00  0.00     0.027 H 
ATOM     54  H34 STE d          -3.336  18.575  18.756  0.00  0.00     0.027 H 
ATOM     55  H35 STE d          -4.867  17.909  18.094  0.00  0.00     0.027 H 
ENDBRANCH  49  52
ENDBRANCH  46  49
ENDBRANCH  43  46
ENDBRANCH  40  43
ENDBRANCH  37  40
ENDBRANCH  34  37
ENDBRANCH  31  34
ENDBRANCH   1  31
TORSDOF 17
ENDMDL
