MODEL 1
REMARK VINA RESULT:     -11.5      0.000      0.000
REMARK  11 active torsions:
REMARK  status: ('A' for Active; 'I' for Inactive)
REMARK       I    between atoms: N1_3  and  C20_36 
REMARK    1  A    between atoms: C28_44  and  N1_3 
REMARK    2  A    between atoms: O1_4  and  C9_24 
REMARK    3  A    between atoms: C20_36  and  O1_4 
REMARK    4  A    between atoms: N3_10  and  S1_5 
REMARK    5  A    between atoms: S1_5  and  C23_39 
REMARK    6  A    between atoms: C2_6  and  C4_12 
REMARK       I    between atoms: C4_12  and  N3_10 
REMARK       I    between atoms: C35_51  and  N4_13 
REMARK    7  A    between atoms: C9_24  and  C6_18 
REMARK    8  A    between atoms: C9_24  and  C7_20 
REMARK    9  A    between atoms: C9_24  and  C8_22 
REMARK   10  A    between atoms: C30_46  and  O8_23 
REMARK   11  A    between atoms: O8_23  and  C35_51 
ROOT
ATOM      1  C1  TSV d         -12.664  -6.231  17.131  0.00  0.00    -0.023 A 
ATOM      2  C2  TSV d         -12.246  -6.598  15.709  0.00  0.00     0.122 A 
ATOM      3  N2  TSV d         -12.545  -7.947  15.298  0.00  0.00    -0.341 N 
ATOM      4  C3  TSV d         -13.520  -5.767  15.969  0.00  0.00    -0.002 A 
ATOM      5  O3  TSV d         -15.666  -8.226  15.034  0.00  0.00    -0.271 OA
ATOM      6  C5  TSV d         -13.537  -4.294  15.672  0.00  0.00    -0.100 C 
ATOM      7  N5  TSV d         -14.989  -9.544  13.378  0.00  0.00    -0.334 N 
ATOM      8  O7  TSV d         -13.184  -7.327  13.227  0.00  0.00    -0.271 OA
ATOM      9  C10 TSV d         -14.421  -3.730  14.831  0.00  0.00    -0.106 C 
ATOM     10  C11 TSV d         -13.064  -8.193  14.102  0.00  0.00     0.241 C 
ATOM     11  C13 TSV d         -15.502  -4.490  14.089  0.00  0.00    -0.050 C 
ATOM     12  C15 TSV d         -13.605  -9.574  13.886  0.00  0.00     0.094 C 
ATOM     13  C18 TSV d         -15.332  -4.408  12.582  0.00  0.00    -0.062 C 
ATOM     14  C19 TSV d         -16.464  -5.134  11.833  0.00  0.00    -0.065 C 
ATOM     15  C22 TSV d         -16.416  -6.658  11.983  0.00  0.00    -0.063 C 
ATOM     16  C25 TSV d         -17.470  -7.164  12.971  0.00  0.00    -0.038 C 
ATOM     17  C27 TSV d         -12.866 -10.302  12.781  0.00  0.00    -0.011 C 
ATOM     18  C28 TSV d         -17.262  -8.626  13.337  0.00  0.00     0.091 C 
ATOM     19  C30 TSV d         -13.892 -11.219  12.182  0.00  0.00     0.067 C 
ATOM     20  C33 TSV d         -15.905  -8.794  13.984  0.00  0.00     0.243 C 
ATOM     21  C34 TSV d         -15.160 -10.409  12.190  0.00  0.00     0.023 C 
ATOM     22  H1  TSV d         -12.075  -5.499  17.703  0.00  0.00     0.038 H 
ATOM     23  H2  TSV d         -13.039  -7.011  17.810  0.00  0.00     0.038 H 
ATOM     24  H4  TSV d         -12.360  -8.707  15.921  0.00  0.00     0.163 HD
ATOM     25  H5  TSV d         -14.512  -6.203  15.783  0.00  0.00     0.050 H 
ATOM     26  H7  TSV d         -12.801  -3.656  16.160  0.00  0.00     0.077 H 
ATOM     27  H17 TSV d         -14.355  -2.655  14.671  0.00  0.00     0.076 H 
ATOM     28  H19 TSV d         -16.481  -4.067  14.359  0.00  0.00     0.038 H 
ATOM     29  H20 TSV d         -15.464  -5.547  14.393  0.00  0.00     0.038 H 
ATOM     30  H22 TSV d         -13.547 -10.134  14.831  0.00  0.00     0.088 H 
ATOM     31  H25 TSV d         -14.372  -4.869  12.307  0.00  0.00     0.033 H 
ATOM     32  H26 TSV d         -15.329  -3.350  12.283  0.00  0.00     0.033 H 
ATOM     33  H27 TSV d         -16.389  -4.887  10.764  0.00  0.00     0.033 H 
ATOM     34  H28 TSV d         -17.427  -4.776  12.225  0.00  0.00     0.033 H 
ATOM     35  H29 TSV d         -15.419  -6.949  12.345  0.00  0.00     0.033 H 
ATOM     36  H30 TSV d         -16.599  -7.119  11.001  0.00  0.00     0.033 H 
ATOM     37  H32 TSV d         -18.465  -7.052  12.516  0.00  0.00     0.036 H 
ATOM     38  H33 TSV d         -17.415  -6.558  13.887  0.00  0.00     0.036 H 
ATOM     39  H34 TSV d         -12.023 -10.878  13.191  0.00  0.00     0.040 H 
ATOM     40  H35 TSV d         -12.494  -9.592  12.028  0.00  0.00     0.040 H 
ATOM     41  H36 TSV d         -17.314  -9.244  12.428  0.00  0.00     0.087 H 
ATOM     42  H39 TSV d         -13.608 -11.552  11.173  0.00  0.00     0.086 H 
ATOM     43  H43 TSV d         -15.252  -9.809  11.273  0.00  0.00     0.068 H 
ATOM     44  H44 TSV d         -16.043 -11.057  12.295  0.00  0.00     0.068 H 
ENDROOT
BRANCH  18  45
ATOM     45  N1  TSV d         -18.286  -9.040  14.258  0.00  0.00    -0.324 N 
ATOM     46  C20 TSV d         -19.149 -10.005  13.970  0.00  0.00     0.362 C 
ATOM     47  O2  TSV d         -19.206 -10.618  12.902  0.00  0.00    -0.238 OA
ATOM     48  H3  TSV d         -18.351  -8.584  15.145  0.00  0.00     0.165 HD
BRANCH  46  49
ATOM     49  O1  TSV d         -20.049 -10.314  15.051  0.00  0.00    -0.294 OA
BRANCH  49  50
ATOM     50  C9  TSV d         -19.898 -11.419  15.946  0.00  0.00     0.061 C 
BRANCH  50  51
ATOM     51  C6  TSV d         -18.577 -12.131  15.688  0.00  0.00    -0.048 C 
ATOM     52  H8  TSV d         -17.755 -11.401  15.717  0.00  0.00     0.031 H 
ATOM     53  H9  TSV d         -18.606 -12.610  14.697  0.00  0.00     0.031 H 
ATOM     54  H10 TSV d         -18.416 -12.897  16.461  0.00  0.00     0.031 H 
ENDBRANCH  50  51
BRANCH  50  55
ATOM     55  C7  TSV d         -19.934 -10.832  17.355  0.00  0.00    -0.048 C 
ATOM     56  H11 TSV d         -20.263  -9.783  17.306  0.00  0.00     0.031 H 
ATOM     57  H12 TSV d         -18.929 -10.881  17.798  0.00  0.00     0.031 H 
ATOM     58  H13 TSV d         -20.637 -11.408  17.975  0.00  0.00     0.031 H 
ENDBRANCH  50  55
BRANCH  50  59
ATOM     59  C8  TSV d         -21.063 -12.383  15.739  0.00  0.00    -0.048 C 
ATOM     60  H14 TSV d         -21.417 -12.745  16.714  0.00  0.00     0.031 H 
ATOM     61  H15 TSV d         -20.729 -13.236  15.130  0.00  0.00     0.031 H 
ATOM     62  H16 TSV d         -21.882 -11.862  15.221  0.00  0.00     0.031 H 
ENDBRANCH  50  59
ENDBRANCH  49  50
ENDBRANCH  46  49
ENDBRANCH  18  45
BRANCH  19  63
ATOM     63  O8  TSV d         -14.116 -12.318  13.050  0.00  0.00    -0.296 OA
BRANCH  63  64
ATOM     64  C35 TSV d         -13.239 -13.436  12.878  0.00  0.00     0.371 C 
ATOM     65  N4  TSV d         -13.211 -14.237  13.895  0.00  0.00    -0.278 N 
ATOM     66  C12 TSV d         -12.514 -15.532  13.865  0.00  0.00     0.000 A 
ATOM     67  C31 TSV d         -13.895 -13.969  15.161  0.00  0.00     0.003 A 
ATOM     68  C24 TSV d         -12.855 -16.086  15.196  0.00  0.00    -0.005 A 
ATOM     69  H18 TSV d         -11.907 -15.969  13.073  0.00  0.00     0.113 H 
ATOM     70  C16 TSV d         -12.478 -17.328  15.699  0.00  0.00    -0.071 A 
ATOM     71  C26 TSV d         -13.623 -15.235  15.922  0.00  0.00     0.030 A 
ATOM     72  C14 TSV d         -12.906 -17.663  16.967  0.00  0.00    -0.079 A 
ATOM     73  H23 TSV d         -11.869 -18.008  15.115  0.00  0.00     0.084 H 
ATOM     74  C17 TSV d         -13.698 -16.789  17.716  0.00  0.00    -0.045 A 
ATOM     75  H21 TSV d         -12.624 -18.620  17.389  0.00  0.00     0.083 H 
ATOM     76  C21 TSV d         -14.058 -15.544  17.181  0.00  0.00     0.128 A 
ATOM     77  H24 TSV d         -14.033 -17.072  18.708  0.00  0.00     0.088 H 
ATOM     78  F1  TSV d         -14.812 -14.670  17.880  0.00  0.00    -0.205 F 
ATOM     79  H40 TSV d         -14.452 -13.086  15.469  0.00  0.00     0.114 H 
ATOM     80  O5  TSV d         -12.587 -13.591  11.851  0.00  0.00    -0.238 OA
ENDBRANCH  63  64
ENDBRANCH  19  63
BRANCH   2  81
ATOM     81  C4  TSV d         -10.988  -5.950  15.225  0.00  0.00     0.260 C 
ATOM     82  N3  TSV d         -10.323  -6.581  14.262  0.00  0.00    -0.252 N 
ATOM     83  H6  TSV d         -10.635  -7.467  13.918  0.00  0.00     0.181 HD
ATOM     84  O9  TSV d         -10.620  -4.899  15.696  0.00  0.00    -0.270 OA
BRANCH  82  85
ATOM     85  S1  TSV d          -9.027  -5.896  13.674  0.00  0.00     0.237 S 
ATOM     86  O4  TSV d          -8.146  -5.454  14.716  0.00  0.00    -0.205 OA
ATOM     87  O6  TSV d          -9.406  -4.829  12.767  0.00  0.00    -0.205 OA
BRANCH  85  88
ATOM     88  C23 TSV d          -8.303  -7.076  12.742  0.00  0.00     0.063 A 
ATOM     89  C29 TSV d          -6.915  -6.752  12.201  0.00  0.00    -0.046 A 
ATOM     90  C32 TSV d          -7.062  -7.768  13.312  0.00  0.00    -0.046 A 
ATOM     91  H37 TSV d          -6.460  -5.773  12.410  0.00  0.00     0.035 H 
ATOM     92  H38 TSV d          -6.629  -7.080  11.191  0.00  0.00     0.035 H 
ATOM     93  H41 TSV d          -6.884  -8.834  13.109  0.00  0.00     0.035 H 
ATOM     94  H42 TSV d          -6.715  -7.525  14.328  0.00  0.00     0.035 H 
ATOM     95  H31 TSV d          -9.045  -7.628  12.146  0.00  0.00     0.066 H 
ENDBRANCH  85  88
ENDBRANCH  82  85
ENDBRANCH   2  81
TORSDOF 11
ENDMDL
MODEL 2
REMARK VINA RESULT:     -10.4      2.169      2.642
REMARK  11 active torsions:
REMARK  status: ('A' for Active; 'I' for Inactive)
REMARK       I    between atoms: N1_3  and  C20_36 
REMARK    1  A    between atoms: C28_44  and  N1_3 
REMARK    2  A    between atoms: O1_4  and  C9_24 
REMARK    3  A    between atoms: C20_36  and  O1_4 
REMARK    4  A    between atoms: N3_10  and  S1_5 
REMARK    5  A    between atoms: S1_5  and  C23_39 
REMARK    6  A    between atoms: C2_6  and  C4_12 
REMARK       I    between atoms: C4_12  and  N3_10 
REMARK       I    between atoms: C35_51  and  N4_13 
REMARK    7  A    between atoms: C9_24  and  C6_18 
REMARK    8  A    between atoms: C9_24  and  C7_20 
REMARK    9  A    between atoms: C9_24  and  C8_22 
REMARK   10  A    between atoms: C30_46  and  O8_23 
REMARK   11  A    between atoms: O8_23  and  C35_51 
ROOT
ATOM      1  C1  TSV d         -12.597  -6.325  17.133  0.00  0.00    -0.023 A 
ATOM      2  C2  TSV d         -12.214  -6.630  15.686  0.00  0.00     0.122 A 
ATOM      3  N2  TSV d         -12.537  -7.955  15.220  0.00  0.00    -0.341 N 
ATOM      4  C3  TSV d         -13.473  -5.799  16.013  0.00  0.00    -0.002 A 
ATOM      5  O3  TSV d         -15.666  -8.189  15.013  0.00  0.00    -0.271 OA
ATOM      6  C5  TSV d         -13.479  -4.314  15.786  0.00  0.00    -0.100 C 
ATOM      7  N5  TSV d         -15.040  -9.435  13.283  0.00  0.00    -0.334 N 
ATOM      8  O7  TSV d         -13.215  -7.232  13.195  0.00  0.00    -0.271 OA
ATOM      9  C10 TSV d         -14.375  -3.702  14.992  0.00  0.00    -0.106 C 
ATOM     10  C11 TSV d         -13.085  -8.139  14.026  0.00  0.00     0.241 C 
ATOM     11  C13 TSV d         -15.481  -4.416  14.241  0.00  0.00    -0.050 C 
ATOM     12  C15 TSV d         -13.647  -9.503  13.757  0.00  0.00     0.094 C 
ATOM     13  C18 TSV d         -15.343  -4.264  12.735  0.00  0.00    -0.062 C 
ATOM     14  C19 TSV d         -16.500  -4.943  11.978  0.00  0.00    -0.065 C 
ATOM     15  C22 TSV d         -16.466  -6.473  12.056  0.00  0.00    -0.063 C 
ATOM     16  C25 TSV d         -17.503  -7.014  13.043  0.00  0.00    -0.038 C 
ATOM     17  C27 TSV d         -12.940 -10.186  12.604  0.00  0.00    -0.011 C 
ATOM     18  C28 TSV d         -17.303  -8.493  13.336  0.00  0.00     0.091 C 
ATOM     19  C30 TSV d         -13.989 -11.063  11.985  0.00  0.00     0.067 C 
ATOM     20  C33 TSV d         -15.935  -8.705  13.944  0.00  0.00     0.243 C 
ATOM     21  C34 TSV d         -15.247 -10.242  12.060  0.00  0.00     0.023 C 
ATOM     22  H1  TSV d         -11.987  -5.628  17.725  0.00  0.00     0.038 H 
ATOM     23  H2  TSV d         -12.965  -7.133  17.783  0.00  0.00     0.038 H 
ATOM     24  H4  TSV d         -12.347  -8.745  15.802  0.00  0.00     0.163 HD
ATOM     25  H5  TSV d         -14.474  -6.216  15.830  0.00  0.00     0.050 H 
ATOM     26  H7  TSV d         -12.726  -3.706  16.287  0.00  0.00     0.077 H 
ATOM     27  H17 TSV d         -14.301  -2.621  14.881  0.00  0.00     0.076 H 
ATOM     28  H19 TSV d         -16.449  -3.995  14.552  0.00  0.00     0.038 H 
ATOM     29  H20 TSV d         -15.448  -5.486  14.493  0.00  0.00     0.038 H 
ATOM     30  H22 TSV d         -13.574 -10.108  14.674  0.00  0.00     0.088 H 
ATOM     31  H25 TSV d         -14.394  -4.721  12.418  0.00  0.00     0.033 H 
ATOM     32  H26 TSV d         -15.335  -3.193  12.486  0.00  0.00     0.033 H 
ATOM     33  H27 TSV d         -16.446  -4.646  10.921  0.00  0.00     0.033 H 
ATOM     34  H28 TSV d         -17.450  -4.594  12.409  0.00  0.00     0.033 H 
ATOM     35  H29 TSV d         -15.465  -6.790  12.382  0.00  0.00     0.033 H 
ATOM     36  H30 TSV d         -16.675  -6.885  11.058  0.00  0.00     0.033 H 
ATOM     37  H32 TSV d         -18.506  -6.870  12.616  0.00  0.00     0.036 H 
ATOM     38  H33 TSV d         -17.421  -6.452  13.985  0.00  0.00     0.036 H 
ATOM     39  H34 TSV d         -12.095 -10.789  12.967  0.00  0.00     0.040 H 
ATOM     40  H35 TSV d         -12.576  -9.445  11.877  0.00  0.00     0.040 H 
ATOM     41  H36 TSV d         -17.382  -9.067  12.400  0.00  0.00     0.087 H 
ATOM     42  H39 TSV d         -13.731 -11.351  10.956  0.00  0.00     0.086 H 
ATOM     43  H43 TSV d         -15.353  -9.598  11.174  0.00  0.00     0.068 H 
ATOM     44  H44 TSV d         -16.135 -10.884  12.154  0.00  0.00     0.068 H 
ENDROOT
BRANCH  18  45
ATOM     45  N1  TSV d         -18.312  -8.939  14.259  0.00  0.00    -0.324 N 
ATOM     46  C20 TSV d         -19.041 -10.025  14.041  0.00  0.00     0.362 C 
ATOM     47  O2  TSV d         -18.978 -10.740  13.038  0.00  0.00    -0.238 OA
ATOM     48  H3  TSV d         -18.469  -8.413  15.094  0.00  0.00     0.165 HD
BRANCH  46  49
ATOM     49  O1  TSV d         -19.946 -10.337  15.117  0.00  0.00    -0.294 OA
BRANCH  49  50
ATOM     50  C9  TSV d         -21.367 -10.186  15.056  0.00  0.00     0.061 C 
BRANCH  50  51
ATOM     51  C6  TSV d         -21.996 -11.387  14.362  0.00  0.00    -0.048 C 
ATOM     52  H8  TSV d         -22.169 -12.186  15.098  0.00  0.00     0.031 H 
ATOM     53  H9  TSV d         -21.319 -11.753  13.576  0.00  0.00     0.031 H 
ATOM     54  H10 TSV d         -22.954 -11.089  13.912  0.00  0.00     0.031 H 
ENDBRANCH  50  51
BRANCH  50  55
ATOM     55  C7  TSV d         -21.844 -10.080  16.502  0.00  0.00    -0.048 C 
ATOM     56  H11 TSV d         -22.805 -10.604  16.610  0.00  0.00     0.031 H 
ATOM     57  H12 TSV d         -21.971  -9.021  16.770  0.00  0.00     0.031 H 
ATOM     58  H13 TSV d         -21.099 -10.540  17.169  0.00  0.00     0.031 H 
ENDBRANCH  50  55
BRANCH  50  59
ATOM     59  C8  TSV d         -21.693  -8.907  14.290  0.00  0.00    -0.048 C 
ATOM     60  H14 TSV d         -21.077  -8.082  14.675  0.00  0.00     0.031 H 
ATOM     61  H15 TSV d         -22.756  -8.662  14.422  0.00  0.00     0.031 H 
ATOM     62  H16 TSV d         -21.481  -9.056  13.221  0.00  0.00     0.031 H 
ENDBRANCH  50  59
ENDBRANCH  49  50
ENDBRANCH  46  49
ENDBRANCH  18  45
BRANCH  19  63
ATOM     63  O8  TSV d         -14.206 -12.200  12.806  0.00  0.00    -0.296 OA
BRANCH  63  64
ATOM     64  C35 TSV d         -14.923 -13.279  12.199  0.00  0.00     0.371 C 
ATOM     65  N4  TSV d         -15.998 -13.615  12.838  0.00  0.00    -0.278 N 
ATOM     66  C12 TSV d         -16.971 -14.578  12.301  0.00  0.00     0.000 A 
ATOM     67  C31 TSV d         -16.384 -13.052  14.133  0.00  0.00     0.003 A 
ATOM     68  C24 TSV d         -18.030 -14.541  13.336  0.00  0.00    -0.005 A 
ATOM     69  H18 TSV d         -16.925 -15.164  11.385  0.00  0.00     0.113 H 
ATOM     70  C16 TSV d         -19.229 -15.250  13.323  0.00  0.00    -0.071 A 
ATOM     71  C26 TSV d         -17.723 -13.696  14.353  0.00  0.00     0.030 A 
ATOM     72  C14 TSV d         -20.092 -15.071  14.384  0.00  0.00    -0.079 A 
ATOM     73  H23 TSV d         -19.475 -15.920  12.507  0.00  0.00     0.084 H 
ATOM     74  C17 TSV d         -19.777 -14.201  15.431  0.00  0.00    -0.045 A 
ATOM     75  H21 TSV d         -21.029 -15.614  14.406  0.00  0.00     0.083 H 
ATOM     76  C21 TSV d         -18.561 -13.503  15.415  0.00  0.00     0.128 A 
ATOM     77  H24 TSV d         -20.471 -14.066  16.253  0.00  0.00     0.088 H 
ATOM     78  F1  TSV d         -18.219 -12.665  16.415  0.00  0.00    -0.205 F 
ATOM     79  H40 TSV d         -15.844 -12.351  14.767  0.00  0.00     0.114 H 
ATOM     80  O5  TSV d         -14.528 -13.815  11.169  0.00  0.00    -0.238 OA
ENDBRANCH  63  64
ENDBRANCH  19  63
BRANCH   2  81
ATOM     81  C4  TSV d         -10.959  -5.972  15.205  0.00  0.00     0.260 C 
ATOM     82  N3  TSV d         -10.283  -6.604  14.250  0.00  0.00    -0.252 N 
ATOM     83  H6  TSV d         -10.584  -7.495  13.911  0.00  0.00     0.181 HD
ATOM     84  O9  TSV d         -10.605  -4.915  15.671  0.00  0.00    -0.270 OA
BRANCH  82  85
ATOM     85  S1  TSV d          -8.990  -5.910  13.665  0.00  0.00     0.237 S 
ATOM     86  O4  TSV d          -8.113  -5.466  14.709  0.00  0.00    -0.205 OA
ATOM     87  O6  TSV d          -9.375  -4.844  12.760  0.00  0.00    -0.205 OA
BRANCH  85  88
ATOM     88  C23 TSV d          -8.259  -7.084  12.732  0.00  0.00     0.063 A 
ATOM     89  C29 TSV d          -6.860  -6.762  12.216  0.00  0.00    -0.046 A 
ATOM     90  C32 TSV d          -7.031  -7.789  13.313  0.00  0.00    -0.046 A 
ATOM     91  H37 TSV d          -6.403  -5.788  12.443  0.00  0.00     0.035 H 
ATOM     92  H38 TSV d          -6.561  -7.081  11.207  0.00  0.00     0.035 H 
ATOM     93  H41 TSV d          -6.857  -8.854  13.101  0.00  0.00     0.035 H 
ATOM     94  H42 TSV d          -6.699  -7.560  14.337  0.00  0.00     0.035 H 
ATOM     95  H31 TSV d          -8.995  -7.624  12.118  0.00  0.00     0.066 H 
ENDBRANCH  85  88
ENDBRANCH  82  85
ENDBRANCH   2  81
TORSDOF 11
ENDMDL
MODEL 3
REMARK VINA RESULT:      -8.6      1.354      1.696
REMARK  11 active torsions:
REMARK  status: ('A' for Active; 'I' for Inactive)
REMARK       I    between atoms: N1_3  and  C20_36 
REMARK    1  A    between atoms: C28_44  and  N1_3 
REMARK    2  A    between atoms: O1_4  and  C9_24 
REMARK    3  A    between atoms: C20_36  and  O1_4 
REMARK    4  A    between atoms: N3_10  and  S1_5 
REMARK    5  A    between atoms: S1_5  and  C23_39 
REMARK    6  A    between atoms: C2_6  and  C4_12 
REMARK       I    between atoms: C4_12  and  N3_10 
REMARK       I    between atoms: C35_51  and  N4_13 
REMARK    7  A    between atoms: C9_24  and  C6_18 
REMARK    8  A    between atoms: C9_24  and  C7_20 
REMARK    9  A    between atoms: C9_24  and  C8_22 
REMARK   10  A    between atoms: C30_46  and  O8_23 
REMARK   11  A    between atoms: O8_23  and  C35_51 
ROOT
ATOM      1  C1  TSV d         -12.875  -6.138  16.362  0.00  0.00    -0.023 A 
ATOM      2  C2  TSV d         -12.355  -6.785  15.080  0.00  0.00     0.122 A 
ATOM      3  N2  TSV d         -12.653  -8.187  14.922  0.00  0.00    -0.341 N 
ATOM      4  C3  TSV d         -13.626  -5.908  15.065  0.00  0.00    -0.002 A 
ATOM      5  O3  TSV d         -15.750  -8.487  14.464  0.00  0.00    -0.271 OA
ATOM      6  C5  TSV d         -13.584  -4.524  14.482  0.00  0.00    -0.100 C 
ATOM      7  N5  TSV d         -14.977 -10.115  13.163  0.00  0.00    -0.334 N 
ATOM      8  O7  TSV d         -13.113  -7.987  12.724  0.00  0.00    -0.271 OA
ATOM      9  C10 TSV d         -14.385  -4.133  13.477  0.00  0.00    -0.106 C 
ATOM     10  C11 TSV d         -13.083  -8.661  13.760  0.00  0.00     0.241 C 
ATOM     11  C13 TSV d         -15.423  -5.017  12.815  0.00  0.00    -0.050 C 
ATOM     12  C15 TSV d         -13.638 -10.054  13.778  0.00  0.00     0.094 C 
ATOM     13  C18 TSV d         -15.133  -5.239  11.340  0.00  0.00    -0.062 C 
ATOM     14  C19 TSV d         -16.220  -6.091  10.660  0.00  0.00    -0.065 C 
ATOM     15  C22 TSV d         -16.221  -7.554  11.112  0.00  0.00    -0.063 C 
ATOM     16  C25 TSV d         -17.361  -7.845  12.092  0.00  0.00    -0.038 C 
ATOM     17  C27 TSV d         -12.833 -10.994  12.904  0.00  0.00    -0.011 C 
ATOM     18  C28 TSV d         -17.217  -9.206  12.756  0.00  0.00     0.091 C 
ATOM     19  C30 TSV d         -13.830 -12.003  12.416  0.00  0.00     0.067 C 
ATOM     20  C33 TSV d         -15.919  -9.252  13.532  0.00  0.00     0.243 C 
ATOM     21  C34 TSV d         -15.074 -11.198  12.161  0.00  0.00     0.023 C 
ATOM     22  H1  TSV d         -12.315  -5.312  16.824  0.00  0.00     0.038 H 
ATOM     23  H2  TSV d         -13.320  -6.764  17.149  0.00  0.00     0.038 H 
ATOM     24  H4  TSV d         -12.536  -8.808  15.696  0.00  0.00     0.163 HD
ATOM     25  H5  TSV d         -14.610  -6.365  14.890  0.00  0.00     0.050 H 
ATOM     26  H7  TSV d         -12.873  -3.807  14.892  0.00  0.00     0.077 H 
ATOM     27  H17 TSV d         -14.282  -3.112  13.113  0.00  0.00     0.076 H 
ATOM     28  H19 TSV d         -16.409  -4.541  12.914  0.00  0.00     0.038 H 
ATOM     29  H20 TSV d         -15.434  -5.992  13.323  0.00  0.00     0.038 H 
ATOM     30  H22 TSV d         -13.668 -10.415  14.817  0.00  0.00     0.088 H 
ATOM     31  H25 TSV d         -14.165  -5.752  11.242  0.00  0.00     0.033 H 
ATOM     32  H26 TSV d         -15.082  -4.261  10.838  0.00  0.00     0.033 H 
ATOM     33  H27 TSV d         -16.056  -6.062   9.572  0.00  0.00     0.033 H 
ATOM     34  H28 TSV d         -17.202  -5.654  10.893  0.00  0.00     0.033 H 
ATOM     35  H29 TSV d         -15.263  -7.775  11.605  0.00  0.00     0.033 H 
ATOM     36  H30 TSV d         -16.337  -8.200  10.230  0.00  0.00     0.033 H 
ATOM     37  H32 TSV d         -18.313  -7.818  11.543  0.00  0.00     0.036 H 
ATOM     38  H33 TSV d         -17.363  -7.068  12.871  0.00  0.00     0.036 H 
ATOM     39  H34 TSV d         -12.039 -11.482  13.487  0.00  0.00     0.040 H 
ATOM     40  H35 TSV d         -12.385 -10.451  12.059  0.00  0.00     0.040 H 
ATOM     41  H36 TSV d         -17.212  -9.992  11.986  0.00  0.00     0.087 H 
ATOM     42  H39 TSV d         -13.475 -12.533  11.520  0.00  0.00     0.086 H 
ATOM     43  H43 TSV d         -15.080 -10.792  11.139  0.00  0.00     0.068 H 
ATOM     44  H44 TSV d         -15.978 -11.805  12.319  0.00  0.00     0.068 H 
ENDROOT
BRANCH  18  45
ATOM     45  N1  TSV d         -18.320  -9.420  13.654  0.00  0.00    -0.324 N 
ATOM     46  C20 TSV d         -18.910 -10.600  13.782  0.00  0.00     0.362 C 
ATOM     47  O2  TSV d         -18.625 -11.615  13.143  0.00  0.00    -0.238 OA
ATOM     48  H3  TSV d         -18.654  -8.652  14.199  0.00  0.00     0.165 HD
BRANCH  46  49
ATOM     49  O1  TSV d         -19.947 -10.620  14.781  0.00  0.00    -0.294 OA
BRANCH  49  50
ATOM     50  C9  TSV d         -21.344 -10.487  14.507  0.00  0.00     0.061 C 
BRANCH  50  51
ATOM     51  C6  TSV d         -21.555  -9.884  13.124  0.00  0.00    -0.048 C 
ATOM     52  H8  TSV d         -20.584  -9.589  12.700  0.00  0.00     0.031 H 
ATOM     53  H9  TSV d         -22.203  -8.998  13.204  0.00  0.00     0.031 H 
ATOM     54  H10 TSV d         -22.031 -10.628  12.469  0.00  0.00     0.031 H 
ENDBRANCH  50  51
BRANCH  50  55
ATOM     55  C7  TSV d         -21.926 -11.896  14.582  0.00  0.00    -0.048 C 
ATOM     56  H11 TSV d         -21.315 -12.578  13.973  0.00  0.00     0.031 H 
ATOM     57  H12 TSV d         -22.958 -11.887  14.200  0.00  0.00     0.031 H 
ATOM     58  H13 TSV d         -21.925 -12.238  15.628  0.00  0.00     0.031 H 
ENDBRANCH  50  55
BRANCH  50  59
ATOM     59  C8  TSV d         -21.972  -9.591  15.571  0.00  0.00    -0.048 C 
ATOM     60  H14 TSV d         -22.809 -10.120  16.048  0.00  0.00     0.031 H 
ATOM     61  H15 TSV d         -22.341  -8.668  15.102  0.00  0.00     0.031 H 
ATOM     62  H16 TSV d         -21.217  -9.340  16.330  0.00  0.00     0.031 H 
ENDBRANCH  50  59
ENDBRANCH  49  50
ENDBRANCH  46  49
ENDBRANCH  18  45
BRANCH  19  63
ATOM     63  O8  TSV d         -14.147 -12.905  13.464  0.00  0.00    -0.296 OA
BRANCH  63  64
ATOM     64  C35 TSV d         -13.330 -14.078  13.546  0.00  0.00     0.371 C 
ATOM     65  N4  TSV d         -13.470 -14.734  14.653  0.00  0.00    -0.278 N 
ATOM     66  C12 TSV d         -12.859 -16.053  14.874  0.00  0.00     0.000 A 
ATOM     67  C31 TSV d         -14.276 -14.265  15.781  0.00  0.00     0.003 A 
ATOM     68  C24 TSV d         -13.386 -16.405  16.214  0.00  0.00    -0.005 A 
ATOM     69  H18 TSV d         -12.195 -16.622  14.226  0.00  0.00     0.113 H 
ATOM     70  C16 TSV d         -13.149 -17.584  16.915  0.00  0.00    -0.071 A 
ATOM     71  C26 TSV d         -14.176 -15.428  16.726  0.00  0.00     0.030 A 
ATOM     72  C14 TSV d         -13.741 -17.724  18.154  0.00  0.00    -0.079 A 
ATOM     73  H23 TSV d         -12.522 -18.366  16.502  0.00  0.00     0.084 H 
ATOM     74  C17 TSV d         -14.555 -16.719  18.681  0.00  0.00    -0.045 A 
ATOM     75  H21 TSV d         -13.571 -18.628  18.727  0.00  0.00     0.083 H 
ATOM     76  C21 TSV d         -14.771 -15.542  17.951  0.00  0.00     0.128 A 
ATOM     77  H24 TSV d         -15.019 -16.849  19.653  0.00  0.00     0.088 H 
ATOM     78  F1  TSV d         -15.542 -14.547  18.435  0.00  0.00    -0.205 F 
ATOM     79  H40 TSV d         -14.807 -13.322  15.902  0.00  0.00     0.114 H 
ATOM     80  O5  TSV d         -12.576 -14.401  12.634  0.00  0.00    -0.238 OA
ENDBRANCH  63  64
ENDBRANCH  19  63
BRANCH   2  81
ATOM     81  C4  TSV d         -11.048  -6.256  14.582  0.00  0.00     0.260 C 
ATOM     82  N3  TSV d         -10.527  -6.859  13.517  0.00  0.00    -0.252 N 
ATOM     83  H6  TSV d         -10.974  -7.653  13.107  0.00  0.00     0.181 HD
ATOM     84  O9  TSV d         -10.516  -5.320  15.132  0.00  0.00    -0.270 OA
BRANCH  82  85
ATOM     85  S1  TSV d          -9.182  -6.288  12.917  0.00  0.00     0.237 S 
ATOM     86  O4  TSV d          -8.307  -7.340  12.490  0.00  0.00    -0.205 OA
ATOM     87  O6  TSV d          -8.561  -5.392  13.874  0.00  0.00    -0.205 OA
BRANCH  85  88
ATOM     88  C23 TSV d          -9.656  -5.346  11.624  0.00  0.00     0.063 A 
ATOM     89  C29 TSV d         -10.333  -6.077  10.468  0.00  0.00    -0.046 A 
ATOM     90  C32 TSV d         -11.159  -5.189  11.373  0.00  0.00    -0.046 A 
ATOM     91  H37 TSV d         -10.458  -7.169  10.508  0.00  0.00     0.035 H 
ATOM     92  H38 TSV d         -10.132  -5.769   9.431  0.00  0.00     0.035 H 
ATOM     93  H41 TSV d         -11.556  -4.236  10.994  0.00  0.00     0.035 H 
ATOM     94  H42 TSV d         -11.882  -5.637  12.071  0.00  0.00     0.035 H 
ATOM     95  H31 TSV d          -8.956  -4.515  11.455  0.00  0.00     0.066 H 
ENDBRANCH  85  88
ENDBRANCH  82  85
ENDBRANCH   2  81
TORSDOF 11
ENDMDL
