MODEL 1
REMARK VINA RESULT:      -4.2      0.000      0.000
REMARK  13 active torsions:
REMARK  status: ('A' for Active; 'I' for Inactive)
REMARK    1  A    between atoms: N1_1  and  C2_2 
REMARK    2  A    between atoms: C2_2  and  C3_3 
REMARK    3  A    between atoms: C3_3  and  C4_4 
REMARK    4  A    between atoms: C4_4  and  N5_5 
REMARK    5  A    between atoms: N5_5  and  C6_6 
REMARK    6  A    between atoms: C6_6  and  C7_7 
REMARK    7  A    between atoms: C7_7  and  C8_8 
REMARK    8  A    between atoms: C8_8  and  C9_9 
REMARK    9  A    between atoms: C9_9  and  N10_10 
REMARK   10  A    between atoms: N10_10  and  C11_11 
REMARK   11  A    between atoms: C11_11  and  C12_12 
REMARK   12  A    between atoms: C12_12  and  C13_13 
REMARK   13  A    between atoms: C13_13  and  N14_14 
ROOT
ATOM      1  C7  SPM d          -6.087   4.045  14.731  0.00  0.00    -0.041 C 
ATOM      2  H14 SPM d          -6.190   3.603  15.732  0.00  0.00     0.035 H 
ATOM      3  H15 SPM d          -7.058   4.013  14.215  0.00  0.00     0.035 H 
ENDROOT
BRANCH   1   4
ATOM      4  C6  SPM d          -5.027   3.321  13.928  0.00  0.00     0.082 C 
ATOM      5  H12 SPM d          -5.507   2.887  13.038  0.00  0.00     0.075 H 
ATOM      6  H13 SPM d          -4.273   4.058  13.615  0.00  0.00     0.075 H 
BRANCH   4   7
ATOM      7  N5  SPM d          -4.346   2.252  14.639  0.00  0.00    -0.075 N 
ATOM      8  H10 SPM d          -4.656   1.380  14.240  0.00  0.00     0.277 HD
ATOM      9  H11 SPM d          -3.358   2.364  14.475  0.00  0.00     0.277 HD
BRANCH   7  10
ATOM     10  C4  SPM d          -4.537   2.164  16.068  0.00  0.00     0.083 C 
ATOM     11  H8  SPM d          -3.546   2.121  16.544  0.00  0.00     0.075 H 
ATOM     12  H9  SPM d          -5.065   3.070  16.400  0.00  0.00     0.075 H 
BRANCH  10  13
ATOM     13  C3  SPM d          -5.342   0.946  16.534  0.00  0.00    -0.020 C 
ATOM     14  H6  SPM d          -5.928   0.561  15.686  0.00  0.00     0.037 H 
ATOM     15  H7  SPM d          -4.645   0.169  16.880  0.00  0.00     0.037 H 
BRANCH  13  16
ATOM     16  C2  SPM d          -6.286   1.297  17.662  0.00  0.00     0.081 C 
ATOM     17  H4  SPM d          -6.168   0.578  18.486  0.00  0.00     0.075 H 
ATOM     18  H5  SPM d          -6.071   2.312  18.028  0.00  0.00     0.075 H 
BRANCH  16  19
ATOM     19  N1  SPM d          -7.632   1.237  17.148  0.00  0.00    -0.079 N 
ATOM     20  H1  SPM d          -7.858   0.284  16.907  0.00  0.00     0.274 HD
ATOM     21  H2  SPM d          -7.705   1.818  16.328  0.00  0.00     0.274 HD
ATOM     22  H3  SPM d          -8.275   1.567  17.851  0.00  0.00     0.274 HD
ENDBRANCH  16  19
ENDBRANCH  13  16
ENDBRANCH  10  13
ENDBRANCH   7  10
ENDBRANCH   4   7
ENDBRANCH   1   4
BRANCH   1  23
ATOM     23  C8  SPM d          -5.568   5.469  14.819  0.00  0.00    -0.041 C 
ATOM     24  H16 SPM d          -4.638   5.497  15.404  0.00  0.00     0.035 H 
ATOM     25  H17 SPM d          -6.320   6.117  15.294  0.00  0.00     0.035 H 
BRANCH  23  26
ATOM     26  C9  SPM d          -5.308   5.926  13.410  0.00  0.00     0.082 C 
ATOM     27  H18 SPM d          -6.129   6.583  13.084  0.00  0.00     0.075 H 
ATOM     28  H19 SPM d          -5.255   5.049  12.747  0.00  0.00     0.075 H 
BRANCH  26  29
ATOM     29  N10 SPM d          -4.062   6.651  13.343  0.00  0.00    -0.075 N 
ATOM     30  H20 SPM d          -4.292   7.558  12.966  0.00  0.00     0.277 HD
ATOM     31  H21 SPM d          -3.489   6.149  12.684  0.00  0.00     0.277 HD
BRANCH  29  32
ATOM     32  C11 SPM d          -3.225   6.902  14.477  0.00  0.00     0.083 C 
ATOM     33  H22 SPM d          -3.614   6.353  15.346  0.00  0.00     0.075 H 
ATOM     34  H23 SPM d          -3.221   7.981  14.696  0.00  0.00     0.075 H 
BRANCH  32  35
ATOM     35  C12 SPM d          -1.811   6.443  14.185  0.00  0.00    -0.020 C 
ATOM     36  H24 SPM d          -1.174   6.693  15.046  0.00  0.00     0.037 H 
ATOM     37  H25 SPM d          -1.445   6.972  13.292  0.00  0.00     0.037 H 
BRANCH  35  38
ATOM     38  C13 SPM d          -1.726   4.940  13.933  0.00  0.00     0.081 C 
ATOM     39  H26 SPM d          -0.893   4.738  13.244  0.00  0.00     0.075 H 
ATOM     40  H27 SPM d          -2.668   4.598  13.478  0.00  0.00     0.075 H 
BRANCH  38  41
ATOM     41  N14 SPM d          -1.506   4.213  15.166  0.00  0.00    -0.079 N 
ATOM     42  H28 SPM d          -0.751   4.642  15.678  0.00  0.00     0.274 HD
ATOM     43  H29 SPM d          -1.268   3.257  14.956  0.00  0.00     0.274 HD
ATOM     44  H30 SPM d          -2.346   4.235  15.724  0.00  0.00     0.274 HD
ENDBRANCH  38  41
ENDBRANCH  35  38
ENDBRANCH  32  35
ENDBRANCH  29  32
ENDBRANCH  26  29
ENDBRANCH  23  26
ENDBRANCH   1  23
TORSDOF 13
ENDMDL
MODEL 2
REMARK VINA RESULT:      -4.1      0.644      5.406
REMARK  13 active torsions:
REMARK  status: ('A' for Active; 'I' for Inactive)
REMARK    1  A    between atoms: N1_1  and  C2_2 
REMARK    2  A    between atoms: C2_2  and  C3_3 
REMARK    3  A    between atoms: C3_3  and  C4_4 
REMARK    4  A    between atoms: C4_4  and  N5_5 
REMARK    5  A    between atoms: N5_5  and  C6_6 
REMARK    6  A    between atoms: C6_6  and  C7_7 
REMARK    7  A    between atoms: C7_7  and  C8_8 
REMARK    8  A    between atoms: C8_8  and  C9_9 
REMARK    9  A    between atoms: C9_9  and  N10_10 
REMARK   10  A    between atoms: N10_10  and  C11_11 
REMARK   11  A    between atoms: C11_11  and  C12_12 
REMARK   12  A    between atoms: C12_12  and  C13_13 
REMARK   13  A    between atoms: C13_13  and  N14_14 
ROOT
ATOM      1  C7  SPM d          -5.673   5.555  14.651  0.00  0.00    -0.041 C 
ATOM      2  H14 SPM d          -6.578   6.169  14.767  0.00  0.00     0.035 H 
ATOM      3  H15 SPM d          -4.943   5.828  15.426  0.00  0.00     0.035 H 
ENDROOT
BRANCH   1   4
ATOM      4  C6  SPM d          -5.080   5.724  13.268  0.00  0.00     0.082 C 
ATOM      5  H12 SPM d          -4.538   4.801  13.013  0.00  0.00     0.075 H 
ATOM      6  H13 SPM d          -5.907   5.871  12.558  0.00  0.00     0.075 H 
BRANCH   4   7
ATOM      7  N5  SPM d          -4.162   6.840  13.129  0.00  0.00    -0.075 N 
ATOM      8  H10 SPM d          -4.404   7.325  12.279  0.00  0.00     0.277 HD
ATOM      9  H11 SPM d          -4.310   7.451  13.917  0.00  0.00     0.277 HD
BRANCH   7  10
ATOM     10  C4  SPM d          -2.748   6.548  13.071  0.00  0.00     0.083 C 
ATOM     11  H8  SPM d          -2.616   5.611  12.510  0.00  0.00     0.075 H 
ATOM     12  H9  SPM d          -2.251   7.371  12.536  0.00  0.00     0.075 H 
BRANCH  10  13
ATOM     13  C3  SPM d          -2.070   6.388  14.435  0.00  0.00    -0.020 C 
ATOM     14  H6  SPM d          -1.097   6.901  14.412  0.00  0.00     0.037 H 
ATOM     15  H7  SPM d          -2.707   6.845  15.207  0.00  0.00     0.037 H 
BRANCH  13  16
ATOM     16  C2  SPM d          -1.847   4.932  14.782  0.00  0.00     0.081 C 
ATOM     17  H4  SPM d          -1.097   4.848  15.582  0.00  0.00     0.075 H 
ATOM     18  H5  SPM d          -2.792   4.480  15.118  0.00  0.00     0.075 H 
BRANCH  16  19
ATOM     19  N1  SPM d          -1.377   4.261  13.596  0.00  0.00    -0.079 N 
ATOM     20  H1  SPM d          -1.658   4.783  12.781  0.00  0.00     0.274 HD
ATOM     21  H2  SPM d          -1.771   3.335  13.555  0.00  0.00     0.274 HD
ATOM     22  H3  SPM d          -0.371   4.196  13.624  0.00  0.00     0.274 HD
ENDBRANCH  16  19
ENDBRANCH  13  16
ENDBRANCH  10  13
ENDBRANCH   7  10
ENDBRANCH   4   7
ENDBRANCH   1   4
BRANCH   1  23
ATOM     23  C8  SPM d          -6.011   4.076  14.725  0.00  0.00    -0.041 C 
ATOM     24  H16 SPM d          -7.029   3.902  14.348  0.00  0.00     0.035 H 
ATOM     25  H17 SPM d          -5.940   3.723  15.764  0.00  0.00     0.035 H 
BRANCH  23  26
ATOM     26  C9  SPM d          -5.010   3.357  13.864  0.00  0.00     0.082 C 
ATOM     27  H18 SPM d          -4.255   4.074  13.508  0.00  0.00     0.075 H 
ATOM     28  H19 SPM d          -5.527   2.910  13.001  0.00  0.00     0.075 H 
BRANCH  26  29
ATOM     29  N10 SPM d          -4.358   2.315  14.621  0.00  0.00    -0.075 N 
ATOM     30  H20 SPM d          -3.377   2.386  14.397  0.00  0.00     0.277 HD
ATOM     31  H21 SPM d          -4.723   1.447  14.263  0.00  0.00     0.277 HD
BRANCH  29  32
ATOM     32  C11 SPM d          -4.424   2.207  16.047  0.00  0.00     0.083 C 
ATOM     33  H22 SPM d          -4.880   3.118  16.461  0.00  0.00     0.075 H 
ATOM     34  H23 SPM d          -3.407   2.090  16.452  0.00  0.00     0.075 H 
BRANCH  32  35
ATOM     35  C12 SPM d          -5.261   1.006  16.435  0.00  0.00    -0.020 C 
ATOM     36  H24 SPM d          -4.589   0.184  16.720  0.00  0.00     0.037 H 
ATOM     37  H25 SPM d          -5.865   0.702  15.567  0.00  0.00     0.037 H 
BRANCH  35  38
ATOM     38  C13 SPM d          -6.198   1.300  17.604  0.00  0.00     0.081 C 
ATOM     39  H26 SPM d          -6.001   2.317  17.975  0.00  0.00     0.075 H 
ATOM     40  H27 SPM d          -6.008   0.574  18.409  0.00  0.00     0.075 H 
BRANCH  38  41
ATOM     41  N14 SPM d          -7.586   1.206  17.201  0.00  0.00    -0.079 N 
ATOM     42  H28 SPM d          -7.763   1.860  16.454  0.00  0.00     0.274 HD
ATOM     43  H29 SPM d          -8.180   1.424  17.986  0.00  0.00     0.274 HD
ATOM     44  H30 SPM d          -7.780   0.270  16.882  0.00  0.00     0.274 HD
ENDBRANCH  38  41
ENDBRANCH  35  38
ENDBRANCH  32  35
ENDBRANCH  29  32
ENDBRANCH  26  29
ENDBRANCH  23  26
ENDBRANCH   1  23
TORSDOF 13
ENDMDL
MODEL 3
REMARK VINA RESULT:      -4.0      1.994      2.639
REMARK  13 active torsions:
REMARK  status: ('A' for Active; 'I' for Inactive)
REMARK    1  A    between atoms: N1_1  and  C2_2 
REMARK    2  A    between atoms: C2_2  and  C3_3 
REMARK    3  A    between atoms: C3_3  and  C4_4 
REMARK    4  A    between atoms: C4_4  and  N5_5 
REMARK    5  A    between atoms: N5_5  and  C6_6 
REMARK    6  A    between atoms: C6_6  and  C7_7 
REMARK    7  A    between atoms: C7_7  and  C8_8 
REMARK    8  A    between atoms: C8_8  and  C9_9 
REMARK    9  A    between atoms: C9_9  and  N10_10 
REMARK   10  A    between atoms: N10_10  and  C11_11 
REMARK   11  A    between atoms: C11_11  and  C12_12 
REMARK   12  A    between atoms: C12_12  and  C13_13 
REMARK   13  A    between atoms: C13_13  and  N14_14 
ROOT
ATOM      1  C7  SPM d          -4.461   2.200  14.170  0.00  0.00    -0.041 C 
ATOM      2  H14 SPM d          -4.580   1.339  14.843  0.00  0.00     0.035 H 
ATOM      3  H15 SPM d          -3.538   2.741  14.426  0.00  0.00     0.035 H 
ENDROOT
BRANCH   1   4
ATOM      4  C6  SPM d          -5.663   3.117  14.252  0.00  0.00     0.082 C 
ATOM      5  H12 SPM d          -5.576   3.867  13.452  0.00  0.00     0.075 H 
ATOM      6  H13 SPM d          -6.567   2.511  14.088  0.00  0.00     0.075 H 
BRANCH   4   7
ATOM      7  N5  SPM d          -5.813   3.818  15.515  0.00  0.00    -0.075 N 
ATOM      8  H10 SPM d          -4.978   4.367  15.655  0.00  0.00     0.277 HD
ATOM      9  H11 SPM d          -6.607   4.433  15.425  0.00  0.00     0.277 HD
BRANCH   7  10
ATOM     10  C4  SPM d          -6.013   3.027  16.707  0.00  0.00     0.083 C 
ATOM     11  H8  SPM d          -5.130   2.383  16.842  0.00  0.00     0.075 H 
ATOM     12  H9  SPM d          -6.101   3.713  17.562  0.00  0.00     0.075 H 
BRANCH  10  13
ATOM     13  C3  SPM d          -7.256   2.133  16.682  0.00  0.00    -0.020 C 
ATOM     14  H6  SPM d          -8.124   2.720  17.018  0.00  0.00     0.037 H 
ATOM     15  H7  SPM d          -7.426   1.785  15.652  0.00  0.00     0.037 H 
BRANCH  13  16
ATOM     16  C2  SPM d          -7.099   0.930  17.587  0.00  0.00     0.081 C 
ATOM     17  H4  SPM d          -7.180   1.240  18.639  0.00  0.00     0.075 H 
ATOM     18  H5  SPM d          -7.881   0.190  17.362  0.00  0.00     0.075 H 
BRANCH  16  19
ATOM     19  N1  SPM d          -5.798   0.360  17.342  0.00  0.00    -0.079 N 
ATOM     20  H1  SPM d          -5.617   0.349  16.350  0.00  0.00     0.274 HD
ATOM     21  H2  SPM d          -5.772  -0.583  17.699  0.00  0.00     0.274 HD
ATOM     22  H3  SPM d          -5.096   0.914  17.807  0.00  0.00     0.274 HD
ENDBRANCH  16  19
ENDBRANCH  13  16
ENDBRANCH  10  13
ENDBRANCH   7  10
ENDBRANCH   4   7
ENDBRANCH   1   4
BRANCH   1  23
ATOM     23  C8  SPM d          -4.440   1.753  12.719  0.00  0.00    -0.041 C 
ATOM     24  H16 SPM d          -5.463   1.543  12.374  0.00  0.00     0.035 H 
ATOM     25  H17 SPM d          -3.823   0.849  12.610  0.00  0.00     0.035 H 
BRANCH  23  26
ATOM     26  C9  SPM d          -3.848   2.884  11.923  0.00  0.00     0.082 C 
ATOM     27  H18 SPM d          -4.230   3.840  12.311  0.00  0.00     0.075 H 
ATOM     28  H19 SPM d          -4.136   2.775  10.867  0.00  0.00     0.075 H 
BRANCH  26  29
ATOM     29  N10 SPM d          -2.408   2.867  12.029  0.00  0.00    -0.075 N 
ATOM     30  H20 SPM d          -2.070   2.583  11.122  0.00  0.00     0.277 HD
ATOM     31  H21 SPM d          -2.192   2.154  12.707  0.00  0.00     0.277 HD
BRANCH  29  32
ATOM     32  C11 SPM d          -1.624   4.007  12.397  0.00  0.00     0.083 C 
ATOM     33  H22 SPM d          -1.101   4.392  11.510  0.00  0.00     0.075 H 
ATOM     34  H23 SPM d          -0.886   3.711  13.159  0.00  0.00     0.075 H 
BRANCH  32  35
ATOM     35  C12 SPM d          -2.521   5.090  12.960  0.00  0.00    -0.020 C 
ATOM     36  H24 SPM d          -3.567   4.838  12.730  0.00  0.00     0.037 H 
ATOM     37  H25 SPM d          -2.260   6.047  12.484  0.00  0.00     0.037 H 
BRANCH  35  38
ATOM     38  C13 SPM d          -2.376   5.240  14.473  0.00  0.00     0.081 C 
ATOM     39  H26 SPM d          -3.365   5.132  14.941  0.00  0.00     0.075 H 
ATOM     40  H27 SPM d          -1.971   6.238  14.698  0.00  0.00     0.075 H 
BRANCH  38  41
ATOM     41  N14 SPM d          -1.485   4.235  15.016  0.00  0.00    -0.079 N 
ATOM     42  H28 SPM d          -1.639   3.359  14.542  0.00  0.00     0.274 HD
ATOM     43  H29 SPM d          -1.667   4.121  16.001  0.00  0.00     0.274 HD
ATOM     44  H30 SPM d          -0.529   4.527  14.884  0.00  0.00     0.274 HD
ENDBRANCH  38  41
ENDBRANCH  35  38
ENDBRANCH  32  35
ENDBRANCH  29  32
ENDBRANCH  26  29
ENDBRANCH  23  26
ENDBRANCH   1  23
TORSDOF 13
ENDMDL
MODEL 4
REMARK VINA RESULT:      -3.8      1.258      5.312
REMARK  13 active torsions:
REMARK  status: ('A' for Active; 'I' for Inactive)
REMARK    1  A    between atoms: N1_1  and  C2_2 
REMARK    2  A    between atoms: C2_2  and  C3_3 
REMARK    3  A    between atoms: C3_3  and  C4_4 
REMARK    4  A    between atoms: C4_4  and  N5_5 
REMARK    5  A    between atoms: N5_5  and  C6_6 
REMARK    6  A    between atoms: C6_6  and  C7_7 
REMARK    7  A    between atoms: C7_7  and  C8_8 
REMARK    8  A    between atoms: C8_8  and  C9_9 
REMARK    9  A    between atoms: C9_9  and  N10_10 
REMARK   10  A    between atoms: N10_10  and  C11_11 
REMARK   11  A    between atoms: C11_11  and  C12_12 
REMARK   12  A    between atoms: C12_12  and  C13_13 
REMARK   13  A    between atoms: C13_13  and  N14_14 
ROOT
ATOM      1  C7  SPM d          -5.439   5.783  14.403  0.00  0.00    -0.041 C 
ATOM      2  H14 SPM d          -6.505   5.990  14.576  0.00  0.00     0.035 H 
ATOM      3  H15 SPM d          -4.840   6.259  15.194  0.00  0.00     0.035 H 
ENDROOT
BRANCH   1   4
ATOM      4  C6  SPM d          -5.010   6.270  13.035  0.00  0.00     0.082 C 
ATOM      5  H12 SPM d          -5.043   5.416  12.342  0.00  0.00     0.075 H 
ATOM      6  H13 SPM d          -5.726   7.037  12.706  0.00  0.00     0.075 H 
BRANCH   4   7
ATOM      7  N5  SPM d          -3.677   6.844  12.981  0.00  0.00    -0.075 N 
ATOM      8  H10 SPM d          -3.766   7.778  12.610  0.00  0.00     0.277 HD
ATOM      9  H11 SPM d          -3.331   6.891  13.927  0.00  0.00     0.277 HD
BRANCH   7  10
ATOM     10  C4  SPM d          -2.679   6.161  12.191  0.00  0.00     0.083 C 
ATOM     11  H8  SPM d          -3.185   5.693  11.332  0.00  0.00     0.075 H 
ATOM     12  H9  SPM d          -1.958   6.909  11.829  0.00  0.00     0.075 H 
BRANCH  10  13
ATOM     13  C3  SPM d          -1.903   5.072  12.939  0.00  0.00    -0.020 C 
ATOM     14  H6  SPM d          -2.470   4.131  12.888  0.00  0.00     0.037 H 
ATOM     15  H7  SPM d          -0.924   4.936  12.455  0.00  0.00     0.037 H 
BRANCH  13  16
ATOM     16  C2  SPM d          -1.686   5.436  14.391  0.00  0.00     0.081 C 
ATOM     17  H4  SPM d          -0.787   6.062  14.490  0.00  0.00     0.075 H 
ATOM     18  H5  SPM d          -2.559   5.986  14.772  0.00  0.00     0.075 H 
BRANCH  16  19
ATOM     19  N1  SPM d          -1.515   4.212  15.133  0.00  0.00    -0.079 N 
ATOM     20  H1  SPM d          -0.547   4.109  15.394  0.00  0.00     0.274 HD
ATOM     21  H2  SPM d          -1.794   3.430  14.561  0.00  0.00     0.274 HD
ATOM     22  H3  SPM d          -2.086   4.240  15.963  0.00  0.00     0.274 HD
ENDBRANCH  16  19
ENDBRANCH  13  16
ENDBRANCH  10  13
ENDBRANCH   7  10
ENDBRANCH   4   7
ENDBRANCH   1   4
BRANCH   1  23
ATOM     23  C8  SPM d          -5.179   4.288  14.356  0.00  0.00    -0.041 C 
ATOM     24  H16 SPM d          -4.332   4.031  15.008  0.00  0.00     0.035 H 
ATOM     25  H17 SPM d          -4.957   3.974  13.325  0.00  0.00     0.035 H 
BRANCH  23  26
ATOM     26  C9  SPM d          -6.432   3.612  14.843  0.00  0.00     0.082 C 
ATOM     27  H18 SPM d          -6.596   2.691  14.265  0.00  0.00     0.075 H 
ATOM     28  H19 SPM d          -7.287   4.290  14.705  0.00  0.00     0.075 H 
BRANCH  26  29
ATOM     29  N10 SPM d          -6.308   3.281  16.242  0.00  0.00    -0.075 N 
ATOM     30  H20 SPM d          -6.607   4.101  16.746  0.00  0.00     0.277 HD
ATOM     31  H21 SPM d          -5.324   3.129  16.401  0.00  0.00     0.277 HD
BRANCH  29  32
ATOM     32  C11 SPM d          -6.978   2.177  16.862  0.00  0.00     0.083 C 
ATOM     33  H22 SPM d          -7.794   1.834  16.210  0.00  0.00     0.075 H 
ATOM     34  H23 SPM d          -7.392   2.499  17.830  0.00  0.00     0.075 H 
BRANCH  32  35
ATOM     35  C12 SPM d          -6.002   1.041  17.085  0.00  0.00    -0.020 C 
ATOM     36  H24 SPM d          -6.386   0.141  16.582  0.00  0.00     0.037 H 
ATOM     37  H25 SPM d          -5.921   0.852  18.165  0.00  0.00     0.037 H 
BRANCH  35  38
ATOM     38  C13 SPM d          -4.611   1.351  16.536  0.00  0.00     0.081 C 
ATOM     39  H26 SPM d          -3.869   1.200  17.334  0.00  0.00     0.075 H 
ATOM     40  H27 SPM d          -4.582   2.399  16.202  0.00  0.00     0.075 H 
BRANCH  38  41
ATOM     41  N14 SPM d          -4.284   0.489  15.419  0.00  0.00    -0.079 N 
ATOM     42  H28 SPM d          -4.752  -0.397  15.530  0.00  0.00     0.274 HD
ATOM     43  H29 SPM d          -3.287   0.340  15.389  0.00  0.00     0.274 HD
ATOM     44  H30 SPM d          -4.584   0.924  14.561  0.00  0.00     0.274 HD
ENDBRANCH  38  41
ENDBRANCH  35  38
ENDBRANCH  32  35
ENDBRANCH  29  32
ENDBRANCH  26  29
ENDBRANCH  23  26
ENDBRANCH   1  23
TORSDOF 13
ENDMDL
MODEL 5
REMARK VINA RESULT:      -3.7      1.545      5.214
REMARK  13 active torsions:
REMARK  status: ('A' for Active; 'I' for Inactive)
REMARK    1  A    between atoms: N1_1  and  C2_2 
REMARK    2  A    between atoms: C2_2  and  C3_3 
REMARK    3  A    between atoms: C3_3  and  C4_4 
REMARK    4  A    between atoms: C4_4  and  N5_5 
REMARK    5  A    between atoms: N5_5  and  C6_6 
REMARK    6  A    between atoms: C6_6  and  C7_7 
REMARK    7  A    between atoms: C7_7  and  C8_8 
REMARK    8  A    between atoms: C8_8  and  C9_9 
REMARK    9  A    between atoms: C9_9  and  N10_10 
REMARK   10  A    between atoms: N10_10  and  C11_11 
REMARK   11  A    between atoms: C11_11  and  C12_12 
REMARK   12  A    between atoms: C12_12  and  C13_13 
REMARK   13  A    between atoms: C13_13  and  N14_14 
ROOT
ATOM      1  C7  SPM d          -4.081   5.702  14.562  0.00  0.00    -0.041 C 
ATOM      2  H14 SPM d          -4.196   6.230  15.519  0.00  0.00     0.035 H 
ATOM      3  H15 SPM d          -3.379   4.865  14.686  0.00  0.00     0.035 H 
ENDROOT
BRANCH   1   4
ATOM      4  C6  SPM d          -3.606   6.647  13.478  0.00  0.00     0.082 C 
ATOM      5  H12 SPM d          -4.427   6.785  12.760  0.00  0.00     0.075 H 
ATOM      6  H13 SPM d          -3.365   7.612  13.949  0.00  0.00     0.075 H 
BRANCH   4   7
ATOM      7  N5  SPM d          -2.435   6.198  12.746  0.00  0.00    -0.075 N 
ATOM      8  H10 SPM d          -2.694   6.138  11.773  0.00  0.00     0.277 HD
ATOM      9  H11 SPM d          -1.721   6.900  12.860  0.00  0.00     0.277 HD
BRANCH   7  10
ATOM     10  C4  SPM d          -1.853   4.929  13.115  0.00  0.00     0.083 C 
ATOM     11  H8  SPM d          -0.802   5.101  13.390  0.00  0.00     0.075 H 
ATOM     12  H9  SPM d          -2.402   4.542  13.987  0.00  0.00     0.075 H 
BRANCH  10  13
ATOM     13  C3  SPM d          -1.891   3.861  12.017  0.00  0.00    -0.020 C 
ATOM     14  H6  SPM d          -1.654   4.334  11.052  0.00  0.00     0.037 H 
ATOM     15  H7  SPM d          -1.138   3.091  12.242  0.00  0.00     0.037 H 
BRANCH  13  16
ATOM     16  C2  SPM d          -3.250   3.204  11.920  0.00  0.00     0.081 C 
ATOM     17  H4  SPM d          -3.950   3.688  12.617  0.00  0.00     0.075 H 
ATOM     18  H5  SPM d          -3.636   3.292  10.894  0.00  0.00     0.075 H 
BRANCH  16  19
ATOM     19  N1  SPM d          -3.095   1.814  12.269  0.00  0.00    -0.079 N 
ATOM     20  H1  SPM d          -2.893   1.734  13.253  0.00  0.00     0.274 HD
ATOM     21  H2  SPM d          -2.337   1.416  11.737  0.00  0.00     0.274 HD
ATOM     22  H3  SPM d          -3.948   1.318  12.059  0.00  0.00     0.274 HD
ENDBRANCH  16  19
ENDBRANCH  13  16
ENDBRANCH  10  13
ENDBRANCH   7  10
ENDBRANCH   4   7
ENDBRANCH   1   4
BRANCH   1  23
ATOM     23  C8  SPM d          -5.424   5.210  14.052  0.00  0.00    -0.041 C 
ATOM     24  H16 SPM d          -5.290   4.645  13.119  0.00  0.00     0.035 H 
ATOM     25  H17 SPM d          -6.096   6.062  13.872  0.00  0.00     0.035 H 
BRANCH  23  26
ATOM     26  C9  SPM d          -5.995   4.318  15.120  0.00  0.00     0.082 C 
ATOM     27  H18 SPM d          -7.090   4.283  15.017  0.00  0.00     0.075 H 
ATOM     28  H19 SPM d          -5.733   4.722  16.110  0.00  0.00     0.075 H 
BRANCH  26  29
ATOM     29  N10 SPM d          -5.461   2.983  14.994  0.00  0.00    -0.075 N 
ATOM     30  H20 SPM d          -4.885   2.996  14.166  0.00  0.00     0.277 HD
ATOM     31  H21 SPM d          -6.256   2.384  14.842  0.00  0.00     0.277 HD
BRANCH  29  32
ATOM     32  C11 SPM d          -4.676   2.341  16.004  0.00  0.00     0.083 C 
ATOM     33  H22 SPM d          -4.695   2.947  16.922  0.00  0.00     0.075 H 
ATOM     34  H23 SPM d          -3.638   2.241  15.652  0.00  0.00     0.075 H 
BRANCH  32  35
ATOM     35  C12 SPM d          -5.240   0.966  16.299  0.00  0.00    -0.020 C 
ATOM     36  H24 SPM d          -4.478   0.377  16.830  0.00  0.00     0.037 H 
ATOM     37  H25 SPM d          -5.485   0.474  15.346  0.00  0.00     0.037 H 
BRANCH  35  38
ATOM     38  C13 SPM d          -6.501   1.025  17.159  0.00  0.00     0.081 C 
ATOM     39  H26 SPM d          -6.704   0.024  17.566  0.00  0.00     0.075 H 
ATOM     40  H27 SPM d          -7.347   1.344  16.533  0.00  0.00     0.075 H 
BRANCH  38  41
ATOM     41  N14 SPM d          -6.344   1.958  18.255  0.00  0.00    -0.079 N 
ATOM     42  H28 SPM d          -6.294   2.897  17.891  0.00  0.00     0.274 HD
ATOM     43  H29 SPM d          -5.497   1.747  18.758  0.00  0.00     0.274 HD
ATOM     44  H30 SPM d          -7.133   1.880  18.878  0.00  0.00     0.274 HD
ENDBRANCH  38  41
ENDBRANCH  35  38
ENDBRANCH  32  35
ENDBRANCH  29  32
ENDBRANCH  26  29
ENDBRANCH  23  26
ENDBRANCH   1  23
TORSDOF 13
ENDMDL
MODEL 6
REMARK VINA RESULT:      -3.7      1.107      5.538
REMARK  13 active torsions:
REMARK  status: ('A' for Active; 'I' for Inactive)
REMARK    1  A    between atoms: N1_1  and  C2_2 
REMARK    2  A    between atoms: C2_2  and  C3_3 
REMARK    3  A    between atoms: C3_3  and  C4_4 
REMARK    4  A    between atoms: C4_4  and  N5_5 
REMARK    5  A    between atoms: N5_5  and  C6_6 
REMARK    6  A    between atoms: C6_6  and  C7_7 
REMARK    7  A    between atoms: C7_7  and  C8_8 
REMARK    8  A    between atoms: C8_8  and  C9_9 
REMARK    9  A    between atoms: C9_9  and  N10_10 
REMARK   10  A    between atoms: N10_10  and  C11_11 
REMARK   11  A    between atoms: C11_11  and  C12_12 
REMARK   12  A    between atoms: C12_12  and  C13_13 
REMARK   13  A    between atoms: C13_13  and  N14_14 
ROOT
ATOM      1  C7  SPM d          -5.623   5.092  14.021  0.00  0.00    -0.041 C 
ATOM      2  H14 SPM d          -6.677   4.809  13.887  0.00  0.00     0.035 H 
ATOM      3  H15 SPM d          -5.405   5.198  15.094  0.00  0.00     0.035 H 
ENDROOT
BRANCH   1   4
ATOM      4  C6  SPM d          -5.311   6.374  13.279  0.00  0.00     0.082 C 
ATOM      5  H12 SPM d          -6.012   6.460  12.435  0.00  0.00     0.075 H 
ATOM      6  H13 SPM d          -5.466   7.215  13.970  0.00  0.00     0.075 H 
BRANCH   4   7
ATOM      7  N5  SPM d          -3.960   6.464  12.754  0.00  0.00    -0.075 N 
ATOM      8  H10 SPM d          -3.584   5.529  12.728  0.00  0.00     0.277 HD
ATOM      9  H11 SPM d          -4.025   6.827  11.816  0.00  0.00     0.277 HD
BRANCH   7  10
ATOM     10  C4  SPM d          -3.012   7.287  13.469  0.00  0.00     0.083 C 
ATOM     11  H8  SPM d          -2.300   7.701  12.739  0.00  0.00     0.075 H 
ATOM     12  H9  SPM d          -3.565   8.109  13.948  0.00  0.00     0.075 H 
BRANCH  10  13
ATOM     13  C3  SPM d          -2.214   6.554  14.552  0.00  0.00    -0.020 C 
ATOM     14  H6  SPM d          -1.447   7.234  14.952  0.00  0.00     0.037 H 
ATOM     15  H7  SPM d          -2.899   6.258  15.361  0.00  0.00     0.037 H 
BRANCH  13  16
ATOM     16  C2  SPM d          -1.535   5.317  14.007  0.00  0.00     0.081 C 
ATOM     17  H4  SPM d          -2.090   4.939  13.135  0.00  0.00     0.075 H 
ATOM     18  H5  SPM d          -0.504   5.557  13.708  0.00  0.00     0.075 H 
BRANCH  16  19
ATOM     19  N1  SPM d          -1.525   4.322  15.050  0.00  0.00    -0.079 N 
ATOM     20  H1  SPM d          -2.461   3.980  15.198  0.00  0.00     0.274 HD
ATOM     21  H2  SPM d          -1.178   4.733  15.903  0.00  0.00     0.274 HD
ATOM     22  H3  SPM d          -0.926   3.557  14.779  0.00  0.00     0.274 HD
ENDBRANCH  16  19
ENDBRANCH  13  16
ENDBRANCH  10  13
ENDBRANCH   7  10
ENDBRANCH   4   7
ENDBRANCH   1   4
BRANCH   1  23
ATOM     23  C8  SPM d          -4.703   4.068  13.381  0.00  0.00    -0.041 C 
ATOM     24  H16 SPM d          -3.654   4.376  13.499  0.00  0.00     0.035 H 
ATOM     25  H17 SPM d          -4.937   3.964  12.311  0.00  0.00     0.035 H 
BRANCH  23  26
ATOM     26  C9  SPM d          -4.941   2.763  14.092  0.00  0.00     0.082 C 
ATOM     27  H18 SPM d          -3.979   2.358  14.438  0.00  0.00     0.075 H 
ATOM     28  H19 SPM d          -5.410   2.051  13.396  0.00  0.00     0.075 H 
BRANCH  26  29
ATOM     29  N10 SPM d          -5.810   2.965  15.226  0.00  0.00    -0.075 N 
ATOM     30  H20 SPM d          -6.641   2.427  15.033  0.00  0.00     0.277 HD
ATOM     31  H21 SPM d          -6.038   3.947  15.225  0.00  0.00     0.277 HD
BRANCH  29  32
ATOM     32  C11 SPM d          -5.446   2.649  16.574  0.00  0.00     0.083 C 
ATOM     33  H22 SPM d          -4.790   3.439  16.969  0.00  0.00     0.075 H 
ATOM     34  H23 SPM d          -4.914   1.686  16.593  0.00  0.00     0.075 H 
BRANCH  32  35
ATOM     35  C12 SPM d          -6.689   2.552  17.435  0.00  0.00    -0.020 C 
ATOM     36  H24 SPM d          -7.510   3.083  16.931  0.00  0.00     0.037 H 
ATOM     37  H25 SPM d          -6.485   3.029  18.405  0.00  0.00     0.037 H 
BRANCH  35  38
ATOM     38  C13 SPM d          -7.118   1.107  17.679  0.00  0.00     0.081 C 
ATOM     39  H26 SPM d          -7.853   0.817  16.914  0.00  0.00     0.075 H 
ATOM     40  H27 SPM d          -7.579   1.034  18.676  0.00  0.00     0.075 H 
BRANCH  38  41
ATOM     41  N14 SPM d          -5.986   0.207  17.614  0.00  0.00    -0.079 N 
ATOM     42  H28 SPM d          -6.280  -0.721  17.875  0.00  0.00     0.274 HD
ATOM     43  H29 SPM d          -5.268   0.522  18.248  0.00  0.00     0.274 HD
ATOM     44  H30 SPM d          -5.622   0.193  16.674  0.00  0.00     0.274 HD
ENDBRANCH  38  41
ENDBRANCH  35  38
ENDBRANCH  32  35
ENDBRANCH  29  32
ENDBRANCH  26  29
ENDBRANCH  23  26
ENDBRANCH   1  23
TORSDOF 13
ENDMDL
MODEL 7
REMARK VINA RESULT:      -3.5      2.084      3.436
REMARK  13 active torsions:
REMARK  status: ('A' for Active; 'I' for Inactive)
REMARK    1  A    between atoms: N1_1  and  C2_2 
REMARK    2  A    between atoms: C2_2  and  C3_3 
REMARK    3  A    between atoms: C3_3  and  C4_4 
REMARK    4  A    between atoms: C4_4  and  N5_5 
REMARK    5  A    between atoms: N5_5  and  C6_6 
REMARK    6  A    between atoms: C6_6  and  C7_7 
REMARK    7  A    between atoms: C7_7  and  C8_8 
REMARK    8  A    between atoms: C8_8  and  C9_9 
REMARK    9  A    between atoms: C9_9  and  N10_10 
REMARK   10  A    between atoms: N10_10  and  C11_11 
REMARK   11  A    between atoms: C11_11  and  C12_12 
REMARK   12  A    between atoms: C12_12  and  C13_13 
REMARK   13  A    between atoms: C13_13  and  N14_14 
ROOT
ATOM      1  C7  SPM d          -3.548   4.649  14.911  0.00  0.00    -0.041 C 
ATOM      2  H14 SPM d          -3.468   3.677  14.402  0.00  0.00     0.035 H 
ATOM      3  H15 SPM d          -3.479   4.500  15.998  0.00  0.00     0.035 H 
ENDROOT
BRANCH   1   4
ATOM      4  C6  SPM d          -4.842   5.345  14.543  0.00  0.00     0.082 C 
ATOM      5  H12 SPM d          -4.794   6.377  14.920  0.00  0.00     0.075 H 
ATOM      6  H13 SPM d          -4.922   5.359  13.446  0.00  0.00     0.075 H 
BRANCH   4   7
ATOM      7  N5  SPM d          -6.042   4.725  15.076  0.00  0.00    -0.075 N 
ATOM      8  H10 SPM d          -6.179   5.086  16.008  0.00  0.00     0.277 HD
ATOM      9  H11 SPM d          -6.812   5.007  14.490  0.00  0.00     0.277 HD
BRANCH   7  10
ATOM     10  C4  SPM d          -6.075   3.283  15.164  0.00  0.00     0.083 C 
ATOM     11  H8  SPM d          -6.919   2.923  14.558  0.00  0.00     0.075 H 
ATOM     12  H9  SPM d          -5.133   2.894  14.751  0.00  0.00     0.075 H 
BRANCH  10  13
ATOM     13  C3  SPM d          -6.238   2.731  16.584  0.00  0.00    -0.020 C 
ATOM     14  H6  SPM d          -5.927   3.501  17.305  0.00  0.00     0.037 H 
ATOM     15  H7  SPM d          -7.296   2.480  16.750  0.00  0.00     0.037 H 
BRANCH  13  16
ATOM     16  C2  SPM d          -5.400   1.490  16.802  0.00  0.00     0.081 C 
ATOM     17  H4  SPM d          -5.108   1.061  15.832  0.00  0.00     0.075 H 
ATOM     18  H5  SPM d          -4.498   1.744  17.376  0.00  0.00     0.075 H 
BRANCH  16  19
ATOM     19  N1  SPM d          -6.198   0.541  17.537  0.00  0.00    -0.079 N 
ATOM     20  H1  SPM d          -5.607  -0.198  17.885  0.00  0.00     0.274 HD
ATOM     21  H2  SPM d          -6.901   0.150  16.930  0.00  0.00     0.274 HD
ATOM     22  H3  SPM d          -6.646   1.007  18.311  0.00  0.00     0.274 HD
ENDBRANCH  16  19
ENDBRANCH  13  16
ENDBRANCH  10  13
ENDBRANCH   7  10
ENDBRANCH   4   7
ENDBRANCH   1   4
BRANCH   1  23
ATOM     23  C8  SPM d          -2.471   5.603  14.427  0.00  0.00    -0.041 C 
ATOM     24  H16 SPM d          -1.817   5.890  15.263  0.00  0.00     0.035 H 
ATOM     25  H17 SPM d          -2.929   6.504  13.993  0.00  0.00     0.035 H 
BRANCH  23  26
ATOM     26  C9  SPM d          -1.679   4.870  13.379  0.00  0.00     0.082 C 
ATOM     27  H18 SPM d          -1.196   3.993  13.836  0.00  0.00     0.075 H 
ATOM     28  H19 SPM d          -0.909   5.541  12.970  0.00  0.00     0.075 H 
BRANCH  26  29
ATOM     29  N10 SPM d          -2.547   4.434  12.312  0.00  0.00    -0.075 N 
ATOM     30  H20 SPM d          -2.203   4.884  11.477  0.00  0.00     0.277 HD
ATOM     31  H21 SPM d          -3.460   4.795  12.537  0.00  0.00     0.277 HD
BRANCH  29  32
ATOM     32  C11 SPM d          -2.747   3.060  11.959  0.00  0.00     0.083 C 
ATOM     33  H22 SPM d          -2.120   2.424  12.600  0.00  0.00     0.075 H 
ATOM     34  H23 SPM d          -2.467   2.909  10.905  0.00  0.00     0.075 H 
BRANCH  32  35
ATOM     35  C12 SPM d          -4.203   2.687  12.150  0.00  0.00    -0.020 C 
ATOM     36  H24 SPM d          -4.689   2.643  11.164  0.00  0.00     0.037 H 
ATOM     37  H25 SPM d          -4.688   3.459  12.764  0.00  0.00     0.037 H 
BRANCH  35  38
ATOM     38  C13 SPM d          -4.372   1.335  12.839  0.00  0.00     0.081 C 
ATOM     39  H26 SPM d          -5.397   1.257  13.230  0.00  0.00     0.075 H 
ATOM     40  H27 SPM d          -3.656   1.264  13.671  0.00  0.00     0.075 H 
BRANCH  38  41
ATOM     41  N14 SPM d          -4.135   0.243  11.917  0.00  0.00    -0.079 N 
ATOM     42  H28 SPM d          -3.982  -0.607  12.436  0.00  0.00     0.274 HD
ATOM     43  H29 SPM d          -3.322   0.446  11.358  0.00  0.00     0.274 HD
ATOM     44  H30 SPM d          -4.936   0.131  11.315  0.00  0.00     0.274 HD
ENDBRANCH  38  41
ENDBRANCH  35  38
ENDBRANCH  32  35
ENDBRANCH  29  32
ENDBRANCH  26  29
ENDBRANCH  23  26
ENDBRANCH   1  23
TORSDOF 13
ENDMDL
MODEL 8
REMARK VINA RESULT:      -3.4      1.883      5.271
REMARK  13 active torsions:
REMARK  status: ('A' for Active; 'I' for Inactive)
REMARK    1  A    between atoms: N1_1  and  C2_2 
REMARK    2  A    between atoms: C2_2  and  C3_3 
REMARK    3  A    between atoms: C3_3  and  C4_4 
REMARK    4  A    between atoms: C4_4  and  N5_5 
REMARK    5  A    between atoms: N5_5  and  C6_6 
REMARK    6  A    between atoms: C6_6  and  C7_7 
REMARK    7  A    between atoms: C7_7  and  C8_8 
REMARK    8  A    between atoms: C8_8  and  C9_9 
REMARK    9  A    between atoms: C9_9  and  N10_10 
REMARK   10  A    between atoms: N10_10  and  C11_11 
REMARK   11  A    between atoms: C11_11  and  C12_12 
REMARK   12  A    between atoms: C12_12  and  C13_13 
REMARK   13  A    between atoms: C13_13  and  N14_14 
ROOT
ATOM      1  C7  SPM d          -6.681   3.194  16.769  0.00  0.00    -0.041 C 
ATOM      2  H14 SPM d          -7.527   3.762  17.183  0.00  0.00     0.035 H 
ATOM      3  H15 SPM d          -5.801   3.323  17.416  0.00  0.00     0.035 H 
ENDROOT
BRANCH   1   4
ATOM      4  C6  SPM d          -6.378   3.636  15.353  0.00  0.00     0.082 C 
ATOM      5  H12 SPM d          -5.569   3.001  14.962  0.00  0.00     0.075 H 
ATOM      6  H13 SPM d          -7.285   3.487  14.747  0.00  0.00     0.075 H 
BRANCH   4   7
ATOM      7  N5  SPM d          -5.969   5.023  15.219  0.00  0.00    -0.075 N 
ATOM      8  H10 SPM d          -6.806   5.573  15.095  0.00  0.00     0.277 HD
ATOM      9  H11 SPM d          -5.518   5.288  16.080  0.00  0.00     0.277 HD
BRANCH   7  10
ATOM     10  C4  SPM d          -5.070   5.360  14.140  0.00  0.00     0.083 C 
ATOM     11  H8  SPM d          -5.168   4.591  13.360  0.00  0.00     0.075 H 
ATOM     12  H9  SPM d          -5.375   6.336  13.734  0.00  0.00     0.075 H 
BRANCH  10  13
ATOM     13  C3  SPM d          -3.594   5.450  14.540  0.00  0.00    -0.020 C 
ATOM     14  H6  SPM d          -3.289   6.507  14.544  0.00  0.00     0.037 H 
ATOM     15  H7  SPM d          -3.471   5.029  15.549  0.00  0.00     0.037 H 
BRANCH  13  16
ATOM     16  C2  SPM d          -2.706   4.688  13.580  0.00  0.00     0.081 C 
ATOM     17  H4  SPM d          -3.213   3.769  13.251  0.00  0.00     0.075 H 
ATOM     18  H5  SPM d          -2.479   5.314  12.705  0.00  0.00     0.075 H 
BRANCH  16  19
ATOM     19  N1  SPM d          -1.487   4.355  14.274  0.00  0.00    -0.079 N 
ATOM     20  H1  SPM d          -1.287   5.064  14.962  0.00  0.00     0.274 HD
ATOM     21  H2  SPM d          -0.728   4.303  13.614  0.00  0.00     0.274 HD
ATOM     22  H3  SPM d          -1.595   3.463  14.732  0.00  0.00     0.274 HD
ENDBRANCH  16  19
ENDBRANCH  13  16
ENDBRANCH  10  13
ENDBRANCH   7  10
ENDBRANCH   4   7
ENDBRANCH   1   4
BRANCH   1  23
ATOM     23  C8  SPM d          -7.036   1.725  16.626  0.00  0.00    -0.041 C 
ATOM     24  H16 SPM d          -7.083   1.450  15.562  0.00  0.00     0.035 H 
ATOM     25  H17 SPM d          -8.007   1.521  17.101  0.00  0.00     0.035 H 
BRANCH  23  26
ATOM     26  C9  SPM d          -5.950   0.945  17.314  0.00  0.00     0.082 C 
ATOM     27  H18 SPM d          -6.267  -0.103  17.420  0.00  0.00     0.075 H 
ATOM     28  H19 SPM d          -5.768   1.377  18.310  0.00  0.00     0.075 H 
BRANCH  26  29
ATOM     29  N10 SPM d          -4.731   0.999  16.542  0.00  0.00    -0.075 N 
ATOM     30  H20 SPM d          -4.018   0.590  17.127  0.00  0.00     0.277 HD
ATOM     31  H21 SPM d          -4.535   1.978  16.408  0.00  0.00     0.277 HD
BRANCH  29  32
ATOM     32  C11 SPM d          -4.576   0.390  15.255  0.00  0.00     0.083 C 
ATOM     33  H22 SPM d          -5.514  -0.110  14.973  0.00  0.00     0.075 H 
ATOM     34  H23 SPM d          -3.763  -0.350  15.298  0.00  0.00     0.075 H 
BRANCH  32  35
ATOM     35  C12 SPM d          -4.240   1.447  14.223  0.00  0.00    -0.020 C 
ATOM     36  H24 SPM d          -3.222   1.816  14.414  0.00  0.00     0.037 H 
ATOM     37  H25 SPM d          -4.956   2.276  14.321  0.00  0.00     0.037 H 
BRANCH  35  38
ATOM     38  C13 SPM d          -4.306   0.909  12.795  0.00  0.00     0.081 C 
ATOM     39  H26 SPM d          -4.838  -0.054  12.799  0.00  0.00     0.075 H 
ATOM     40  H27 SPM d          -3.283   0.761  12.420  0.00  0.00     0.075 H 
BRANCH  38  41
ATOM     41  N14 SPM d          -5.002   1.830  11.920  0.00  0.00    -0.079 N 
ATOM     42  H28 SPM d          -5.126   1.404  11.015  0.00  0.00     0.274 HD
ATOM     43  H29 SPM d          -4.462   2.675  11.823  0.00  0.00     0.274 HD
ATOM     44  H30 SPM d          -5.904   2.051  12.314  0.00  0.00     0.274 HD
ENDBRANCH  38  41
ENDBRANCH  35  38
ENDBRANCH  32  35
ENDBRANCH  29  32
ENDBRANCH  26  29
ENDBRANCH  23  26
ENDBRANCH   1  23
TORSDOF 13
ENDMDL
MODEL 9
REMARK VINA RESULT:      -3.3      1.694      3.061
REMARK  13 active torsions:
REMARK  status: ('A' for Active; 'I' for Inactive)
REMARK    1  A    between atoms: N1_1  and  C2_2 
REMARK    2  A    between atoms: C2_2  and  C3_3 
REMARK    3  A    between atoms: C3_3  and  C4_4 
REMARK    4  A    between atoms: C4_4  and  N5_5 
REMARK    5  A    between atoms: N5_5  and  C6_6 
REMARK    6  A    between atoms: C6_6  and  C7_7 
REMARK    7  A    between atoms: C7_7  and  C8_8 
REMARK    8  A    between atoms: C8_8  and  C9_9 
REMARK    9  A    between atoms: C9_9  and  N10_10 
REMARK   10  A    between atoms: N10_10  and  C11_11 
REMARK   11  A    between atoms: C11_11  and  C12_12 
REMARK   12  A    between atoms: C12_12  and  C13_13 
REMARK   13  A    between atoms: C13_13  and  N14_14 
ROOT
ATOM      1  C7  SPM d          -2.822   4.100  15.044  0.00  0.00    -0.041 C 
ATOM      2  H14 SPM d          -1.963   3.416  14.982  0.00  0.00     0.035 H 
ATOM      3  H15 SPM d          -3.127   4.210  16.095  0.00  0.00     0.035 H 
ENDROOT
BRANCH   1   4
ATOM      4  C6  SPM d          -3.973   3.598  14.198  0.00  0.00     0.082 C 
ATOM      5  H12 SPM d          -4.731   4.394  14.145  0.00  0.00     0.075 H 
ATOM      6  H13 SPM d          -3.589   3.391  13.188  0.00  0.00     0.075 H 
BRANCH   4   7
ATOM      7  N5  SPM d          -4.615   2.394  14.693  0.00  0.00    -0.075 N 
ATOM      8  H10 SPM d          -5.533   2.349  14.276  0.00  0.00     0.277 HD
ATOM      9  H11 SPM d          -4.066   1.609  14.379  0.00  0.00     0.277 HD
BRANCH   7  10
ATOM     10  C4  SPM d          -4.785   2.257  16.121  0.00  0.00     0.083 C 
ATOM     11  H8  SPM d          -4.566   1.214  16.393  0.00  0.00     0.075 H 
ATOM     12  H9  SPM d          -4.065   2.925  16.616  0.00  0.00     0.075 H 
BRANCH  10  13
ATOM     13  C3  SPM d          -6.186   2.600  16.636  0.00  0.00    -0.020 C 
ATOM     14  H6  SPM d          -6.092   3.262  17.510  0.00  0.00     0.037 H 
ATOM     15  H7  SPM d          -6.741   3.120  15.841  0.00  0.00     0.037 H 
BRANCH  13  16
ATOM     16  C2  SPM d          -6.953   1.361  17.041  0.00  0.00     0.081 C 
ATOM     17  H4  SPM d          -7.805   1.639  17.679  0.00  0.00     0.075 H 
ATOM     18  H5  SPM d          -7.323   0.841  16.145  0.00  0.00     0.075 H 
BRANCH  16  19
ATOM     19  N1  SPM d          -6.054   0.502  17.770  0.00  0.00    -0.079 N 
ATOM     20  H1  SPM d          -5.215   0.357  17.229  0.00  0.00     0.274 HD
ATOM     21  H2  SPM d          -6.501  -0.385  17.941  0.00  0.00     0.274 HD
ATOM     22  H3  SPM d          -5.817   0.933  18.649  0.00  0.00     0.274 HD
ENDBRANCH  16  19
ENDBRANCH  13  16
ENDBRANCH  10  13
ENDBRANCH   7  10
ENDBRANCH   4   7
ENDBRANCH   1   4
BRANCH   1  23
ATOM     23  C8  SPM d          -2.483   5.449  14.436  0.00  0.00    -0.041 C 
ATOM     24  H16 SPM d          -1.613   5.886  14.947  0.00  0.00     0.035 H 
ATOM     25  H17 SPM d          -3.341   6.132  14.524  0.00  0.00     0.035 H 
BRANCH  23  26
ATOM     26  C9  SPM d          -2.163   5.206  12.986  0.00  0.00     0.082 C 
ATOM     27  H18 SPM d          -2.642   4.271  12.661  0.00  0.00     0.075 H 
ATOM     28  H19 SPM d          -1.073   5.122  12.863  0.00  0.00     0.075 H 
BRANCH  26  29
ATOM     29  N10 SPM d          -2.651   6.298  12.178  0.00  0.00    -0.075 N 
ATOM     30  H20 SPM d          -3.066   5.872  11.364  0.00  0.00     0.277 HD
ATOM     31  H21 SPM d          -1.834   6.821  11.904  0.00  0.00     0.277 HD
BRANCH  29  32
ATOM     32  C11 SPM d          -3.599   7.267  12.637  0.00  0.00     0.083 C 
ATOM     33  H22 SPM d          -3.267   8.272  12.338  0.00  0.00     0.075 H 
ATOM     34  H23 SPM d          -3.671   7.216  13.734  0.00  0.00     0.075 H 
BRANCH  32  35
ATOM     35  C12 SPM d          -4.958   6.986  12.031  0.00  0.00    -0.020 C 
ATOM     36  H24 SPM d          -4.855   6.178  11.292  0.00  0.00     0.037 H 
ATOM     37  H25 SPM d          -5.317   7.898  11.530  0.00  0.00     0.037 H 
BRANCH  35  38
ATOM     38  C13 SPM d          -5.988   6.564  13.077  0.00  0.00     0.081 C 
ATOM     39  H26 SPM d          -5.626   6.854  14.074  0.00  0.00     0.075 H 
ATOM     40  H27 SPM d          -6.114   5.472  13.036  0.00  0.00     0.075 H 
BRANCH  38  41
ATOM     41  N14 SPM d          -7.268   7.198  12.837  0.00  0.00    -0.079 N 
ATOM     42  H28 SPM d          -7.200   8.181  13.046  0.00  0.00     0.274 HD
ATOM     43  H29 SPM d          -7.968   6.776  13.427  0.00  0.00     0.274 HD
ATOM     44  H30 SPM d          -7.527   7.076  11.870  0.00  0.00     0.274 HD
ENDBRANCH  38  41
ENDBRANCH  35  38
ENDBRANCH  32  35
ENDBRANCH  29  32
ENDBRANCH  26  29
ENDBRANCH  23  26
ENDBRANCH   1  23
TORSDOF 13
ENDMDL
MODEL 10
REMARK VINA RESULT:      -2.5      1.776      5.090
REMARK  13 active torsions:
REMARK  status: ('A' for Active; 'I' for Inactive)
REMARK    1  A    between atoms: N1_1  and  C2_2 
REMARK    2  A    between atoms: C2_2  and  C3_3 
REMARK    3  A    between atoms: C3_3  and  C4_4 
REMARK    4  A    between atoms: C4_4  and  N5_5 
REMARK    5  A    between atoms: N5_5  and  C6_6 
REMARK    6  A    between atoms: C6_6  and  C7_7 
REMARK    7  A    between atoms: C7_7  and  C8_8 
REMARK    8  A    between atoms: C8_8  and  C9_9 
REMARK    9  A    between atoms: C9_9  and  N10_10 
REMARK   10  A    between atoms: N10_10  and  C11_11 
REMARK   11  A    between atoms: C11_11  and  C12_12 
REMARK   12  A    between atoms: C12_12  and  C13_13 
REMARK   13  A    between atoms: C13_13  and  N14_14 
ROOT
ATOM      1  C7  SPM d          -5.981   4.692  14.301  0.00  0.00    -0.041 C 
ATOM      2  H14 SPM d          -6.047   4.000  13.448  0.00  0.00     0.035 H 
ATOM      3  H15 SPM d          -6.924   5.251  14.393  0.00  0.00     0.035 H 
ENDROOT
BRANCH   1   4
ATOM      4  C6  SPM d          -4.808   5.636  14.139  0.00  0.00     0.082 C 
ATOM      5  H12 SPM d          -5.186   6.667  14.216  0.00  0.00     0.075 H 
ATOM      6  H13 SPM d          -4.099   5.444  14.958  0.00  0.00     0.075 H 
BRANCH   4   7
ATOM      7  N5  SPM d          -4.091   5.511  12.882  0.00  0.00    -0.075 N 
ATOM      8  H10 SPM d          -4.682   4.994  12.249  0.00  0.00     0.277 HD
ATOM      9  H11 SPM d          -3.948   6.442  12.523  0.00  0.00     0.277 HD
BRANCH   7  10
ATOM     10  C4  SPM d          -2.805   4.854  12.901  0.00  0.00     0.083 C 
ATOM     11  H8  SPM d          -2.041   5.591  12.611  0.00  0.00     0.075 H 
ATOM     12  H9  SPM d          -2.612   4.511  13.928  0.00  0.00     0.075 H 
BRANCH  10  13
ATOM     13  C3  SPM d          -2.685   3.648  11.965  0.00  0.00    -0.020 C 
ATOM     14  H6  SPM d          -2.451   4.005  10.951  0.00  0.00     0.037 H 
ATOM     15  H7  SPM d          -1.872   2.999  12.322  0.00  0.00     0.037 H 
BRANCH  13  16
ATOM     16  C2  SPM d          -3.968   2.847  11.917  0.00  0.00     0.081 C 
ATOM     17  H4  SPM d          -4.804   3.456  12.290  0.00  0.00     0.075 H 
ATOM     18  H5  SPM d          -4.175   2.535  10.883  0.00  0.00     0.075 H 
BRANCH  16  19
ATOM     19  N1  SPM d          -3.795   1.686  12.755  0.00  0.00    -0.079 N 
ATOM     20  H1  SPM d          -3.289   0.977  12.247  0.00  0.00     0.274 HD
ATOM     21  H2  SPM d          -4.698   1.327  13.022  0.00  0.00     0.274 HD
ATOM     22  H3  SPM d          -3.278   1.942  13.581  0.00  0.00     0.274 HD
ENDBRANCH  16  19
ENDBRANCH  13  16
ENDBRANCH  10  13
ENDBRANCH   7  10
ENDBRANCH   4   7
ENDBRANCH   1   4
BRANCH   1  23
ATOM     23  C8  SPM d          -5.670   3.941  15.583  0.00  0.00    -0.041 C 
ATOM     24  H16 SPM d          -4.708   4.278  15.995  0.00  0.00     0.035 H 
ATOM     25  H17 SPM d          -5.626   2.859  15.388  0.00  0.00     0.035 H 
BRANCH  23  26
ATOM     26  C9  SPM d          -6.782   4.247  16.548  0.00  0.00     0.082 C 
ATOM     27  H18 SPM d          -7.699   4.476  15.985  0.00  0.00     0.075 H 
ATOM     28  H19 SPM d          -6.502   5.117  17.162  0.00  0.00     0.075 H 
BRANCH  26  29
ATOM     29  N10 SPM d          -7.021   3.114  17.409  0.00  0.00    -0.075 N 
ATOM     30  H20 SPM d          -7.693   2.539  16.925  0.00  0.00     0.277 HD
ATOM     31  H21 SPM d          -7.440   3.489  18.246  0.00  0.00     0.277 HD
BRANCH  29  32
ATOM     32  C11 SPM d          -5.994   2.221  17.855  0.00  0.00     0.083 C 
ATOM     33  H22 SPM d          -5.987   2.192  18.954  0.00  0.00     0.075 H 
ATOM     34  H23 SPM d          -5.018   2.578  17.491  0.00  0.00     0.075 H 
BRANCH  32  35
ATOM     35  C12 SPM d          -6.252   0.829  17.317  0.00  0.00    -0.020 C 
ATOM     36  H24 SPM d          -7.274   0.790  16.912  0.00  0.00     0.037 H 
ATOM     37  H25 SPM d          -6.158   0.108  18.143  0.00  0.00     0.037 H 
BRANCH  35  38
ATOM     38  C13 SPM d          -5.273   0.439  16.212  0.00  0.00     0.081 C 
ATOM     39  H26 SPM d          -5.754   0.594  15.235  0.00  0.00     0.075 H 
ATOM     40  H27 SPM d          -5.008  -0.623  16.325  0.00  0.00     0.075 H 
BRANCH  38  41
ATOM     41  N14 SPM d          -4.066   1.237  16.276  0.00  0.00    -0.079 N 
ATOM     42  H28 SPM d          -3.984   1.788  15.436  0.00  0.00     0.274 HD
ATOM     43  H29 SPM d          -3.266   0.631  16.360  0.00  0.00     0.274 HD
ATOM     44  H30 SPM d          -4.110   1.848  17.076  0.00  0.00     0.274 HD
ENDBRANCH  38  41
ENDBRANCH  35  38
ENDBRANCH  32  35
ENDBRANCH  29  32
ENDBRANCH  26  29
ENDBRANCH  23  26
ENDBRANCH   1  23
TORSDOF 13
ENDMDL
