MODEL 1
REMARK VINA RESULT:      -6.7      0.000      0.000
REMARK  17 active torsions:
REMARK  status: ('A' for Active; 'I' for Inactive)
REMARK    1  A    between atoms: C1_1  and  C2_4 
REMARK    2  A    between atoms: C2_4  and  C3_5 
REMARK    3  A    between atoms: C3_5  and  C4_6 
REMARK    4  A    between atoms: C4_6  and  C5_7 
REMARK    5  A    between atoms: C5_7  and  C6_8 
REMARK    6  A    between atoms: C6_8  and  C7_9 
REMARK    7  A    between atoms: C7_9  and  C8_10 
REMARK    8  A    between atoms: C8_10  and  C9_11 
REMARK    9  A    between atoms: C9_11  and  C10_12 
REMARK   10  A    between atoms: C10_12  and  C11_13 
REMARK   11  A    between atoms: C11_13  and  C12_14 
REMARK   12  A    between atoms: C12_14  and  C13_15 
REMARK   13  A    between atoms: C13_15  and  C14_16 
REMARK   14  A    between atoms: C14_16  and  C15_17 
REMARK   15  A    between atoms: C15_17  and  C16_18 
REMARK   16  A    between atoms: C16_18  and  C17_19 
REMARK   17  A    between atoms: C17_19  and  C18_20 
ROOT
ATOM      1  C10 STE d          -2.453  13.572  19.357  0.00  0.00    -0.065 C 
ATOM      2  H17 STE d          -1.656  14.262  19.041  0.00  0.00     0.033 H 
ATOM      3  H18 STE d          -2.903  13.935  20.292  0.00  0.00     0.033 H 
ENDROOT
BRANCH   1   4
ATOM      4  C9  STE d          -1.890  12.171  19.552  0.00  0.00    -0.065 C 
ATOM      5  H15 STE d          -0.791  12.216  19.578  0.00  0.00     0.033 H 
ATOM      6  H16 STE d          -2.262  11.752  20.499  0.00  0.00     0.033 H 
BRANCH   4   7
ATOM      7  C8  STE d          -2.336  11.290  18.396  0.00  0.00    -0.065 C 
ATOM      8  H13 STE d          -3.395  11.021  18.521  0.00  0.00     0.033 H 
ATOM      9  H14 STE d          -2.204  11.828  17.446  0.00  0.00     0.033 H 
BRANCH   7  10
ATOM     10  C7  STE d          -1.488  10.042  18.397  0.00  0.00    -0.065 C 
ATOM     11  H11 STE d          -1.984   9.271  17.789  0.00  0.00     0.033 H 
ATOM     12  H12 STE d          -0.506  10.276  17.962  0.00  0.00     0.033 H 
BRANCH  10  13
ATOM     13  C6  STE d          -1.290   9.507  19.810  0.00  0.00    -0.065 C 
ATOM     14  H9  STE d          -0.214   9.407  20.012  0.00  0.00     0.033 H 
ATOM     15  H10 STE d          -1.735  10.210  20.530  0.00  0.00     0.033 H 
BRANCH  13  16
ATOM     16  C5  STE d          -1.959   8.145  19.958  0.00  0.00    -0.065 C 
ATOM     17  H7  STE d          -2.050   7.685  18.963  0.00  0.00     0.033 H 
ATOM     18  H8  STE d          -1.329   7.509  20.599  0.00  0.00     0.033 H 
BRANCH  16  19
ATOM     19  C4  STE d          -3.342   8.248  20.578  0.00  0.00    -0.065 C 
ATOM     20  H5  STE d          -3.479   7.413  21.281  0.00  0.00     0.033 H 
ATOM     21  H6  STE d          -3.420   9.202  21.120  0.00  0.00     0.033 H 
BRANCH  19  22
ATOM     22  C3  STE d          -4.442   8.189  19.521  0.00  0.00    -0.056 C 
ATOM     23  H3  STE d          -5.404   7.992  20.017  0.00  0.00     0.033 H 
ATOM     24  H4  STE d          -4.489   9.158  19.001  0.00  0.00     0.033 H 
BRANCH  22  25
ATOM     25  C2  STE d          -4.179   7.089  18.496  0.00  0.00     0.016 C 
ATOM     26  H1  STE d          -4.361   7.477  17.484  0.00  0.00     0.049 H 
ATOM     27  H2  STE d          -3.135   6.752  18.578  0.00  0.00     0.049 H 
BRANCH  25  28
ATOM     28  C1  STE d          -5.105   5.933  18.768  0.00  0.00     0.172 C 
ATOM     29  O1  STE d          -4.677   4.990  19.479  0.00  0.00    -0.648 OA
ATOM     30  O2  STE d          -6.246   5.945  18.258  0.00  0.00    -0.648 OA
ENDBRANCH  25  28
ENDBRANCH  22  25
ENDBRANCH  19  22
ENDBRANCH  16  19
ENDBRANCH  13  16
ENDBRANCH  10  13
ENDBRANCH   7  10
ENDBRANCH   4   7
ENDBRANCH   1   4
BRANCH   1  31
ATOM     31  C11 STE d          -3.508  13.459  18.275  0.00  0.00    -0.065 C 
ATOM     32  H19 STE d          -4.341  12.836  18.631  0.00  0.00     0.033 H 
ATOM     33  H20 STE d          -3.070  13.004  17.373  0.00  0.00     0.033 H 
BRANCH  31  34
ATOM     34  C12 STE d          -4.009  14.848  17.955  0.00  0.00    -0.065 C 
ATOM     35  H21 STE d          -4.926  15.054  18.526  0.00  0.00     0.033 H 
ATOM     36  H22 STE d          -4.222  14.928  16.879  0.00  0.00     0.033 H 
BRANCH  34  37
ATOM     37  C13 STE d          -2.941  15.832  18.336  0.00  0.00    -0.065 C 
ATOM     38  H23 STE d          -2.058  15.666  17.701  0.00  0.00     0.033 H 
ATOM     39  H24 STE d          -2.671  15.676  19.391  0.00  0.00     0.033 H 
BRANCH  37  40
ATOM     40  C14 STE d          -3.418  17.262  18.154  0.00  0.00    -0.065 C 
ATOM     41  H25 STE d          -2.626  17.843  17.659  0.00  0.00     0.033 H 
ATOM     42  H26 STE d          -3.628  17.698  19.142  0.00  0.00     0.033 H 
BRANCH  40  43
ATOM     43  C15 STE d          -4.686  17.326  17.304  0.00  0.00    -0.065 C 
ATOM     44  H27 STE d          -5.561  17.497  17.947  0.00  0.00     0.033 H 
ATOM     45  H28 STE d          -4.816  16.383  16.753  0.00  0.00     0.033 H 
BRANCH  43  46
ATOM     46  C16 STE d          -4.525  18.476  16.331  0.00  0.00    -0.065 C 
ATOM     47  H29 STE d          -3.682  19.101  16.662  0.00  0.00     0.033 H 
ATOM     48  H30 STE d          -5.449  19.073  16.337  0.00  0.00     0.033 H 
BRANCH  46  49
ATOM     49  C17 STE d          -4.258  18.014  14.922  0.00  0.00    -0.069 C 
ATOM     50  H31 STE d          -3.204  17.709  14.845  0.00  0.00     0.032 H 
ATOM     51  H32 STE d          -4.450  18.850  14.234  0.00  0.00     0.032 H 
BRANCH  49  52
ATOM     52  C18 STE d          -5.131  16.845  14.518  0.00  0.00    -0.077 C 
ATOM     53  H33 STE d          -6.144  16.987  14.923  0.00  0.00     0.027 H 
ATOM     54  H34 STE d          -4.704  15.913  14.919  0.00  0.00     0.027 H 
ATOM     55  H35 STE d          -5.180  16.785  13.421  0.00  0.00     0.027 H 
ENDBRANCH  49  52
ENDBRANCH  46  49
ENDBRANCH  43  46
ENDBRANCH  40  43
ENDBRANCH  37  40
ENDBRANCH  34  37
ENDBRANCH  31  34
ENDBRANCH   1  31
TORSDOF 17
ENDMDL
MODEL 2
REMARK VINA RESULT:      -6.5      1.938      2.436
REMARK  17 active torsions:
REMARK  status: ('A' for Active; 'I' for Inactive)
REMARK    1  A    between atoms: C1_1  and  C2_4 
REMARK    2  A    between atoms: C2_4  and  C3_5 
REMARK    3  A    between atoms: C3_5  and  C4_6 
REMARK    4  A    between atoms: C4_6  and  C5_7 
REMARK    5  A    between atoms: C5_7  and  C6_8 
REMARK    6  A    between atoms: C6_8  and  C7_9 
REMARK    7  A    between atoms: C7_9  and  C8_10 
REMARK    8  A    between atoms: C8_10  and  C9_11 
REMARK    9  A    between atoms: C9_11  and  C10_12 
REMARK   10  A    between atoms: C10_12  and  C11_13 
REMARK   11  A    between atoms: C11_13  and  C12_14 
REMARK   12  A    between atoms: C12_14  and  C13_15 
REMARK   13  A    between atoms: C13_15  and  C14_16 
REMARK   14  A    between atoms: C14_16  and  C15_17 
REMARK   15  A    between atoms: C15_17  and  C16_18 
REMARK   16  A    between atoms: C16_18  and  C17_19 
REMARK   17  A    between atoms: C17_19  and  C18_20 
ROOT
ATOM      1  C10 STE d          -3.893  13.455  18.255  0.00  0.00    -0.065 C 
ATOM      2  H17 STE d          -4.949  13.656  18.491  0.00  0.00     0.033 H 
ATOM      3  H18 STE d          -3.781  13.308  17.171  0.00  0.00     0.033 H 
ENDROOT
BRANCH   1   4
ATOM      4  C9  STE d          -3.409  12.223  19.008  0.00  0.00    -0.065 C 
ATOM      5  H15 STE d          -4.210  11.858  19.669  0.00  0.00     0.033 H 
ATOM      6  H16 STE d          -3.140  11.435  18.290  0.00  0.00     0.033 H 
BRANCH   4   7
ATOM      7  C8  STE d          -2.192  12.593  19.838  0.00  0.00    -0.065 C 
ATOM      8  H13 STE d          -1.781  13.552  19.489  0.00  0.00     0.033 H 
ATOM      9  H14 STE d          -2.476  12.680  20.898  0.00  0.00     0.033 H 
BRANCH   7  10
ATOM     10  C7  STE d          -1.158  11.506  19.675  0.00  0.00    -0.065 C 
ATOM     11  H11 STE d          -0.306  11.904  19.104  0.00  0.00     0.033 H 
ATOM     12  H12 STE d          -0.816  11.186  20.670  0.00  0.00     0.033 H 
BRANCH  10  13
ATOM     13  C6  STE d          -1.731  10.303  18.936  0.00  0.00    -0.065 C 
ATOM     14  H9  STE d          -2.781  10.502  18.677  0.00  0.00     0.033 H 
ATOM     15  H10 STE d          -1.152  10.134  18.016  0.00  0.00     0.033 H 
BRANCH  13  16
ATOM     16  C5  STE d          -1.656   9.059  19.814  0.00  0.00    -0.065 C 
ATOM     17  H7  STE d          -1.298   8.216  19.204  0.00  0.00     0.033 H 
ATOM     18  H8  STE d          -0.945   9.246  20.633  0.00  0.00     0.033 H 
BRANCH  16  19
ATOM     19  C4  STE d          -3.005   8.694  20.409  0.00  0.00    -0.065 C 
ATOM     20  H5  STE d          -3.252   9.415  21.201  0.00  0.00     0.033 H 
ATOM     21  H6  STE d          -3.769   8.742  19.618  0.00  0.00     0.033 H 
BRANCH  19  22
ATOM     22  C3  STE d          -2.999   7.288  21.005  0.00  0.00    -0.056 C 
ATOM     23  H3  STE d          -2.476   7.312  21.972  0.00  0.00     0.033 H 
ATOM     24  H4  STE d          -4.039   6.962  21.159  0.00  0.00     0.033 H 
BRANCH  22  25
ATOM     25  C2  STE d          -2.298   6.292  20.086  0.00  0.00     0.016 C 
ATOM     26  H1  STE d          -3.046   5.649  19.600  0.00  0.00     0.049 H 
ATOM     27  H2  STE d          -1.728   6.836  19.318  0.00  0.00     0.049 H 
BRANCH  25  28
ATOM     28  C1  STE d          -1.360   5.444  20.905  0.00  0.00     0.172 C 
ATOM     29  O1  STE d          -1.855   4.528  21.607  0.00  0.00    -0.648 OA
ATOM     30  O2  STE d          -0.137   5.702  20.875  0.00  0.00    -0.648 OA
ENDBRANCH  25  28
ENDBRANCH  22  25
ENDBRANCH  19  22
ENDBRANCH  16  19
ENDBRANCH  13  16
ENDBRANCH  10  13
ENDBRANCH   7  10
ENDBRANCH   4   7
ENDBRANCH   1   4
BRANCH   1  31
ATOM     31  C11 STE d          -3.024  14.606  18.722  0.00  0.00    -0.065 C 
ATOM     32  H19 STE d          -2.058  14.221  19.080  0.00  0.00     0.033 H 
ATOM     33  H20 STE d          -3.528  15.147  19.536  0.00  0.00     0.033 H 
BRANCH  31  34
ATOM     34  C12 STE d          -2.800  15.535  17.551  0.00  0.00    -0.065 C 
ATOM     35  H21 STE d          -3.498  15.284  16.738  0.00  0.00     0.033 H 
ATOM     36  H22 STE d          -1.766  15.437  17.190  0.00  0.00     0.033 H 
BRANCH  34  37
ATOM     37  C13 STE d          -3.045  16.942  18.014  0.00  0.00    -0.065 C 
ATOM     38  H23 STE d          -2.342  17.615  17.502  0.00  0.00     0.033 H 
ATOM     39  H24 STE d          -2.880  16.995  19.100  0.00  0.00     0.033 H 
BRANCH  37  40
ATOM     40  C14 STE d          -4.465  17.385  17.707  0.00  0.00    -0.065 C 
ATOM     41  H25 STE d          -4.838  17.993  18.544  0.00  0.00     0.033 H 
ATOM     42  H26 STE d          -5.100  16.495  17.589  0.00  0.00     0.033 H 
BRANCH  40  43
ATOM     43  C15 STE d          -4.527  18.214  16.425  0.00  0.00    -0.065 C 
ATOM     44  H27 STE d          -3.534  18.251  15.953  0.00  0.00     0.033 H 
ATOM     45  H28 STE d          -4.864  19.235  16.654  0.00  0.00     0.033 H 
BRANCH  43  46
ATOM     46  C16 STE d          -5.516  17.539  15.496  0.00  0.00    -0.065 C 
ATOM     47  H29 STE d          -6.258  18.284  15.171  0.00  0.00     0.033 H 
ATOM     48  H30 STE d          -6.022  16.733  16.047  0.00  0.00     0.033 H 
BRANCH  46  49
ATOM     49  C17 STE d          -4.858  16.950  14.275  0.00  0.00    -0.069 C 
ATOM     50  H31 STE d          -3.811  17.284  14.243  0.00  0.00     0.032 H 
ATOM     51  H32 STE d          -5.386  17.311  13.380  0.00  0.00     0.032 H 
BRANCH  49  52
ATOM     52  C18 STE d          -4.884  15.436  14.274  0.00  0.00    -0.077 C 
ATOM     53  H33 STE d          -3.889  15.052  14.540  0.00  0.00     0.027 H 
ATOM     54  H34 STE d          -5.160  15.075  13.272  0.00  0.00     0.027 H 
ATOM     55  H35 STE d          -5.622  15.081  15.008  0.00  0.00     0.027 H 
ENDBRANCH  49  52
ENDBRANCH  46  49
ENDBRANCH  43  46
ENDBRANCH  40  43
ENDBRANCH  37  40
ENDBRANCH  34  37
ENDBRANCH  31  34
ENDBRANCH   1  31
TORSDOF 17
ENDMDL
MODEL 3
REMARK VINA RESULT:      -6.4      1.972      2.633
REMARK  17 active torsions:
REMARK  status: ('A' for Active; 'I' for Inactive)
REMARK    1  A    between atoms: C1_1  and  C2_4 
REMARK    2  A    between atoms: C2_4  and  C3_5 
REMARK    3  A    between atoms: C3_5  and  C4_6 
REMARK    4  A    between atoms: C4_6  and  C5_7 
REMARK    5  A    between atoms: C5_7  and  C6_8 
REMARK    6  A    between atoms: C6_8  and  C7_9 
REMARK    7  A    between atoms: C7_9  and  C8_10 
REMARK    8  A    between atoms: C8_10  and  C9_11 
REMARK    9  A    between atoms: C9_11  and  C10_12 
REMARK   10  A    between atoms: C10_12  and  C11_13 
REMARK   11  A    between atoms: C11_13  and  C12_14 
REMARK   12  A    between atoms: C12_14  and  C13_15 
REMARK   13  A    between atoms: C13_15  and  C14_16 
REMARK   14  A    between atoms: C14_16  and  C15_17 
REMARK   15  A    between atoms: C15_17  and  C16_18 
REMARK   16  A    between atoms: C16_18  and  C17_19 
REMARK   17  A    between atoms: C17_19  and  C18_20 
ROOT
ATOM      1  C10 STE d          -2.629  12.368  18.769  0.00  0.00    -0.065 C 
ATOM      2  H17 STE d          -1.913  12.952  18.171  0.00  0.00     0.033 H 
ATOM      3  H18 STE d          -2.315  12.371  19.823  0.00  0.00     0.033 H 
ENDROOT
BRANCH   1   4
ATOM      4  C9  STE d          -2.710  10.940  18.247  0.00  0.00    -0.065 C 
ATOM      5  H15 STE d          -3.474  10.384  18.811  0.00  0.00     0.033 H 
ATOM      6  H16 STE d          -2.979  10.952  17.180  0.00  0.00     0.033 H 
BRANCH   4   7
ATOM      7  C8  STE d          -1.358  10.269  18.423  0.00  0.00    -0.065 C 
ATOM      8  H13 STE d          -1.200   9.534  17.620  0.00  0.00     0.033 H 
ATOM      9  H14 STE d          -0.560  11.026  18.391  0.00  0.00     0.033 H 
BRANCH   7  10
ATOM     10  C7  STE d          -1.346   9.572  19.761  0.00  0.00    -0.065 C 
ATOM     11  H11 STE d          -0.510   8.857  19.786  0.00  0.00     0.033 H 
ATOM     12  H12 STE d          -1.210  10.322  20.554  0.00  0.00     0.033 H 
BRANCH  10  13
ATOM     13  C6  STE d          -2.648   8.821  20.007  0.00  0.00    -0.065 C 
ATOM     14  H9  STE d          -3.158   9.254  20.881  0.00  0.00     0.033 H 
ATOM     15  H10 STE d          -3.294   8.914  19.122  0.00  0.00     0.033 H 
BRANCH  13  16
ATOM     16  C5  STE d          -2.366   7.346  20.271  0.00  0.00    -0.065 C 
ATOM     17  H7  STE d          -2.742   7.086  21.271  0.00  0.00     0.033 H 
ATOM     18  H8  STE d          -2.891   6.744  19.514  0.00  0.00     0.033 H 
BRANCH  16  19
ATOM     19  C4  STE d          -0.882   7.024  20.208  0.00  0.00    -0.065 C 
ATOM     20  H5  STE d          -0.528   7.179  19.178  0.00  0.00     0.033 H 
ATOM     21  H6  STE d          -0.341   7.701  20.887  0.00  0.00     0.033 H 
BRANCH  19  22
ATOM     22  C3  STE d          -0.597   5.582  20.618  0.00  0.00    -0.056 C 
ATOM     23  H3  STE d          -0.507   4.964  19.712  0.00  0.00     0.033 H 
ATOM     24  H4  STE d           0.350   5.551  21.178  0.00  0.00     0.033 H 
BRANCH  22  25
ATOM     25  C2  STE d          -1.711   5.017  21.496  0.00  0.00     0.016 C 
ATOM     26  H1  STE d          -1.384   5.009  22.546  0.00  0.00     0.049 H 
ATOM     27  H2  STE d          -2.610   5.643  21.397  0.00  0.00     0.049 H 
BRANCH  25  28
ATOM     28  C1  STE d          -2.021   3.612  21.052  0.00  0.00     0.172 C 
ATOM     29  O1  STE d          -2.937   3.450  20.208  0.00  0.00    -0.648 OA
ATOM     30  O2  STE d          -1.377   2.667  21.557  0.00  0.00    -0.648 OA
ENDBRANCH  25  28
ENDBRANCH  22  25
ENDBRANCH  19  22
ENDBRANCH  16  19
ENDBRANCH  13  16
ENDBRANCH  10  13
ENDBRANCH   7  10
ENDBRANCH   4   7
ENDBRANCH   1   4
BRANCH   1  31
ATOM     31  C11 STE d          -4.022  12.949  18.634  0.00  0.00    -0.065 C 
ATOM     32  H19 STE d          -4.415  13.208  19.627  0.00  0.00     0.033 H 
ATOM     33  H20 STE d          -4.687  12.214  18.157  0.00  0.00     0.033 H 
BRANCH  31  34
ATOM     34  C12 STE d          -3.936  14.191  17.778  0.00  0.00    -0.065 C 
ATOM     35  H21 STE d          -4.871  14.765  17.858  0.00  0.00     0.033 H 
ATOM     36  H22 STE d          -3.769  13.909  16.728  0.00  0.00     0.033 H 
BRANCH  34  37
ATOM     37  C13 STE d          -2.787  15.023  18.269  0.00  0.00    -0.065 C 
ATOM     38  H23 STE d          -1.909  14.833  17.634  0.00  0.00     0.033 H 
ATOM     39  H24 STE d          -2.558  14.738  19.307  0.00  0.00     0.033 H 
BRANCH  37  40
ATOM     40  C14 STE d          -3.118  16.504  18.224  0.00  0.00    -0.065 C 
ATOM     41  H25 STE d          -2.392  17.013  17.573  0.00  0.00     0.033 H 
ATOM     42  H26 STE d          -3.050  16.917  19.242  0.00  0.00     0.033 H 
BRANCH  40  43
ATOM     43  C15 STE d          -4.526  16.747  17.683  0.00  0.00    -0.065 C 
ATOM     44  H27 STE d          -5.189  17.076  18.496  0.00  0.00     0.033 H 
ATOM     45  H28 STE d          -4.922  15.822  17.239  0.00  0.00     0.033 H 
BRANCH  43  46
ATOM     46  C16 STE d          -4.427  17.827  16.626  0.00  0.00    -0.065 C 
ATOM     47  H29 STE d          -3.654  18.548  16.931  0.00  0.00     0.033 H 
ATOM     48  H30 STE d          -5.399  18.339  16.554  0.00  0.00     0.033 H 
BRANCH  46  49
ATOM     49  C17 STE d          -4.068  17.281  15.268  0.00  0.00    -0.069 C 
ATOM     50  H31 STE d          -3.657  16.268  15.393  0.00  0.00     0.032 H 
ATOM     51  H32 STE d          -3.307  17.933  14.815  0.00  0.00     0.032 H 
BRANCH  49  52
ATOM     52  C18 STE d          -5.260  17.210  14.336  0.00  0.00    -0.077 C 
ATOM     53  H33 STE d          -6.141  16.861  14.894  0.00  0.00     0.027 H 
ATOM     54  H34 STE d          -5.043  16.507  13.518  0.00  0.00     0.027 H 
ATOM     55  H35 STE d          -5.461  18.208  13.921  0.00  0.00     0.027 H 
ENDBRANCH  49  52
ENDBRANCH  46  49
ENDBRANCH  43  46
ENDBRANCH  40  43
ENDBRANCH  37  40
ENDBRANCH  34  37
ENDBRANCH  31  34
ENDBRANCH   1  31
TORSDOF 17
ENDMDL
MODEL 4
REMARK VINA RESULT:      -6.2      4.190      9.535
REMARK  17 active torsions:
REMARK  status: ('A' for Active; 'I' for Inactive)
REMARK    1  A    between atoms: C1_1  and  C2_4 
REMARK    2  A    between atoms: C2_4  and  C3_5 
REMARK    3  A    between atoms: C3_5  and  C4_6 
REMARK    4  A    between atoms: C4_6  and  C5_7 
REMARK    5  A    between atoms: C5_7  and  C6_8 
REMARK    6  A    between atoms: C6_8  and  C7_9 
REMARK    7  A    between atoms: C7_9  and  C8_10 
REMARK    8  A    between atoms: C8_10  and  C9_11 
REMARK    9  A    between atoms: C9_11  and  C10_12 
REMARK   10  A    between atoms: C10_12  and  C11_13 
REMARK   11  A    between atoms: C11_13  and  C12_14 
REMARK   12  A    between atoms: C12_14  and  C13_15 
REMARK   13  A    between atoms: C13_15  and  C14_16 
REMARK   14  A    between atoms: C14_16  and  C15_17 
REMARK   15  A    between atoms: C15_17  and  C16_18 
REMARK   16  A    between atoms: C16_18  and  C17_19 
REMARK   17  A    between atoms: C17_19  and  C18_20 
ROOT
ATOM      1  C10 STE d          -2.002  11.059  18.572  0.00  0.00    -0.065 C 
ATOM      2  H17 STE d          -1.728  11.469  17.588  0.00  0.00     0.033 H 
ATOM      3  H18 STE d          -3.096  10.968  18.639  0.00  0.00     0.033 H 
ENDROOT
BRANCH   1   4
ATOM      4  C9  STE d          -1.478  11.958  19.683  0.00  0.00    -0.065 C 
ATOM      5  H15 STE d          -1.406  11.384  20.619  0.00  0.00     0.033 H 
ATOM      6  H16 STE d          -0.483  12.340  19.410  0.00  0.00     0.033 H 
BRANCH   4   7
ATOM      7  C8  STE d          -2.436  13.123  19.873  0.00  0.00    -0.065 C 
ATOM      8  H13 STE d          -3.093  12.927  20.733  0.00  0.00     0.033 H 
ATOM      9  H14 STE d          -1.866  14.048  20.048  0.00  0.00     0.033 H 
BRANCH   7  10
ATOM     10  C7  STE d          -3.264  13.264  18.620  0.00  0.00    -0.065 C 
ATOM     11  H11 STE d          -3.143  12.359  18.006  0.00  0.00     0.033 H 
ATOM     12  H12 STE d          -4.322  13.378  18.901  0.00  0.00     0.033 H 
BRANCH  10  13
ATOM     13  C6  STE d          -2.834  14.477  17.804  0.00  0.00    -0.065 C 
ATOM     14  H9  STE d          -2.008  14.192  17.137  0.00  0.00     0.033 H 
ATOM     15  H10 STE d          -3.686  14.831  17.204  0.00  0.00     0.033 H 
BRANCH  13  16
ATOM     16  C5  STE d          -2.370  15.598  18.728  0.00  0.00    -0.065 C 
ATOM     17  H7  STE d          -2.655  15.347  19.760  0.00  0.00     0.033 H 
ATOM     18  H8  STE d          -1.275  15.682  18.660  0.00  0.00     0.033 H 
BRANCH  16  19
ATOM     19  C4  STE d          -2.989  16.937  18.363  0.00  0.00    -0.065 C 
ATOM     20  H5  STE d          -3.133  17.524  19.281  0.00  0.00     0.033 H 
ATOM     21  H6  STE d          -2.305  17.473  17.688  0.00  0.00     0.033 H 
BRANCH  19  22
ATOM     22  C3  STE d          -4.337  16.767  17.667  0.00  0.00    -0.056 C 
ATOM     23  H3  STE d          -4.251  15.973  16.911  0.00  0.00     0.033 H 
ATOM     24  H4  STE d          -5.091  16.482  18.415  0.00  0.00     0.033 H 
BRANCH  22  25
ATOM     25  C2  STE d          -4.781  18.057  16.982  0.00  0.00     0.016 C 
ATOM     26  H1  STE d          -5.832  18.263  17.231  0.00  0.00     0.049 H 
ATOM     27  H2  STE d          -4.153  18.892  17.326  0.00  0.00     0.049 H 
BRANCH  25  28
ATOM     28  C1  STE d          -4.637  17.897  15.492  0.00  0.00     0.172 C 
ATOM     29  O1  STE d          -5.097  16.854  14.965  0.00  0.00    -0.648 OA
ATOM     30  O2  STE d          -4.046  18.789  14.846  0.00  0.00    -0.648 OA
ENDBRANCH  25  28
ENDBRANCH  22  25
ENDBRANCH  19  22
ENDBRANCH  16  19
ENDBRANCH  13  16
ENDBRANCH  10  13
ENDBRANCH   7  10
ENDBRANCH   4   7
ENDBRANCH   1   4
BRANCH   1  31
ATOM     31  C11 STE d          -1.349   9.707  18.777  0.00  0.00    -0.065 C 
ATOM     32  H19 STE d          -0.307   9.842  19.102  0.00  0.00     0.033 H 
ATOM     33  H20 STE d          -1.369   9.137  17.836  0.00  0.00     0.033 H 
BRANCH  31  34
ATOM     34  C12 STE d          -2.124   8.963  19.840  0.00  0.00    -0.065 C 
ATOM     35  H21 STE d          -2.332   9.634  20.686  0.00  0.00     0.033 H 
ATOM     36  H22 STE d          -1.539   8.100  20.192  0.00  0.00     0.033 H 
BRANCH  34  37
ATOM     37  C13 STE d          -3.414   8.490  19.237  0.00  0.00    -0.065 C 
ATOM     38  H23 STE d          -3.218   8.110  18.224  0.00  0.00     0.033 H 
ATOM     39  H24 STE d          -4.115   9.336  19.183  0.00  0.00     0.033 H 
BRANCH  37  40
ATOM     40  C14 STE d          -4.039   7.383  20.068  0.00  0.00    -0.065 C 
ATOM     41  H25 STE d          -4.355   6.569  19.399  0.00  0.00     0.033 H 
ATOM     42  H26 STE d          -4.917   7.783  20.596  0.00  0.00     0.033 H 
BRANCH  40  43
ATOM     43  C15 STE d          -3.052   6.829  21.094  0.00  0.00    -0.065 C 
ATOM     44  H27 STE d          -3.570   6.631  22.044  0.00  0.00     0.033 H 
ATOM     45  H28 STE d          -2.241   7.551  21.263  0.00  0.00     0.033 H 
BRANCH  43  46
ATOM     46  C16 STE d          -2.488   5.539  20.533  0.00  0.00    -0.065 C 
ATOM     47  H29 STE d          -2.435   5.626  19.437  0.00  0.00     0.033 H 
ATOM     48  H30 STE d          -3.163   4.713  20.804  0.00  0.00     0.033 H 
BRANCH  46  49
ATOM     49  C17 STE d          -1.111   5.228  21.059  0.00  0.00    -0.069 C 
ATOM     50  H31 STE d          -1.013   4.138  21.168  0.00  0.00     0.032 H 
ATOM     51  H32 STE d          -0.992   5.708  22.042  0.00  0.00     0.032 H 
BRANCH  49  52
ATOM     52  C18 STE d          -0.013   5.724  20.143  0.00  0.00    -0.077 C 
ATOM     53  H33 STE d           0.852   6.041  20.745  0.00  0.00     0.027 H 
ATOM     54  H34 STE d          -0.382   6.578  19.556  0.00  0.00     0.027 H 
ATOM     55  H35 STE d           0.291   4.915  19.463  0.00  0.00     0.027 H 
ENDBRANCH  49  52
ENDBRANCH  46  49
ENDBRANCH  43  46
ENDBRANCH  40  43
ENDBRANCH  37  40
ENDBRANCH  34  37
ENDBRANCH  31  34
ENDBRANCH   1  31
TORSDOF 17
ENDMDL
MODEL 5
REMARK VINA RESULT:      -6.1      4.088      9.233
REMARK  17 active torsions:
REMARK  status: ('A' for Active; 'I' for Inactive)
REMARK    1  A    between atoms: C1_1  and  C2_4 
REMARK    2  A    between atoms: C2_4  and  C3_5 
REMARK    3  A    between atoms: C3_5  and  C4_6 
REMARK    4  A    between atoms: C4_6  and  C5_7 
REMARK    5  A    between atoms: C5_7  and  C6_8 
REMARK    6  A    between atoms: C6_8  and  C7_9 
REMARK    7  A    between atoms: C7_9  and  C8_10 
REMARK    8  A    between atoms: C8_10  and  C9_11 
REMARK    9  A    between atoms: C9_11  and  C10_12 
REMARK   10  A    between atoms: C10_12  and  C11_13 
REMARK   11  A    between atoms: C11_13  and  C12_14 
REMARK   12  A    between atoms: C12_14  and  C13_15 
REMARK   13  A    between atoms: C13_15  and  C14_16 
REMARK   14  A    between atoms: C14_16  and  C15_17 
REMARK   15  A    between atoms: C15_17  and  C16_18 
REMARK   16  A    between atoms: C16_18  and  C17_19 
REMARK   17  A    between atoms: C17_19  and  C18_20 
ROOT
ATOM      1  C10 STE d          -1.485   9.068  19.835  0.00  0.00    -0.065 C 
ATOM      2  H17 STE d          -0.785   9.183  20.676  0.00  0.00     0.033 H 
ATOM      3  H18 STE d          -1.151   8.240  19.191  0.00  0.00     0.033 H 
ENDROOT
BRANCH   1   4
ATOM      4  C9  STE d          -1.564  10.359  19.033  0.00  0.00    -0.065 C 
ATOM      5  H15 STE d          -0.909  10.287  18.152  0.00  0.00     0.033 H 
ATOM      6  H16 STE d          -2.601  10.528  18.706  0.00  0.00     0.033 H 
BRANCH   4   7
ATOM      7  C8  STE d          -1.113  11.517  19.909  0.00  0.00    -0.065 C 
ATOM      8  H13 STE d          -0.842  11.144  20.907  0.00  0.00     0.033 H 
ATOM      9  H14 STE d          -0.243  12.011  19.453  0.00  0.00     0.033 H 
BRANCH   7  10
ATOM     10  C7  STE d          -2.255  12.497  20.024  0.00  0.00    -0.065 C 
ATOM     11  H11 STE d          -2.850  12.251  20.916  0.00  0.00     0.033 H 
ATOM     12  H12 STE d          -1.845  13.513  20.125  0.00  0.00     0.033 H 
BRANCH  10  13
ATOM     13  C6  STE d          -3.156  12.445  18.797  0.00  0.00    -0.065 C 
ATOM     14  H9  STE d          -2.630  11.927  17.981  0.00  0.00     0.033 H 
ATOM     15  H10 STE d          -4.077  11.898  19.046  0.00  0.00     0.033 H 
BRANCH  13  16
ATOM     16  C5  STE d          -3.516  13.857  18.346  0.00  0.00    -0.065 C 
ATOM     17  H7  STE d          -3.808  13.826  17.286  0.00  0.00     0.033 H 
ATOM     18  H8  STE d          -4.363  14.216  18.950  0.00  0.00     0.033 H 
BRANCH  16  19
ATOM     19  C4  STE d          -2.355  14.825  18.505  0.00  0.00    -0.065 C 
ATOM     20  H5  STE d          -1.882  14.655  19.483  0.00  0.00     0.033 H 
ATOM     21  H6  STE d          -1.623  14.637  17.706  0.00  0.00     0.033 H 
BRANCH  19  22
ATOM     22  C3  STE d          -2.815  16.278  18.424  0.00  0.00    -0.056 C 
ATOM     23  H3  STE d          -2.846  16.700  19.439  0.00  0.00     0.033 H 
ATOM     24  H4  STE d          -2.097  16.845  17.813  0.00  0.00     0.033 H 
BRANCH  22  25
ATOM     25  C2  STE d          -4.201  16.394  17.796  0.00  0.00     0.016 C 
ATOM     26  H1  STE d          -4.495  15.424  17.370  0.00  0.00     0.049 H 
ATOM     27  H2  STE d          -4.929  16.693  18.564  0.00  0.00     0.049 H 
BRANCH  25  28
ATOM     28  C1  STE d          -4.161  17.433  16.706  0.00  0.00     0.172 C 
ATOM     29  O1  STE d          -4.563  18.590  16.981  0.00  0.00    -0.648 OA
ATOM     30  O2  STE d          -3.756  17.097  15.572  0.00  0.00    -0.648 OA
ENDBRANCH  25  28
ENDBRANCH  22  25
ENDBRANCH  19  22
ENDBRANCH  16  19
ENDBRANCH  13  16
ENDBRANCH  10  13
ENDBRANCH   7  10
ENDBRANCH   4   7
ENDBRANCH   1   4
BRANCH   1  31
ATOM     31  C11 STE d          -2.885   8.801  20.350  0.00  0.00    -0.065 C 
ATOM     32  H19 STE d          -3.206   9.627  21.001  0.00  0.00     0.033 H 
ATOM     33  H20 STE d          -2.900   7.859  20.918  0.00  0.00     0.033 H 
BRANCH  31  34
ATOM     34  C12 STE d          -3.815   8.696  19.163  0.00  0.00    -0.065 C 
ATOM     35  H21 STE d          -3.284   8.240  18.314  0.00  0.00     0.033 H 
ATOM     36  H22 STE d          -4.169   9.697  18.879  0.00  0.00     0.033 H 
BRANCH  34  37
ATOM     37  C13 STE d          -4.981   7.836  19.554  0.00  0.00    -0.065 C 
ATOM     38  H23 STE d          -5.843   8.482  19.778  0.00  0.00     0.033 H 
ATOM     39  H24 STE d          -4.714   7.256  20.449  0.00  0.00     0.033 H 
BRANCH  37  40
ATOM     40  C14 STE d          -5.360   6.878  18.439  0.00  0.00    -0.065 C 
ATOM     41  H25 STE d          -5.657   7.459  17.553  0.00  0.00     0.033 H 
ATOM     42  H26 STE d          -6.207   6.258  18.771  0.00  0.00     0.033 H 
BRANCH  40  43
ATOM     43  C15 STE d          -4.193   5.965  18.066  0.00  0.00    -0.065 C 
ATOM     44  H27 STE d          -3.300   6.568  17.843  0.00  0.00     0.033 H 
ATOM     45  H28 STE d          -4.455   5.361  17.185  0.00  0.00     0.033 H 
BRANCH  43  46
ATOM     46  C16 STE d          -3.925   5.062  19.252  0.00  0.00    -0.065 C 
ATOM     47  H29 STE d          -4.223   4.035  18.987  0.00  0.00     0.033 H 
ATOM     48  H30 STE d          -4.529   5.411  20.103  0.00  0.00     0.033 H 
BRANCH  46  49
ATOM     49  C17 STE d          -2.475   5.052  19.661  0.00  0.00    -0.069 C 
ATOM     50  H31 STE d          -1.946   5.839  19.103  0.00  0.00     0.032 H 
ATOM     51  H32 STE d          -2.044   4.072  19.411  0.00  0.00     0.032 H 
BRANCH  49  52
ATOM     52  C18 STE d          -2.287   5.300  21.143  0.00  0.00    -0.077 C 
ATOM     53  H33 STE d          -2.608   6.323  21.387  0.00  0.00     0.027 H 
ATOM     54  H34 STE d          -1.225   5.177  21.403  0.00  0.00     0.027 H 
ATOM     55  H35 STE d          -2.891   4.580  21.714  0.00  0.00     0.027 H 
ENDBRANCH  49  52
ENDBRANCH  46  49
ENDBRANCH  43  46
ENDBRANCH  40  43
ENDBRANCH  37  40
ENDBRANCH  34  37
ENDBRANCH  31  34
ENDBRANCH   1  31
TORSDOF 17
ENDMDL
MODEL 6
REMARK VINA RESULT:      -6.0      1.640      2.758
REMARK  17 active torsions:
REMARK  status: ('A' for Active; 'I' for Inactive)
REMARK    1  A    between atoms: C1_1  and  C2_4 
REMARK    2  A    between atoms: C2_4  and  C3_5 
REMARK    3  A    between atoms: C3_5  and  C4_6 
REMARK    4  A    between atoms: C4_6  and  C5_7 
REMARK    5  A    between atoms: C5_7  and  C6_8 
REMARK    6  A    between atoms: C6_8  and  C7_9 
REMARK    7  A    between atoms: C7_9  and  C8_10 
REMARK    8  A    between atoms: C8_10  and  C9_11 
REMARK    9  A    between atoms: C9_11  and  C10_12 
REMARK   10  A    between atoms: C10_12  and  C11_13 
REMARK   11  A    between atoms: C11_13  and  C12_14 
REMARK   12  A    between atoms: C12_14  and  C13_15 
REMARK   13  A    between atoms: C13_15  and  C14_16 
REMARK   14  A    between atoms: C14_16  and  C15_17 
REMARK   15  A    between atoms: C15_17  and  C16_18 
REMARK   16  A    between atoms: C16_18  and  C17_19 
REMARK   17  A    between atoms: C17_19  and  C18_20 
ROOT
ATOM      1  C10 STE d          -2.242  15.821  18.798  0.00  0.00    -0.065 C 
ATOM      2  H17 STE d          -1.191  15.673  18.505  0.00  0.00     0.033 H 
ATOM      3  H18 STE d          -2.286  16.457  19.696  0.00  0.00     0.033 H 
ENDROOT
BRANCH   1   4
ATOM      4  C9  STE d          -2.908  14.480  19.069  0.00  0.00    -0.065 C 
ATOM      5  H15 STE d          -3.029  14.341  20.154  0.00  0.00     0.033 H 
ATOM      6  H16 STE d          -3.895  14.454  18.584  0.00  0.00     0.033 H 
BRANCH   4   7
ATOM      7  C8  STE d          -2.036  13.369  18.508  0.00  0.00    -0.065 C 
ATOM      8  H13 STE d          -2.603  12.792  17.762  0.00  0.00     0.033 H 
ATOM      9  H14 STE d          -1.141  13.801  18.035  0.00  0.00     0.033 H 
BRANCH   7  10
ATOM     10  C7  STE d          -1.626  12.467  19.646  0.00  0.00    -0.065 C 
ATOM     11  H11 STE d          -0.732  11.899  19.349  0.00  0.00     0.033 H 
ATOM     12  H12 STE d          -1.391  13.085  20.525  0.00  0.00     0.033 H 
BRANCH  10  13
ATOM     13  C6  STE d          -2.737  11.491  20.008  0.00  0.00    -0.065 C 
ATOM     14  H9  STE d          -2.378  10.806  20.790  0.00  0.00     0.033 H 
ATOM     15  H10 STE d          -3.606  12.052  20.383  0.00  0.00     0.033 H 
BRANCH  13  16
ATOM     16  C5  STE d          -3.150  10.683  18.783  0.00  0.00    -0.065 C 
ATOM     17  H7  STE d          -4.249  10.651  18.734  0.00  0.00     0.033 H 
ATOM     18  H8  STE d          -2.757  11.178  17.883  0.00  0.00     0.033 H 
BRANCH  16  19
ATOM     19  C4  STE d          -2.622   9.258  18.829  0.00  0.00    -0.065 C 
ATOM     20  H5  STE d          -3.470   8.568  18.950  0.00  0.00     0.033 H 
ATOM     21  H6  STE d          -2.104   9.040  17.884  0.00  0.00     0.033 H 
BRANCH  19  22
ATOM     22  C3  STE d          -1.648   9.053  19.986  0.00  0.00    -0.056 C 
ATOM     23  H3  STE d          -0.705   9.570  19.755  0.00  0.00     0.033 H 
ATOM     24  H4  STE d          -2.085   9.479  20.901  0.00  0.00     0.033 H 
BRANCH  22  25
ATOM     25  C2  STE d          -1.357   7.573  20.218  0.00  0.00     0.016 C 
ATOM     26  H1  STE d          -0.892   7.143  19.319  0.00  0.00     0.049 H 
ATOM     27  H2  STE d          -0.673   7.461  21.073  0.00  0.00     0.049 H 
BRANCH  25  28
ATOM     28  C1  STE d          -2.650   6.858  20.509  0.00  0.00     0.172 C 
ATOM     29  O1  STE d          -2.946   5.865  19.800  0.00  0.00    -0.648 OA
ATOM     30  O2  STE d          -3.385   7.294  21.422  0.00  0.00    -0.648 OA
ENDBRANCH  25  28
ENDBRANCH  22  25
ENDBRANCH  19  22
ENDBRANCH  16  19
ENDBRANCH  13  16
ENDBRANCH  10  13
ENDBRANCH   7  10
ENDBRANCH   4   7
ENDBRANCH   1   4
BRANCH   1  31
ATOM     31  C11 STE d          -3.018  16.460  17.664  0.00  0.00    -0.065 C 
ATOM     32  H19 STE d          -3.848  15.804  17.365  0.00  0.00     0.033 H 
ATOM     33  H20 STE d          -2.352  16.624  16.804  0.00  0.00     0.033 H 
BRANCH  31  34
ATOM     34  C12 STE d          -3.562  17.784  18.149  0.00  0.00    -0.065 C 
ATOM     35  H21 STE d          -2.776  18.552  18.094  0.00  0.00     0.033 H 
ATOM     36  H22 STE d          -3.906  17.686  19.189  0.00  0.00     0.033 H 
BRANCH  34  37
ATOM     37  C13 STE d          -4.713  18.171  17.267  0.00  0.00    -0.065 C 
ATOM     38  H23 STE d          -5.582  18.410  17.896  0.00  0.00     0.033 H 
ATOM     39  H24 STE d          -4.957  17.326  16.607  0.00  0.00     0.033 H 
BRANCH  37  40
ATOM     40  C14 STE d          -4.373  19.381  16.415  0.00  0.00    -0.065 C 
ATOM     41  H25 STE d          -3.295  19.584  16.495  0.00  0.00     0.033 H 
ATOM     42  H26 STE d          -4.938  20.250  16.785  0.00  0.00     0.033 H 
BRANCH  40  43
ATOM     43  C15 STE d          -4.728  19.149  14.946  0.00  0.00    -0.065 C 
ATOM     44  H27 STE d          -4.254  19.918  14.319  0.00  0.00     0.033 H 
ATOM     45  H28 STE d          -5.818  19.187  14.813  0.00  0.00     0.033 H 
BRANCH  43  46
ATOM     46  C16 STE d          -4.208  17.778  14.565  0.00  0.00    -0.065 C 
ATOM     47  H29 STE d          -3.600  17.388  15.395  0.00  0.00     0.033 H 
ATOM     48  H30 STE d          -3.580  17.878  13.666  0.00  0.00     0.033 H 
BRANCH  46  49
ATOM     49  C17 STE d          -5.313  16.796  14.274  0.00  0.00    -0.069 C 
ATOM     50  H31 STE d          -5.736  17.026  13.285  0.00  0.00     0.032 H 
ATOM     51  H32 STE d          -6.094  16.906  15.041  0.00  0.00     0.032 H 
BRANCH  49  52
ATOM     52  C18 STE d          -4.832  15.361  14.274  0.00  0.00    -0.077 C 
ATOM     53  H33 STE d          -3.791  15.324  13.921  0.00  0.00     0.027 H 
ATOM     54  H34 STE d          -5.467  14.761  13.606  0.00  0.00     0.027 H 
ATOM     55  H35 STE d          -4.887  14.956  15.295  0.00  0.00     0.027 H 
ENDBRANCH  49  52
ENDBRANCH  46  49
ENDBRANCH  43  46
ENDBRANCH  40  43
ENDBRANCH  37  40
ENDBRANCH  34  37
ENDBRANCH  31  34
ENDBRANCH   1  31
TORSDOF 17
ENDMDL
MODEL 7
REMARK VINA RESULT:      -5.9      4.309      9.215
REMARK  17 active torsions:
REMARK  status: ('A' for Active; 'I' for Inactive)
REMARK    1  A    between atoms: C1_1  and  C2_4 
REMARK    2  A    between atoms: C2_4  and  C3_5 
REMARK    3  A    between atoms: C3_5  and  C4_6 
REMARK    4  A    between atoms: C4_6  and  C5_7 
REMARK    5  A    between atoms: C5_7  and  C6_8 
REMARK    6  A    between atoms: C6_8  and  C7_9 
REMARK    7  A    between atoms: C7_9  and  C8_10 
REMARK    8  A    between atoms: C8_10  and  C9_11 
REMARK    9  A    between atoms: C9_11  and  C10_12 
REMARK   10  A    between atoms: C10_12  and  C11_13 
REMARK   11  A    between atoms: C11_13  and  C12_14 
REMARK   12  A    between atoms: C12_14  and  C13_15 
REMARK   13  A    between atoms: C13_15  and  C14_16 
REMARK   14  A    between atoms: C14_16  and  C15_17 
REMARK   15  A    between atoms: C15_17  and  C16_18 
REMARK   16  A    between atoms: C16_18  and  C17_19 
REMARK   17  A    between atoms: C17_19  and  C18_20 
ROOT
ATOM      1  C10 STE d          -1.415  10.335  18.911  0.00  0.00    -0.065 C 
ATOM      2  H17 STE d          -0.658  10.238  18.119  0.00  0.00     0.033 H 
ATOM      3  H18 STE d          -2.388  10.582  18.461  0.00  0.00     0.033 H 
ENDROOT
BRANCH   1   4
ATOM      4  C9  STE d          -1.005  11.414  19.904  0.00  0.00    -0.065 C 
ATOM      5  H15 STE d          -0.528  10.948  20.780  0.00  0.00     0.033 H 
ATOM      6  H16 STE d          -0.295  12.105  19.425  0.00  0.00     0.033 H 
BRANCH   4   7
ATOM      7  C8  STE d          -2.241  12.180  20.345  0.00  0.00    -0.065 C 
ATOM      8  H13 STE d          -3.089  11.488  20.452  0.00  0.00     0.033 H 
ATOM      9  H14 STE d          -2.048  12.677  21.307  0.00  0.00     0.033 H 
BRANCH   7  10
ATOM     10  C7  STE d          -2.558  13.214  19.292  0.00  0.00    -0.065 C 
ATOM     11  H11 STE d          -2.599  14.207  19.766  0.00  0.00     0.033 H 
ATOM     12  H12 STE d          -1.764  13.204  18.531  0.00  0.00     0.033 H 
BRANCH  10  13
ATOM     13  C6  STE d          -3.895  12.931  18.620  0.00  0.00    -0.065 C 
ATOM     14  H9  STE d          -3.815  12.007  18.028  0.00  0.00     0.033 H 
ATOM     15  H10 STE d          -4.670  12.806  19.391  0.00  0.00     0.033 H 
BRANCH  13  16
ATOM     16  C5  STE d          -4.280  14.085  17.701  0.00  0.00    -0.065 C 
ATOM     17  H7  STE d          -4.034  13.811  16.665  0.00  0.00     0.033 H 
ATOM     18  H8  STE d          -5.363  14.260  17.787  0.00  0.00     0.033 H 
BRANCH  16  19
ATOM     19  C4  STE d          -3.547  15.369  18.054  0.00  0.00    -0.065 C 
ATOM     20  H5  STE d          -4.244  16.045  18.572  0.00  0.00     0.033 H 
ATOM     21  H6  STE d          -2.706  15.128  18.721  0.00  0.00     0.033 H 
BRANCH  19  22
ATOM     22  C3  STE d          -3.007  16.073  16.812  0.00  0.00    -0.056 C 
ATOM     23  H3  STE d          -2.520  17.011  17.116  0.00  0.00     0.033 H 
ATOM     24  H4  STE d          -2.269  15.419  16.324  0.00  0.00     0.033 H 
BRANCH  22  25
ATOM     25  C2  STE d          -4.121  16.391  15.818  0.00  0.00     0.016 C 
ATOM     26  H1  STE d          -3.832  16.040  14.817  0.00  0.00     0.049 H 
ATOM     27  H2  STE d          -5.048  15.888  16.130  0.00  0.00     0.049 H 
BRANCH  25  28
ATOM     28  C1  STE d          -4.340  17.881  15.787  0.00  0.00     0.172 C 
ATOM     29  O1  STE d          -4.806  18.428  16.817  0.00  0.00    -0.648 OA
ATOM     30  O2  STE d          -4.077  18.505  14.736  0.00  0.00    -0.648 OA
ENDBRANCH  25  28
ENDBRANCH  22  25
ENDBRANCH  19  22
ENDBRANCH  16  19
ENDBRANCH  13  16
ENDBRANCH  10  13
ENDBRANCH   7  10
ENDBRANCH   4   7
ENDBRANCH   1   4
BRANCH   1  31
ATOM     31  C11 STE d          -1.513   9.046  19.702  0.00  0.00    -0.065 C 
ATOM     32  H19 STE d          -1.276   9.238  20.759  0.00  0.00     0.033 H 
ATOM     33  H20 STE d          -0.808   8.305  19.297  0.00  0.00     0.033 H 
BRANCH  31  34
ATOM     34  C12 STE d          -2.927   8.524  19.583  0.00  0.00    -0.065 C 
ATOM     35  H21 STE d          -2.955   7.687  18.870  0.00  0.00     0.033 H 
ATOM     36  H22 STE d          -3.591   9.327  19.232  0.00  0.00     0.033 H 
BRANCH  34  37
ATOM     37  C13 STE d          -3.370   8.053  20.937  0.00  0.00    -0.065 C 
ATOM     38  H23 STE d          -4.350   8.497  21.168  0.00  0.00     0.033 H 
ATOM     39  H24 STE d          -2.634   8.377  21.687  0.00  0.00     0.033 H 
BRANCH  37  40
ATOM     40  C14 STE d          -3.490   6.540  20.984  0.00  0.00    -0.065 C 
ATOM     41  H25 STE d          -4.268   6.265  21.711  0.00  0.00     0.033 H 
ATOM     42  H26 STE d          -2.526   6.114  21.301  0.00  0.00     0.033 H 
BRANCH  40  43
ATOM     43  C15 STE d          -3.862   5.966  19.618  0.00  0.00    -0.065 C 
ATOM     44  H27 STE d          -3.061   5.304  19.258  0.00  0.00     0.033 H 
ATOM     45  H28 STE d          -4.015   6.782  18.897  0.00  0.00     0.033 H 
BRANCH  43  46
ATOM     46  C16 STE d          -5.145   5.180  19.789  0.00  0.00    -0.065 C 
ATOM     47  H29 STE d          -5.220   4.850  20.836  0.00  0.00     0.033 H 
ATOM     48  H30 STE d          -5.109   4.299  19.129  0.00  0.00     0.033 H 
BRANCH  46  49
ATOM     49  C17 STE d          -6.372   5.986  19.449  0.00  0.00    -0.069 C 
ATOM     50  H31 STE d          -6.731   6.483  20.363  0.00  0.00     0.032 H 
ATOM     51  H32 STE d          -7.149   5.305  19.072  0.00  0.00     0.032 H 
BRANCH  49  52
ATOM     52  C18 STE d          -6.102   7.042  18.398  0.00  0.00    -0.077 C 
ATOM     53  H33 STE d          -7.020   7.619  18.214  0.00  0.00     0.027 H 
ATOM     54  H34 STE d          -5.781   6.556  17.465  0.00  0.00     0.027 H 
ATOM     55  H35 STE d          -5.309   7.717  18.752  0.00  0.00     0.027 H 
ENDBRANCH  49  52
ENDBRANCH  46  49
ENDBRANCH  43  46
ENDBRANCH  40  43
ENDBRANCH  37  40
ENDBRANCH  34  37
ENDBRANCH  31  34
ENDBRANCH   1  31
TORSDOF 17
ENDMDL
MODEL 8
REMARK VINA RESULT:      -5.9      4.075      9.107
REMARK  17 active torsions:
REMARK  status: ('A' for Active; 'I' for Inactive)
REMARK    1  A    between atoms: C1_1  and  C2_4 
REMARK    2  A    between atoms: C2_4  and  C3_5 
REMARK    3  A    between atoms: C3_5  and  C4_6 
REMARK    4  A    between atoms: C4_6  and  C5_7 
REMARK    5  A    between atoms: C5_7  and  C6_8 
REMARK    6  A    between atoms: C6_8  and  C7_9 
REMARK    7  A    between atoms: C7_9  and  C8_10 
REMARK    8  A    between atoms: C8_10  and  C9_11 
REMARK    9  A    between atoms: C9_11  and  C10_12 
REMARK   10  A    between atoms: C10_12  and  C11_13 
REMARK   11  A    between atoms: C11_13  and  C12_14 
REMARK   12  A    between atoms: C12_14  and  C13_15 
REMARK   13  A    between atoms: C13_15  and  C14_16 
REMARK   14  A    between atoms: C14_16  and  C15_17 
REMARK   15  A    between atoms: C15_17  and  C16_18 
REMARK   16  A    between atoms: C16_18  and  C17_19 
REMARK   17  A    between atoms: C17_19  and  C18_20 
ROOT
ATOM      1  C10 STE d          -1.372  10.702  19.235  0.00  0.00    -0.065 C 
ATOM      2  H17 STE d          -0.409  11.122  19.561  0.00  0.00     0.033 H 
ATOM      3  H18 STE d          -1.503  10.876  18.157  0.00  0.00     0.033 H 
ENDROOT
BRANCH   1   4
ATOM      4  C9  STE d          -2.515  11.337  20.014  0.00  0.00    -0.065 C 
ATOM      5  H15 STE d          -3.466  11.146  19.495  0.00  0.00     0.033 H 
ATOM      6  H16 STE d          -2.557  10.906  21.025  0.00  0.00     0.033 H 
BRANCH   4   7
ATOM      7  C8  STE d          -2.279  12.835  20.109  0.00  0.00    -0.065 C 
ATOM      8  H13 STE d          -3.034  13.289  20.768  0.00  0.00     0.033 H 
ATOM      9  H14 STE d          -1.275  13.029  20.514  0.00  0.00     0.033 H 
BRANCH   7  10
ATOM     10  C7  STE d          -2.392  13.422  18.724  0.00  0.00    -0.065 C 
ATOM     11  H11 STE d          -1.930  14.420  18.718  0.00  0.00     0.033 H 
ATOM     12  H12 STE d          -1.862  12.769  18.015  0.00  0.00     0.033 H 
BRANCH  10  13
ATOM     13  C6  STE d          -3.847  13.547  18.291  0.00  0.00    -0.065 C 
ATOM     14  H9  STE d          -4.086  12.741  17.581  0.00  0.00     0.033 H 
ATOM     15  H10 STE d          -4.497  13.461  19.175  0.00  0.00     0.033 H 
BRANCH  13  16
ATOM     16  C5  STE d          -4.085  14.895  17.620  0.00  0.00    -0.065 C 
ATOM     17  H7  STE d          -3.741  14.837  16.577  0.00  0.00     0.033 H 
ATOM     18  H8  STE d          -5.163  15.114  17.639  0.00  0.00     0.033 H 
BRANCH  16  19
ATOM     19  C4  STE d          -3.343  16.023  18.317  0.00  0.00    -0.065 C 
ATOM     20  H5  STE d          -3.630  16.035  19.379  0.00  0.00     0.033 H 
ATOM     21  H6  STE d          -2.261  15.844  18.231  0.00  0.00     0.033 H 
BRANCH  19  22
ATOM     22  C3  STE d          -3.669  17.381  17.701  0.00  0.00    -0.056 C 
ATOM     23  H3  STE d          -3.634  18.148  18.489  0.00  0.00     0.033 H 
ATOM     24  H4  STE d          -2.919  17.613  16.930  0.00  0.00     0.033 H 
BRANCH  22  25
ATOM     25  C2  STE d          -5.056  17.389  17.062  0.00  0.00     0.016 C 
ATOM     26  H1  STE d          -5.529  16.406  17.197  0.00  0.00     0.049 H 
ATOM     27  H2  STE d          -5.676  18.163  17.539  0.00  0.00     0.049 H 
BRANCH  25  28
ATOM     28  C1  STE d          -4.917  17.687  15.593  0.00  0.00     0.172 C 
ATOM     29  O1  STE d          -3.925  18.360  15.219  0.00  0.00    -0.648 OA
ATOM     30  O2  STE d          -5.803  17.277  14.811  0.00  0.00    -0.648 OA
ENDBRANCH  25  28
ENDBRANCH  22  25
ENDBRANCH  19  22
ENDBRANCH  16  19
ENDBRANCH  13  16
ENDBRANCH  10  13
ENDBRANCH   7  10
ENDBRANCH   4   7
ENDBRANCH   1   4
BRANCH   1  31
ATOM     31  C11 STE d          -1.425   9.218  19.537  0.00  0.00    -0.065 C 
ATOM     32  H19 STE d          -0.646   8.958  20.268  0.00  0.00     0.033 H 
ATOM     33  H20 STE d          -1.267   8.643  18.612  0.00  0.00     0.033 H 
BRANCH  31  34
ATOM     34  C12 STE d          -2.788   8.900  20.109  0.00  0.00    -0.065 C 
ATOM     35  H21 STE d          -3.556   9.496  19.595  0.00  0.00     0.033 H 
ATOM     36  H22 STE d          -2.803   9.131  21.184  0.00  0.00     0.033 H 
BRANCH  34  37
ATOM     37  C13 STE d          -3.056   7.438  19.900  0.00  0.00    -0.065 C 
ATOM     38  H23 STE d          -2.429   6.856  20.591  0.00  0.00     0.033 H 
ATOM     39  H24 STE d          -2.804   7.173  18.862  0.00  0.00     0.033 H 
BRANCH  37  40
ATOM     40  C14 STE d          -4.515   7.101  20.155  0.00  0.00    -0.065 C 
ATOM     41  H25 STE d          -4.716   7.175  21.233  0.00  0.00     0.033 H 
ATOM     42  H26 STE d          -4.710   6.073  19.815  0.00  0.00     0.033 H 
BRANCH  40  43
ATOM     43  C15 STE d          -5.447   8.056  19.409  0.00  0.00    -0.065 C 
ATOM     44  H27 STE d          -4.861   8.729  18.767  0.00  0.00     0.033 H 
ATOM     45  H28 STE d          -6.029   8.650  20.128  0.00  0.00     0.033 H 
BRANCH  43  46
ATOM     46  C16 STE d          -6.378   7.213  18.562  0.00  0.00    -0.065 C 
ATOM     47  H29 STE d          -6.055   7.279  17.512  0.00  0.00     0.033 H 
ATOM     48  H30 STE d          -7.399   7.612  18.658  0.00  0.00     0.033 H 
BRANCH  46  49
ATOM     49  C17 STE d          -6.386   5.763  18.973  0.00  0.00    -0.069 C 
ATOM     50  H31 STE d          -7.320   5.556  19.517  0.00  0.00     0.032 H 
ATOM     51  H32 STE d          -5.527   5.578  19.634  0.00  0.00     0.032 H 
BRANCH  49  52
ATOM     52  C18 STE d          -6.297   4.822  17.790  0.00  0.00    -0.077 C 
ATOM     53  H33 STE d          -6.156   3.793  18.150  0.00  0.00     0.027 H 
ATOM     54  H34 STE d          -5.444   5.109  17.157  0.00  0.00     0.027 H 
ATOM     55  H35 STE d          -7.226   4.881  17.204  0.00  0.00     0.027 H 
ENDBRANCH  49  52
ENDBRANCH  46  49
ENDBRANCH  43  46
ENDBRANCH  40  43
ENDBRANCH  37  40
ENDBRANCH  34  37
ENDBRANCH  31  34
ENDBRANCH   1  31
TORSDOF 17
ENDMDL
MODEL 9
REMARK VINA RESULT:      -5.8      4.629      9.822
REMARK  17 active torsions:
REMARK  status: ('A' for Active; 'I' for Inactive)
REMARK    1  A    between atoms: C1_1  and  C2_4 
REMARK    2  A    between atoms: C2_4  and  C3_5 
REMARK    3  A    between atoms: C3_5  and  C4_6 
REMARK    4  A    between atoms: C4_6  and  C5_7 
REMARK    5  A    between atoms: C5_7  and  C6_8 
REMARK    6  A    between atoms: C6_8  and  C7_9 
REMARK    7  A    between atoms: C7_9  and  C8_10 
REMARK    8  A    between atoms: C8_10  and  C9_11 
REMARK    9  A    between atoms: C9_11  and  C10_12 
REMARK   10  A    between atoms: C10_12  and  C11_13 
REMARK   11  A    between atoms: C11_13  and  C12_14 
REMARK   12  A    between atoms: C12_14  and  C13_15 
REMARK   13  A    between atoms: C13_15  and  C14_16 
REMARK   14  A    between atoms: C14_16  and  C15_17 
REMARK   15  A    between atoms: C15_17  and  C16_18 
REMARK   16  A    between atoms: C16_18  and  C17_19 
REMARK   17  A    between atoms: C17_19  and  C18_20 
ROOT
ATOM      1  C10 STE d          -4.290  12.196  18.699  0.00  0.00    -0.065 C 
ATOM      2  H17 STE d          -4.796  12.018  17.738  0.00  0.00     0.033 H 
ATOM      3  H18 STE d          -5.040  12.407  19.475  0.00  0.00     0.033 H 
ENDROOT
BRANCH   1   4
ATOM      4  C9  STE d          -3.318  13.361  18.575  0.00  0.00    -0.065 C 
ATOM      5  H15 STE d          -2.785  13.499  19.528  0.00  0.00     0.033 H 
ATOM      6  H16 STE d          -2.591  13.152  17.776  0.00  0.00     0.033 H 
BRANCH   4   7
ATOM      7  C8  STE d          -4.094  14.623  18.238  0.00  0.00    -0.065 C 
ATOM      8  H13 STE d          -4.800  14.418  17.420  0.00  0.00     0.033 H 
ATOM      9  H14 STE d          -4.649  14.966  19.124  0.00  0.00     0.033 H 
BRANCH   7  10
ATOM     10  C7  STE d          -3.111  15.685  17.811  0.00  0.00    -0.065 C 
ATOM     11  H11 STE d          -3.472  16.666  18.153  0.00  0.00     0.033 H 
ATOM     12  H12 STE d          -2.134  15.473  18.270  0.00  0.00     0.033 H 
BRANCH  10  13
ATOM     13  C6  STE d          -2.951  15.715  16.296  0.00  0.00    -0.065 C 
ATOM     14  H9  STE d          -2.614  16.716  15.987  0.00  0.00     0.033 H 
ATOM     15  H10 STE d          -2.203  14.967  15.995  0.00  0.00     0.033 H 
BRANCH  13  16
ATOM     16  C5  STE d          -4.280  15.401  15.618  0.00  0.00    -0.065 C 
ATOM     17  H7  STE d          -4.265  14.355  15.278  0.00  0.00     0.033 H 
ATOM     18  H8  STE d          -5.091  15.537  16.349  0.00  0.00     0.033 H 
BRANCH  16  19
ATOM     19  C4  STE d          -4.542  16.300  14.422  0.00  0.00    -0.065 C 
ATOM     20  H5  STE d          -3.620  16.849  14.181  0.00  0.00     0.033 H 
ATOM     21  H6  STE d          -4.832  15.676  13.563  0.00  0.00     0.033 H 
BRANCH  19  22
ATOM     22  C3  STE d          -5.657  17.305  14.702  0.00  0.00    -0.056 C 
ATOM     23  H3  STE d          -5.579  18.134  13.984  0.00  0.00     0.033 H 
ATOM     24  H4  STE d          -6.628  16.803  14.579  0.00  0.00     0.033 H 
BRANCH  22  25
ATOM     25  C2  STE d          -5.565  17.865  16.119  0.00  0.00     0.016 C 
ATOM     26  H1  STE d          -6.541  18.273  16.418  0.00  0.00     0.049 H 
ATOM     27  H2  STE d          -5.273  17.064  16.814  0.00  0.00     0.049 H 
BRANCH  25  28
ATOM     28  C1  STE d          -4.530  18.960  16.147  0.00  0.00     0.172 C 
ATOM     29  O1  STE d          -4.408  19.681  15.126  0.00  0.00    -0.648 OA
ATOM     30  O2  STE d          -3.821  19.089  17.168  0.00  0.00    -0.648 OA
ENDBRANCH  25  28
ENDBRANCH  22  25
ENDBRANCH  19  22
ENDBRANCH  16  19
ENDBRANCH  13  16
ENDBRANCH  10  13
ENDBRANCH   7  10
ENDBRANCH   4   7
ENDBRANCH   1   4
BRANCH   1  31
ATOM     31  C11 STE d          -3.459  10.989  19.086  0.00  0.00    -0.065 C 
ATOM     32  H19 STE d          -3.945  10.071  18.725  0.00  0.00     0.033 H 
ATOM     33  H20 STE d          -3.355  10.943  20.180  0.00  0.00     0.033 H 
BRANCH  31  34
ATOM     34  C12 STE d          -2.095  11.129  18.449  0.00  0.00    -0.065 C 
ATOM     35  H21 STE d          -1.597  12.033  18.831  0.00  0.00     0.033 H 
ATOM     36  H22 STE d          -2.200  11.202  17.357  0.00  0.00     0.033 H 
BRANCH  34  37
ATOM     37  C13 STE d          -1.285   9.916  18.801  0.00  0.00    -0.065 C 
ATOM     38  H23 STE d          -0.430  10.223  19.422  0.00  0.00     0.033 H 
ATOM     39  H24 STE d          -0.917   9.450  17.875  0.00  0.00     0.033 H 
BRANCH  37  40
ATOM     40  C14 STE d          -2.114   8.902  19.569  0.00  0.00    -0.065 C 
ATOM     41  H25 STE d          -2.833   8.433  18.882  0.00  0.00     0.033 H 
ATOM     42  H26 STE d          -2.659   9.420  20.373  0.00  0.00     0.033 H 
BRANCH  40  43
ATOM     43  C15 STE d          -1.235   7.814  20.187  0.00  0.00    -0.065 C 
ATOM     44  H27 STE d          -0.862   8.145  21.167  0.00  0.00     0.033 H 
ATOM     45  H28 STE d          -0.385   7.598  19.525  0.00  0.00     0.033 H 
BRANCH  43  46
ATOM     46  C16 STE d          -2.092   6.576  20.351  0.00  0.00    -0.065 C 
ATOM     47  H29 STE d          -2.382   6.214  19.353  0.00  0.00     0.033 H 
ATOM     48  H30 STE d          -2.995   6.846  20.919  0.00  0.00     0.033 H 
BRANCH  46  49
ATOM     49  C17 STE d          -1.379   5.466  21.079  0.00  0.00    -0.069 C 
ATOM     50  H31 STE d          -1.997   4.558  21.028  0.00  0.00     0.032 H 
ATOM     51  H32 STE d          -1.246   5.762  22.130  0.00  0.00     0.032 H 
BRANCH  49  52
ATOM     52  C18 STE d          -0.020   5.162  20.486  0.00  0.00    -0.077 C 
ATOM     53  H33 STE d           0.060   5.628  19.493  0.00  0.00     0.027 H 
ATOM     54  H34 STE d           0.103   4.073  20.390  0.00  0.00     0.027 H 
ATOM     55  H35 STE d           0.766   5.563  21.143  0.00  0.00     0.027 H 
ENDBRANCH  49  52
ENDBRANCH  46  49
ENDBRANCH  43  46
ENDBRANCH  40  43
ENDBRANCH  37  40
ENDBRANCH  34  37
ENDBRANCH  31  34
ENDBRANCH   1  31
TORSDOF 17
ENDMDL
MODEL 10
REMARK VINA RESULT:      -5.7      1.707      2.451
REMARK  17 active torsions:
REMARK  status: ('A' for Active; 'I' for Inactive)
REMARK    1  A    between atoms: C1_1  and  C2_4 
REMARK    2  A    between atoms: C2_4  and  C3_5 
REMARK    3  A    between atoms: C3_5  and  C4_6 
REMARK    4  A    between atoms: C4_6  and  C5_7 
REMARK    5  A    between atoms: C5_7  and  C6_8 
REMARK    6  A    between atoms: C6_8  and  C7_9 
REMARK    7  A    between atoms: C7_9  and  C8_10 
REMARK    8  A    between atoms: C8_10  and  C9_11 
REMARK    9  A    between atoms: C9_11  and  C10_12 
REMARK   10  A    between atoms: C10_12  and  C11_13 
REMARK   11  A    between atoms: C11_13  and  C12_14 
REMARK   12  A    between atoms: C12_14  and  C13_15 
REMARK   13  A    between atoms: C13_15  and  C14_16 
REMARK   14  A    between atoms: C14_16  and  C15_17 
REMARK   15  A    between atoms: C15_17  and  C16_18 
REMARK   16  A    between atoms: C16_18  and  C17_19 
REMARK   17  A    between atoms: C17_19  and  C18_20 
ROOT
ATOM      1  C10 STE d          -2.009  11.818  19.961  0.00  0.00    -0.065 C 
ATOM      2  H17 STE d          -1.307  12.063  20.772  0.00  0.00     0.033 H 
ATOM      3  H18 STE d          -2.953  11.450  20.392  0.00  0.00     0.033 H 
ENDROOT
BRANCH   1   4
ATOM      4  C9  STE d          -1.406  10.767  19.039  0.00  0.00    -0.065 C 
ATOM      5  H15 STE d          -1.954  10.757  18.085  0.00  0.00     0.033 H 
ATOM      6  H16 STE d          -0.348  11.004  18.853  0.00  0.00     0.033 H 
BRANCH   4   7
ATOM      7  C8  STE d          -1.513   9.404  19.702  0.00  0.00    -0.065 C 
ATOM      8  H13 STE d          -1.210   8.621  18.992  0.00  0.00     0.033 H 
ATOM      9  H14 STE d          -0.861   9.369  20.588  0.00  0.00     0.033 H 
BRANCH   7  10
ATOM     10  C7  STE d          -2.948   9.189  20.116  0.00  0.00    -0.065 C 
ATOM     11  H11 STE d          -3.254  10.008  20.784  0.00  0.00     0.033 H 
ATOM     12  H12 STE d          -3.584   9.192  19.218  0.00  0.00     0.033 H 
BRANCH  10  13
ATOM     13  C6  STE d          -3.123   7.863  20.844  0.00  0.00    -0.065 C 
ATOM     14  H9  STE d          -2.670   7.935  21.844  0.00  0.00     0.033 H 
ATOM     15  H10 STE d          -4.196   7.642  20.943  0.00  0.00     0.033 H 
BRANCH  13  16
ATOM     16  C5  STE d          -2.448   6.740  20.066  0.00  0.00    -0.065 C 
ATOM     17  H7  STE d          -3.214   6.190  19.500  0.00  0.00     0.033 H 
ATOM     18  H8  STE d          -1.721   7.180  19.367  0.00  0.00     0.033 H 
BRANCH  16  19
ATOM     19  C4  STE d          -1.721   5.765  20.978  0.00  0.00    -0.065 C 
ATOM     20  H5  STE d          -0.642   5.828  20.777  0.00  0.00     0.033 H 
ATOM     21  H6  STE d          -1.917   6.042  22.024  0.00  0.00     0.033 H 
BRANCH  19  22
ATOM     22  C3  STE d          -2.183   4.327  20.753  0.00  0.00    -0.056 C 
ATOM     23  H3  STE d          -1.308   3.703  20.521  0.00  0.00     0.033 H 
ATOM     24  H4  STE d          -2.663   3.959  21.672  0.00  0.00     0.033 H 
BRANCH  22  25
ATOM     25  C2  STE d          -3.180   4.232  19.601  0.00  0.00     0.016 C 
ATOM     26  H1  STE d          -3.330   5.228  19.160  0.00  0.00     0.049 H 
ATOM     27  H2  STE d          -2.791   3.546  18.834  0.00  0.00     0.049 H 
BRANCH  25  28
ATOM     28  C1  STE d          -4.491   3.710  20.127  0.00  0.00     0.172 C 
ATOM     29  O1  STE d          -5.201   3.018  19.357  0.00  0.00    -0.648 OA
ATOM     30  O2  STE d          -4.830   4.006  21.294  0.00  0.00    -0.648 OA
ENDBRANCH  25  28
ENDBRANCH  22  25
ENDBRANCH  19  22
ENDBRANCH  16  19
ENDBRANCH  13  16
ENDBRANCH  10  13
ENDBRANCH   7  10
ENDBRANCH   4   7
ENDBRANCH   1   4
BRANCH   1  31
ATOM     31  C11 STE d          -2.265  13.040  19.103  0.00  0.00    -0.065 C 
ATOM     32  H19 STE d          -1.484  13.125  18.334  0.00  0.00     0.033 H 
ATOM     33  H20 STE d          -2.261  13.944  19.730  0.00  0.00     0.033 H 
BRANCH  31  34
ATOM     34  C12 STE d          -3.616  12.882  18.444  0.00  0.00    -0.065 C 
ATOM     35  H21 STE d          -4.329  12.442  19.157  0.00  0.00     0.033 H 
ATOM     36  H22 STE d          -3.527  12.228  17.565  0.00  0.00     0.033 H 
BRANCH  34  37
ATOM     37  C13 STE d          -4.095  14.240  18.020  0.00  0.00    -0.065 C 
ATOM     38  H23 STE d          -5.059  14.448  18.508  0.00  0.00     0.033 H 
ATOM     39  H24 STE d          -4.226  14.248  16.928  0.00  0.00     0.033 H 
BRANCH  37  40
ATOM     40  C14 STE d          -3.102  15.321  18.408  0.00  0.00    -0.065 C 
ATOM     41  H25 STE d          -2.083  14.960  18.207  0.00  0.00     0.033 H 
ATOM     42  H26 STE d          -3.209  15.538  19.481  0.00  0.00     0.033 H 
BRANCH  40  43
ATOM     43  C15 STE d          -3.338  16.607  17.616  0.00  0.00    -0.065 C 
ATOM     44  H27 STE d          -2.539  17.332  17.830  0.00  0.00     0.033 H 
ATOM     45  H28 STE d          -4.310  17.042  17.889  0.00  0.00     0.033 H 
BRANCH  43  46
ATOM     46  C16 STE d          -3.327  16.244  16.146  0.00  0.00    -0.065 C 
ATOM     47  H29 STE d          -3.417  15.151  16.052  0.00  0.00     0.033 H 
ATOM     48  H30 STE d          -2.372  16.572  15.709  0.00  0.00     0.033 H 
BRANCH  46  49
ATOM     49  C17 STE d          -4.454  16.887  15.379  0.00  0.00    -0.069 C 
ATOM     50  H31 STE d          -4.086  17.824  14.933  0.00  0.00     0.032 H 
ATOM     51  H32 STE d          -5.274  17.110  16.077  0.00  0.00     0.032 H 
BRANCH  49  52
ATOM     52  C18 STE d          -4.986  16.001  14.274  0.00  0.00    -0.077 C 
ATOM     53  H33 STE d          -4.173  15.370  13.886  0.00  0.00     0.027 H 
ATOM     54  H34 STE d          -5.384  16.626  13.461  0.00  0.00     0.027 H 
ATOM     55  H35 STE d          -5.788  15.361  14.671  0.00  0.00     0.027 H 
ENDBRANCH  49  52
ENDBRANCH  46  49
ENDBRANCH  43  46
ENDBRANCH  40  43
ENDBRANCH  37  40
ENDBRANCH  34  37
ENDBRANCH  31  34
ENDBRANCH   1  31
TORSDOF 17
ENDMDL
