MODEL 1
REMARK VINA RESULT:     -10.4      0.000      0.000
REMARK  7 active torsions:
REMARK  status: ('A' for Active; 'I' for Inactive)
REMARK    1  A    between atoms: N12_26  and  C2_2 
REMARK       I    between atoms: C13_5  and  N12_26 
REMARK       I    between atoms: N14_27  and  C13_5 
REMARK    2  A    between atoms: C16_6  and  N14_27 
REMARK    3  A    between atoms: O22_12  and  C19_9 
REMARK    4  A    between atoms: C23_29  and  O22_12 
REMARK    5  A    between atoms: C29_31  and  C27_15 
REMARK    6  A    between atoms: N30_17  and  C31_18 
REMARK       I    between atoms: N30_17  and  C29_31 
REMARK    7  A    between atoms: C6_20  and  C7_21 
ROOT
ATOM      1  C16 BAX d         -20.683  -3.410  19.159  0.00  0.00     0.036 A 
ATOM      2  C17 BAX d         -19.923  -2.423  19.782  0.00  0.00    -0.054 A 
ATOM      3  C18 BAX d         -20.469  -1.612  20.783  0.00  0.00    -0.048 A 
ATOM      4  C19 BAX d         -21.824  -1.768  21.112  0.00  0.00     0.076 A 
ATOM      5  C20 BAX d         -22.590  -2.743  20.497  0.00  0.00    -0.048 A 
ATOM      6  C21 BAX d         -22.030  -3.561  19.525  0.00  0.00    -0.054 A 
ATOM      7  H4  BAX d         -18.890  -2.280  19.486  0.00  0.00     0.087 H 
ATOM      8  H5  BAX d         -19.857  -0.878  21.295  0.00  0.00     0.087 H 
ATOM      9  H6  BAX d         -23.631  -2.868  20.775  0.00  0.00     0.087 H 
ATOM     10  H7  BAX d         -22.636  -4.322  19.046  0.00  0.00     0.087 H 
ENDROOT
BRANCH   1  11
ATOM     11  N14 BAX d         -20.166  -4.208  18.210  0.00  0.00    -0.309 N 
ATOM     12  C13 BAX d         -19.065  -4.981  18.311  0.00  0.00     0.325 C 
ATOM     13  N12 BAX d         -18.764  -5.699  17.208  0.00  0.00    -0.309 N 
ATOM     14  O15 BAX d         -18.396  -5.039  19.358  0.00  0.00    -0.247 OA
ATOM     15  H15 BAX d         -19.373  -5.608  16.420  0.00  0.00     0.170 HD
ATOM     16  H16 BAX d         -20.649  -4.231  17.334  0.00  0.00     0.170 HD
BRANCH  13  17
ATOM     17  C2  BAX d         -17.696  -6.541  17.083  0.00  0.00     0.037 A 
ATOM     18  C1  BAX d         -17.027  -7.068  18.203  0.00  0.00    -0.041 A 
ATOM     19  C6  BAX d         -15.924  -7.924  18.052  0.00  0.00     0.071 A 
ATOM     20  H1  BAX d         -17.368  -6.808  19.198  0.00  0.00     0.088 H 
ATOM     21  C5  BAX d         -15.526  -8.265  16.764  0.00  0.00     0.049 A 
ATOM     22  C4  BAX d         -16.203  -7.774  15.625  0.00  0.00    -0.059 A 
ATOM     23 CL11 BAX d         -14.194  -9.321  16.571  0.00  0.00    -0.083 Cl
ATOM     24  C3  BAX d         -17.278  -6.912  15.804  0.00  0.00    -0.055 A 
ATOM     25  H3  BAX d         -15.889  -8.064  14.629  0.00  0.00     0.086 H 
ATOM     26  H2  BAX d         -17.800  -6.523  14.938  0.00  0.00     0.087 H 
BRANCH  19  27
ATOM     27  C7  BAX d         -15.196  -8.492  19.303  0.00  0.00     0.419 C 
ATOM     28  F8  BAX d         -16.108  -8.957  20.099  0.00  0.00    -0.166 F 
ATOM     29  F9  BAX d         -14.359  -9.482  18.993  0.00  0.00    -0.166 F 
ATOM     30  F10 BAX d         -14.546  -7.601  20.025  0.00  0.00    -0.166 F 
ENDBRANCH  19  27
ENDBRANCH  13  17
ENDBRANCH   1  11
BRANCH   4  31
ATOM     31  O22 BAX d         -22.427  -1.031  22.108  0.00  0.00    -0.311 OA
BRANCH  31  32
ATOM     32  C23 BAX d         -22.323   0.295  22.179  0.00  0.00     0.079 A 
ATOM     33  C24 BAX d         -22.125   0.948  23.387  0.00  0.00    -0.033 A 
ATOM     34  C25 BAX d         -21.999   2.340  23.366  0.00  0.00     0.006 A 
ATOM     35  H8  BAX d         -22.071   0.396  24.319  0.00  0.00     0.090 H 
ATOM     36  N26 BAX d         -22.066   2.996  22.211  0.00  0.00    -0.255 NA
ATOM     37  H9  BAX d         -21.847   2.885  24.291  0.00  0.00     0.114 H 
ATOM     38  C27 BAX d         -22.237   2.386  21.022  0.00  0.00     0.126 A 
ATOM     39  C28 BAX d         -22.360   0.997  20.984  0.00  0.00    -0.017 A 
ATOM     40  H10 BAX d         -22.483   0.478  20.040  0.00  0.00     0.091 H 
BRANCH  38  41
ATOM     41  C29 BAX d         -22.296   3.213  19.725  0.00  0.00     0.269 C 
ATOM     42  N30 BAX d         -21.972   2.552  18.611  0.00  0.00    -0.360 N 
ATOM     43  H11 BAX d         -21.715   1.586  18.642  0.00  0.00     0.162 HD
ATOM     44  O32 BAX d         -22.628   4.395  19.753  0.00  0.00    -0.266 OA
BRANCH  42  45
ATOM     45  C31 BAX d         -22.003   3.286  17.335  0.00  0.00    -0.018 C 
ATOM     46  H12 BAX d         -21.019   3.743  17.151  0.00  0.00     0.056 H 
ATOM     47  H13 BAX d         -22.770   4.073  17.383  0.00  0.00     0.056 H 
ATOM     48  H14 BAX d         -22.243   2.590  16.518  0.00  0.00     0.056 H 
ENDBRANCH  42  45
ENDBRANCH  38  41
ENDBRANCH  31  32
ENDBRANCH   4  31
TORSDOF 7
ENDMDL
MODEL 2
REMARK VINA RESULT:      -8.5      2.087      2.818
REMARK  7 active torsions:
REMARK  status: ('A' for Active; 'I' for Inactive)
REMARK    1  A    between atoms: N12_26  and  C2_2 
REMARK       I    between atoms: C13_5  and  N12_26 
REMARK       I    between atoms: N14_27  and  C13_5 
REMARK    2  A    between atoms: C16_6  and  N14_27 
REMARK    3  A    between atoms: O22_12  and  C19_9 
REMARK    4  A    between atoms: C23_29  and  O22_12 
REMARK    5  A    between atoms: C29_31  and  C27_15 
REMARK    6  A    between atoms: N30_17  and  C31_18 
REMARK       I    between atoms: N30_17  and  C29_31 
REMARK    7  A    between atoms: C6_20  and  C7_21 
ROOT
ATOM      1  C16 BAX d         -21.363  -3.167  19.497  0.00  0.00     0.036 A 
ATOM      2  C17 BAX d         -22.651  -2.694  19.257  0.00  0.00    -0.054 A 
ATOM      3  C18 BAX d         -23.105  -1.503  19.834  0.00  0.00    -0.048 A 
ATOM      4  C19 BAX d         -22.257  -0.815  20.715  0.00  0.00     0.076 A 
ATOM      5  C20 BAX d         -20.976  -1.277  20.963  0.00  0.00    -0.048 A 
ATOM      6  C21 BAX d         -20.526  -2.445  20.362  0.00  0.00    -0.054 A 
ATOM      7  H4  BAX d         -23.314  -3.259  18.612  0.00  0.00     0.087 H 
ATOM      8  H5  BAX d         -24.093  -1.120  19.605  0.00  0.00     0.087 H 
ATOM      9  H6  BAX d         -20.322  -0.725  21.629  0.00  0.00     0.087 H 
ATOM     10  H7  BAX d         -19.522  -2.802  20.563  0.00  0.00     0.087 H 
ENDROOT
BRANCH   1  11
ATOM     11  N14 BAX d         -20.908  -4.298  18.933  0.00  0.00    -0.309 N 
ATOM     12  C13 BAX d         -19.620  -4.671  18.787  0.00  0.00     0.325 C 
ATOM     13  N12 BAX d         -19.433  -5.869  18.192  0.00  0.00    -0.309 N 
ATOM     14  O15 BAX d         -18.681  -3.966  19.195  0.00  0.00    -0.247 OA
ATOM     15  H15 BAX d         -20.249  -6.378  17.917  0.00  0.00     0.170 HD
ATOM     16  H16 BAX d         -21.599  -4.932  18.585  0.00  0.00     0.170 HD
BRANCH  13  17
ATOM     17  C2  BAX d         -18.219  -6.441  17.936  0.00  0.00     0.037 A 
ATOM     18  C1  BAX d         -17.812  -6.770  16.631  0.00  0.00    -0.041 A 
ATOM     19  C6  BAX d         -16.563  -7.367  16.390  0.00  0.00     0.071 A 
ATOM     20  H1  BAX d         -18.472  -6.561  15.797  0.00  0.00     0.088 H 
ATOM     21  C5  BAX d         -15.723  -7.597  17.473  0.00  0.00     0.049 A 
ATOM     22  C4  BAX d         -16.099  -7.244  18.790  0.00  0.00    -0.059 A 
ATOM     23 CL11 BAX d         -14.194  -8.308  17.188  0.00  0.00    -0.083 Cl
ATOM     24  C3  BAX d         -17.348  -6.674  19.000  0.00  0.00    -0.055 A 
ATOM     25  H3  BAX d         -15.423  -7.415  19.620  0.00  0.00     0.086 H 
ATOM     26  H2  BAX d         -17.649  -6.407  20.006  0.00  0.00     0.087 H 
BRANCH  19  27
ATOM     27  C7  BAX d         -16.133  -7.727  14.939  0.00  0.00     0.419 C 
ATOM     28  F8  BAX d         -17.129  -8.348  14.387  0.00  0.00    -0.166 F 
ATOM     29  F9  BAX d         -15.853  -6.645  14.214  0.00  0.00    -0.166 F 
ATOM     30  F10 BAX d         -15.124  -8.570  14.848  0.00  0.00    -0.166 F 
ENDBRANCH  19  27
ENDBRANCH  13  17
ENDBRANCH   1  11
BRANCH   4  31
ATOM     31  O22 BAX d         -22.618   0.380  21.298  0.00  0.00    -0.311 OA
BRANCH  31  32
ATOM     32  C23 BAX d         -22.446   1.553  20.689  0.00  0.00     0.079 A 
ATOM     33  C24 BAX d         -22.387   2.742  21.400  0.00  0.00    -0.033 A 
ATOM     34  C25 BAX d         -22.176   3.924  20.683  0.00  0.00     0.006 A 
ATOM     35  H8  BAX d         -22.501   2.755  22.478  0.00  0.00     0.090 H 
ATOM     36  N26 BAX d         -22.036   3.882  19.361  0.00  0.00    -0.255 NA
ATOM     37  H9  BAX d         -22.128   4.873  21.204  0.00  0.00     0.114 H 
ATOM     38  C27 BAX d         -22.069   2.740  18.648  0.00  0.00     0.126 A 
ATOM     39  C28 BAX d         -22.268   1.531  19.314  0.00  0.00    -0.017 A 
ATOM     40  H10 BAX d         -22.283   0.594  18.768  0.00  0.00     0.091 H 
BRANCH  38  41
ATOM     41  C29 BAX d         -21.890   2.772  17.119  0.00  0.00     0.269 C 
ATOM     42  N30 BAX d         -23.012   2.628  16.410  0.00  0.00    -0.360 N 
ATOM     43  H11 BAX d         -23.896   2.511  16.863  0.00  0.00     0.162 HD
ATOM     44  O32 BAX d         -20.778   2.927  16.624  0.00  0.00    -0.266 OA
BRANCH  42  45
ATOM     45  C31 BAX d         -22.912   2.645  14.942  0.00  0.00    -0.018 C 
ATOM     46  H12 BAX d         -22.540   3.626  14.611  0.00  0.00     0.056 H 
ATOM     47  H13 BAX d         -23.904   2.463  14.504  0.00  0.00     0.056 H 
ATOM     48  H14 BAX d         -22.217   1.858  14.612  0.00  0.00     0.056 H 
ENDBRANCH  42  45
ENDBRANCH  38  41
ENDBRANCH  31  32
ENDBRANCH   4  31
TORSDOF 7
ENDMDL
