MODEL 1
REMARK VINA RESULT:      -5.6      0.000      0.000
REMARK  11 active torsions:
REMARK  status: ('A' for Active; 'I' for Inactive)
REMARK    1  A    between atoms: C1_4  and  N_1 
REMARK    2  A    between atoms: C_2  and  C1_4 
REMARK    3  A    between atoms: C6_13  and  C_2 
REMARK    4  A    between atoms: C1_4  and  C2_5 
REMARK    5  A    between atoms: O3_8  and  C4_11 
REMARK    6  A    between atoms: C5_12  and  O3_8 
REMARK    7  A    between atoms: C7_14  and  C3_10 
REMARK    8  A    between atoms: C3_10  and  C9_15 
REMARK    9  A    between atoms: C3_10  and  C10_16 
REMARK   10  A    between atoms: C3_10  and  C11_17 
REMARK   11  A    between atoms: C4_11  and  P_18 
ROOT
ATOM      1  O2  AT1 d          40.004   6.549   5.193  0.00  0.00    -0.214 OA
ATOM      2  N1  AT1 d          40.147   7.425   6.293  0.00  0.00    -0.102 NA
ATOM      3  C5  AT1 d          39.697   6.732   7.313  0.00  0.00     0.200 A 
ATOM      4  C6  AT1 d          39.253   5.415   6.963  0.00  0.00     0.032 A 
ATOM      5  C7  AT1 d          39.470   5.364   5.600  0.00  0.00     0.097 A 
ENDROOT
BRANCH   5   6
ATOM      6  C3  AT1 d          39.274   4.377   4.444  0.00  0.00     0.001 C 
BRANCH   6   7
ATOM      7  C9  AT1 d          40.209   4.818   3.293  0.00  0.00    -0.064 C 
ATOM      8  H9  AT1 d          41.245   4.539   3.534  0.00  0.00     0.028 H 
ATOM      9  H10 AT1 d          40.144   5.909   3.166  0.00  0.00     0.028 H 
ATOM     10  H11 AT1 d          39.903   4.320   2.361  0.00  0.00     0.028 H 
ENDBRANCH   6   7
BRANCH   6  11
ATOM     11  C10 AT1 d          39.659   2.966   4.880  0.00  0.00    -0.064 C 
ATOM     12  H12 AT1 d          40.736   2.933   5.103  0.00  0.00     0.028 H 
ATOM     13  H13 AT1 d          39.430   2.257   4.071  0.00  0.00     0.028 H 
ATOM     14  H14 AT1 d          39.089   2.693   5.780  0.00  0.00     0.028 H 
ENDBRANCH   6  11
BRANCH   6  15
ATOM     15  C11 AT1 d          37.852   4.351   3.899  0.00  0.00    -0.064 C 
ATOM     16  H15 AT1 d          37.217   3.744   4.560  0.00  0.00     0.028 H 
ATOM     17  H16 AT1 d          37.854   3.915   2.890  0.00  0.00     0.028 H 
ATOM     18  H17 AT1 d          37.458   5.377   3.855  0.00  0.00     0.028 H 
ENDBRANCH   6  15
ENDBRANCH   5   6
BRANCH   4  19
ATOM     19  C   AT1 d          38.700   4.464   7.982  0.00  0.00     0.002 C 
ATOM     20  H4  AT1 d          39.277   3.529   7.922  0.00  0.00     0.044 H 
ATOM     21  H5  AT1 d          38.833   4.915   8.975  0.00  0.00     0.044 H 
BRANCH  19  22
ATOM     22  C1  AT1 d          37.218   4.115   7.817  0.00  0.00     0.186 C 
ATOM     23  H6  AT1 d          36.911   4.401   6.800  0.00  0.00     0.101 H 
BRANCH  22  24
ATOM     24  N   AT1 d          36.343   4.872   8.827  0.00  0.00    -0.065 N 
ATOM     25  H1  AT1 d          35.712   4.226   9.275  0.00  0.00     0.275 HD
ATOM     26  H2  AT1 d          35.812   5.581   8.347  0.00  0.00     0.275 HD
ATOM     27  H3  AT1 d          36.930   5.304   9.523  0.00  0.00     0.275 HD
ENDBRANCH  22  24
BRANCH  22  28
ATOM     28  C2  AT1 d          36.967   2.567   8.008  0.00  0.00     0.204 C 
ATOM     29  O   AT1 d          36.644   2.173   9.170  0.00  0.00    -0.646 OA
ATOM     30  O1  AT1 d          37.099   1.832   7.002  0.00  0.00    -0.646 OA
ENDBRANCH  22  28
ENDBRANCH  19  22
ENDBRANCH   4  19
BRANCH   3  31
ATOM     31  O3  AT1 d          39.632   7.187   8.579  0.00  0.00    -0.319 OA
BRANCH  31  32
ATOM     32  C4  AT1 d          40.051   8.570   8.822  0.00  0.00     0.130 C 
ATOM     33  H7  AT1 d          39.402   9.028   9.584  0.00  0.00     0.096 H 
ATOM     34  H8  AT1 d          39.985   9.150   7.889  0.00  0.00     0.096 H 
BRANCH  32  35
ATOM     35  P   AT1 d          41.764   8.547   9.409  0.00  0.00     0.284 P 
ATOM     36  O4  AT1 d          41.988   9.703  10.316  0.00  0.00    -0.638 OA
ATOM     37  O5  AT1 d          41.912   7.192  10.046  0.00  0.00    -0.638 OA
ATOM     38  O6  AT1 d          42.660   8.600   8.127  0.00  0.00    -0.638 OA
ENDBRANCH  32  35
ENDBRANCH  31  32
ENDBRANCH   3  31
TORSDOF 11
ENDMDL
MODEL 2
REMARK VINA RESULT:      -5.6      2.580      5.854
REMARK  11 active torsions:
REMARK  status: ('A' for Active; 'I' for Inactive)
REMARK    1  A    between atoms: C1_4  and  N_1 
REMARK    2  A    between atoms: C_2  and  C1_4 
REMARK    3  A    between atoms: C6_13  and  C_2 
REMARK    4  A    between atoms: C1_4  and  C2_5 
REMARK    5  A    between atoms: O3_8  and  C4_11 
REMARK    6  A    between atoms: C5_12  and  O3_8 
REMARK    7  A    between atoms: C7_14  and  C3_10 
REMARK    8  A    between atoms: C3_10  and  C9_15 
REMARK    9  A    between atoms: C3_10  and  C10_16 
REMARK   10  A    between atoms: C3_10  and  C11_17 
REMARK   11  A    between atoms: C4_11  and  P_18 
ROOT
ATOM      1  O2  AT1 d          39.755   6.898  10.109  0.00  0.00    -0.214 OA
ATOM      2  N1  AT1 d          38.923   5.757  10.173  0.00  0.00    -0.102 NA
ATOM      3  C5  AT1 d          38.614   5.518   8.920  0.00  0.00     0.200 A 
ATOM      4  C6  AT1 d          39.199   6.443   7.995  0.00  0.00     0.032 A 
ATOM      5  C7  AT1 d          39.908   7.298   8.816  0.00  0.00     0.097 A 
ENDROOT
BRANCH   5   6
ATOM      6  C3  AT1 d          40.788   8.545   8.685  0.00  0.00     0.001 C 
BRANCH   6   7
ATOM      7  C9  AT1 d          40.156   9.655   9.559  0.00  0.00    -0.064 C 
ATOM      8  H9  AT1 d          39.277   9.252  10.083  0.00  0.00     0.028 H 
ATOM      9  H10 AT1 d          39.850  10.496   8.920  0.00  0.00     0.028 H 
ATOM     10  H11 AT1 d          40.894  10.004  10.297  0.00  0.00     0.028 H 
ENDBRANCH   6   7
BRANCH   6  11
ATOM     11  C10 AT1 d          42.197   8.257   9.194  0.00  0.00    -0.064 C 
ATOM     12  H12 AT1 d          42.884   9.037   8.835  0.00  0.00     0.028 H 
ATOM     13  H13 AT1 d          42.528   7.277   8.822  0.00  0.00     0.028 H 
ATOM     14  H14 AT1 d          42.194   8.249  10.295  0.00  0.00     0.028 H 
ENDBRANCH   6  11
BRANCH   6  15
ATOM     15  C11 AT1 d          40.881   9.078   7.261  0.00  0.00    -0.064 C 
ATOM     16  H15 AT1 d          40.080   9.812   7.090  0.00  0.00     0.028 H 
ATOM     17  H16 AT1 d          40.773   8.246   6.550  0.00  0.00     0.028 H 
ATOM     18  H17 AT1 d          41.858   9.562   7.113  0.00  0.00     0.028 H 
ENDBRANCH   6  15
ENDBRANCH   5   6
BRANCH   4  19
ATOM     19  C   AT1 d          38.967   6.347   6.517  0.00  0.00     0.002 C 
ATOM     20  H4  AT1 d          37.898   6.143   6.354  0.00  0.00     0.044 H 
ATOM     21  H5  AT1 d          39.228   7.316   6.069  0.00  0.00     0.044 H 
BRANCH  19  22
ATOM     22  C1  AT1 d          39.770   5.261   5.796  0.00  0.00     0.186 C 
ATOM     23  H6  AT1 d          39.816   4.378   6.451  0.00  0.00     0.101 H 
BRANCH  22  24
ATOM     24  N   AT1 d          41.203   5.725   5.493  0.00  0.00    -0.065 N 
ATOM     25  H1  AT1 d          41.771   4.927   5.254  0.00  0.00     0.275 HD
ATOM     26  H2  AT1 d          41.588   6.179   6.307  0.00  0.00     0.275 HD
ATOM     27  H3  AT1 d          41.191   6.372   4.721  0.00  0.00     0.275 HD
ENDBRANCH  22  24
BRANCH  22  28
ATOM     28  C2  AT1 d          39.085   4.850   4.433  0.00  0.00     0.204 C 
ATOM     29  O   AT1 d          39.852   4.611   3.450  0.00  0.00    -0.646 OA
ATOM     30  O1  AT1 d          37.834   4.781   4.412  0.00  0.00    -0.646 OA
ENDBRANCH  22  28
ENDBRANCH  19  22
ENDBRANCH   4  19
BRANCH   3  31
ATOM     31  O3  AT1 d          37.815   4.515   8.507  0.00  0.00    -0.319 OA
BRANCH  31  32
ATOM     32  C4  AT1 d          37.011   3.829   9.522  0.00  0.00     0.130 C 
ATOM     33  H7  AT1 d          35.953   3.824   9.220  0.00  0.00     0.096 H 
ATOM     34  H8  AT1 d          37.114   4.344  10.490  0.00  0.00     0.096 H 
BRANCH  32  35
ATOM     35  P   AT1 d          37.614   2.128   9.666  0.00  0.00     0.284 P 
ATOM     36  O4  AT1 d          38.059   1.650   8.330  0.00  0.00    -0.638 OA
ATOM     37  O5  AT1 d          38.693   2.210  10.711  0.00  0.00    -0.638 OA
ATOM     38  O6  AT1 d          36.421   1.294  10.241  0.00  0.00    -0.638 OA
ENDBRANCH  32  35
ENDBRANCH  31  32
ENDBRANCH   3  31
TORSDOF 11
ENDMDL
MODEL 3
REMARK VINA RESULT:      -5.6      2.717      6.042
REMARK  11 active torsions:
REMARK  status: ('A' for Active; 'I' for Inactive)
REMARK    1  A    between atoms: C1_4  and  N_1 
REMARK    2  A    between atoms: C_2  and  C1_4 
REMARK    3  A    between atoms: C6_13  and  C_2 
REMARK    4  A    between atoms: C1_4  and  C2_5 
REMARK    5  A    between atoms: O3_8  and  C4_11 
REMARK    6  A    between atoms: C5_12  and  O3_8 
REMARK    7  A    between atoms: C7_14  and  C3_10 
REMARK    8  A    between atoms: C3_10  and  C9_15 
REMARK    9  A    between atoms: C3_10  and  C10_16 
REMARK   10  A    between atoms: C3_10  and  C11_17 
REMARK   11  A    between atoms: C4_11  and  P_18 
ROOT
ATOM      1  O2  AT1 d          39.681   6.479   9.826  0.00  0.00    -0.214 OA
ATOM      2  N1  AT1 d          39.083   5.200   9.883  0.00  0.00    -0.102 NA
ATOM      3  C5  AT1 d          38.896   4.880   8.624  0.00  0.00     0.200 A 
ATOM      4  C6  AT1 d          39.341   5.883   7.702  0.00  0.00     0.032 A 
ATOM      5  C7  AT1 d          39.825   6.876   8.531  0.00  0.00     0.097 A 
ENDROOT
BRANCH   5   6
ATOM      6  C3  AT1 d          40.454   8.268   8.406  0.00  0.00     0.001 C 
BRANCH   6   7
ATOM      7  C9  AT1 d          39.679   9.214   9.355  0.00  0.00    -0.064 C 
ATOM      8  H9  AT1 d          40.037   9.074  10.385  0.00  0.00     0.028 H 
ATOM      9  H10 AT1 d          38.605   8.984   9.305  0.00  0.00     0.028 H 
ATOM     10  H11 AT1 d          39.846  10.258   9.048  0.00  0.00     0.028 H 
ENDBRANCH   6   7
BRANCH   6  11
ATOM     11  C10 AT1 d          41.917   8.229   8.834  0.00  0.00    -0.064 C 
ATOM     12  H12 AT1 d          42.181   9.179   9.324  0.00  0.00     0.028 H 
ATOM     13  H13 AT1 d          42.555   8.083   7.950  0.00  0.00     0.028 H 
ATOM     14  H14 AT1 d          42.071   7.398   9.539  0.00  0.00     0.028 H 
ENDBRANCH   6  11
BRANCH   6  15
ATOM     15  C11 AT1 d          40.368   8.851   7.002  0.00  0.00    -0.064 C 
ATOM     16  H15 AT1 d          41.341   9.281   6.723  0.00  0.00     0.028 H 
ATOM     17  H16 AT1 d          39.600   9.638   6.978  0.00  0.00     0.028 H 
ATOM     18  H17 AT1 d          40.102   8.056   6.290  0.00  0.00     0.028 H 
ENDBRANCH   6  15
ENDBRANCH   5   6
BRANCH   4  19
ATOM     19  C   AT1 d          39.213   5.714   6.218  0.00  0.00     0.002 C 
ATOM     20  H4  AT1 d          38.228   5.272   6.010  0.00  0.00     0.044 H 
ATOM     21  H5  AT1 d          39.273   6.710   5.757  0.00  0.00     0.044 H 
BRANCH  19  22
ATOM     22  C1  AT1 d          40.277   4.826   5.565  0.00  0.00     0.186 C 
ATOM     23  H6  AT1 d          40.374   3.911   6.167  0.00  0.00     0.101 H 
BRANCH  22  24
ATOM     24  N   AT1 d          41.642   5.527   5.509  0.00  0.00    -0.065 N 
ATOM     25  H1  AT1 d          41.529   6.503   5.739  0.00  0.00     0.275 HD
ATOM     26  H2  AT1 d          42.026   5.443   4.581  0.00  0.00     0.275 HD
ATOM     27  H3  AT1 d          42.268   5.097   6.172  0.00  0.00     0.275 HD
ENDBRANCH  22  24
BRANCH  22  28
ATOM     28  C2  AT1 d          39.866   4.427   4.092  0.00  0.00     0.204 C 
ATOM     29  O   AT1 d          38.628   4.263   3.862  0.00  0.00    -0.646 OA
ATOM     30  O1  AT1 d          40.785   4.302   3.250  0.00  0.00    -0.646 OA
ENDBRANCH  22  28
ENDBRANCH  19  22
ENDBRANCH   4  19
BRANCH   3  31
ATOM     31  O3  AT1 d          38.330   3.733   8.202  0.00  0.00    -0.319 OA
BRANCH  31  32
ATOM     32  C4  AT1 d          36.969   3.809   7.663  0.00  0.00     0.130 C 
ATOM     33  H7  AT1 d          36.850   4.732   7.077  0.00  0.00     0.096 H 
ATOM     34  H8  AT1 d          36.240   3.803   8.488  0.00  0.00     0.096 H 
BRANCH  32  35
ATOM     35  P   AT1 d          36.702   2.368   6.598  0.00  0.00     0.284 P 
ATOM     36  O4  AT1 d          35.971   1.323   7.361  0.00  0.00    -0.638 OA
ATOM     37  O5  AT1 d          35.971   2.925   5.407  0.00  0.00    -0.638 OA
ATOM     38  O6  AT1 d          38.124   1.901   6.140  0.00  0.00    -0.638 OA
ENDBRANCH  32  35
ENDBRANCH  31  32
ENDBRANCH   3  31
TORSDOF 11
ENDMDL
MODEL 4
REMARK VINA RESULT:      -5.5      2.929      6.133
REMARK  11 active torsions:
REMARK  status: ('A' for Active; 'I' for Inactive)
REMARK    1  A    between atoms: C1_4  and  N_1 
REMARK    2  A    between atoms: C_2  and  C1_4 
REMARK    3  A    between atoms: C6_13  and  C_2 
REMARK    4  A    between atoms: C1_4  and  C2_5 
REMARK    5  A    between atoms: O3_8  and  C4_11 
REMARK    6  A    between atoms: C5_12  and  O3_8 
REMARK    7  A    between atoms: C7_14  and  C3_10 
REMARK    8  A    between atoms: C3_10  and  C9_15 
REMARK    9  A    between atoms: C3_10  and  C10_16 
REMARK   10  A    between atoms: C3_10  and  C11_17 
REMARK   11  A    between atoms: C4_11  and  P_18 
ROOT
ATOM      1  O2  AT1 d          36.222   5.836   7.667  0.00  0.00    -0.214 OA
ATOM      2  N1  AT1 d          36.574   5.742   6.301  0.00  0.00    -0.102 NA
ATOM      3  C5  AT1 d          37.885   5.800   6.306  0.00  0.00     0.200 A 
ATOM      4  C6  AT1 d          38.451   5.927   7.617  0.00  0.00     0.032 A 
ATOM      5  C7  AT1 d          37.340   5.949   8.436  0.00  0.00     0.097 A 
ENDROOT
BRANCH   5   6
ATOM      6  C3  AT1 d          37.019   6.072   9.930  0.00  0.00     0.001 C 
BRANCH   6   7
ATOM      7  C9  AT1 d          38.325   5.790  10.711  0.00  0.00    -0.064 C 
ATOM      8  H9  AT1 d          38.736   6.736  11.091  0.00  0.00     0.028 H 
ATOM      9  H10 AT1 d          39.056   5.314  10.041  0.00  0.00     0.028 H 
ATOM     10  H11 AT1 d          38.108   5.118  11.555  0.00  0.00     0.028 H 
ENDBRANCH   6   7
BRANCH   6  11
ATOM     11  C10 AT1 d          36.544   7.485  10.256  0.00  0.00    -0.064 C 
ATOM     12  H12 AT1 d          37.286   8.213   9.894  0.00  0.00     0.028 H 
ATOM     13  H13 AT1 d          36.427   7.591  11.344  0.00  0.00     0.028 H 
ATOM     14  H14 AT1 d          35.578   7.670   9.763  0.00  0.00     0.028 H 
ENDBRANCH   6  11
BRANCH   6  15
ATOM     15  C11 AT1 d          35.970   5.079  10.411  0.00  0.00    -0.064 C 
ATOM     16  H15 AT1 d          35.050   5.202   9.820  0.00  0.00     0.028 H 
ATOM     17  H16 AT1 d          35.750   5.263  11.472  0.00  0.00     0.028 H 
ATOM     18  H17 AT1 d          36.350   4.054  10.286  0.00  0.00     0.028 H 
ENDBRANCH   6  15
ENDBRANCH   5   6
BRANCH   4  19
ATOM     19  C   AT1 d          39.931   6.014   7.840  0.00  0.00     0.002 C 
ATOM     20  H4  AT1 d          40.137   5.702   8.875  0.00  0.00     0.044 H 
ATOM     21  H5  AT1 d          40.421   5.319   7.143  0.00  0.00     0.044 H 
BRANCH  19  22
ATOM     22  C1  AT1 d          40.546   7.401   7.634  0.00  0.00     0.186 C 
ATOM     23  H6  AT1 d          39.798   8.035   7.134  0.00  0.00     0.101 H 
BRANCH  22  24
ATOM     24  N   AT1 d          41.804   7.337   6.755  0.00  0.00    -0.065 N 
ATOM     25  H1  AT1 d          42.623   7.438   7.334  0.00  0.00     0.275 HD
ATOM     26  H2  AT1 d          41.778   8.082   6.077  0.00  0.00     0.275 HD
ATOM     27  H3  AT1 d          41.837   6.450   6.279  0.00  0.00     0.275 HD
ENDBRANCH  22  24
BRANCH  22  28
ATOM     28  C2  AT1 d          40.938   8.066   9.012  0.00  0.00     0.204 C 
ATOM     29  O   AT1 d          40.108   8.882   9.517  0.00  0.00    -0.646 OA
ATOM     30  O1  AT1 d          42.038   7.742   9.517  0.00  0.00    -0.646 OA
ENDBRANCH  22  28
ENDBRANCH  19  22
ENDBRANCH   4  19
BRANCH   3  31
ATOM     31  O3  AT1 d          38.657   5.761   5.204  0.00  0.00    -0.319 OA
BRANCH  31  32
ATOM     32  C4  AT1 d          38.376   4.712   4.219  0.00  0.00     0.130 C 
ATOM     33  H7  AT1 d          38.137   5.167   3.247  0.00  0.00     0.096 H 
ATOM     34  H8  AT1 d          37.525   4.102   4.557  0.00  0.00     0.096 H 
BRANCH  32  35
ATOM     35  P   AT1 d          39.851   3.673   4.063  0.00  0.00     0.284 P 
ATOM     36  O4  AT1 d          40.366   3.345   5.418  0.00  0.00    -0.638 OA
ATOM     37  O5  AT1 d          39.385   2.497   3.249  0.00  0.00    -0.638 OA
ATOM     38  O6  AT1 d          40.872   4.499   3.211  0.00  0.00    -0.638 OA
ENDBRANCH  32  35
ENDBRANCH  31  32
ENDBRANCH   3  31
TORSDOF 11
ENDMDL
MODEL 5
REMARK VINA RESULT:      -5.4      1.553      1.993
REMARK  11 active torsions:
REMARK  status: ('A' for Active; 'I' for Inactive)
REMARK    1  A    between atoms: C1_4  and  N_1 
REMARK    2  A    between atoms: C_2  and  C1_4 
REMARK    3  A    between atoms: C6_13  and  C_2 
REMARK    4  A    between atoms: C1_4  and  C2_5 
REMARK    5  A    between atoms: O3_8  and  C4_11 
REMARK    6  A    between atoms: C5_12  and  O3_8 
REMARK    7  A    between atoms: C7_14  and  C3_10 
REMARK    8  A    between atoms: C3_10  and  C9_15 
REMARK    9  A    between atoms: C3_10  and  C10_16 
REMARK   10  A    between atoms: C3_10  and  C11_17 
REMARK   11  A    between atoms: C4_11  and  P_18 
ROOT
ATOM      1  O2  AT1 d          40.419   5.779   5.323  0.00  0.00    -0.214 OA
ATOM      2  N1  AT1 d          40.811   6.929   6.045  0.00  0.00    -0.102 NA
ATOM      3  C5  AT1 d          39.698   7.353   6.596  0.00  0.00     0.200 A 
ATOM      4  C6  AT1 d          38.557   6.543   6.288  0.00  0.00     0.032 A 
ATOM      5  C7  AT1 d          39.083   5.562   5.470  0.00  0.00     0.097 A 
ENDROOT
BRANCH   5   6
ATOM      6  C3  AT1 d          38.595   4.334   4.693  0.00  0.00     0.001 C 
BRANCH   6   7
ATOM      7  C9  AT1 d          39.644   4.031   3.597  0.00  0.00    -0.064 C 
ATOM      8  H9  AT1 d          39.131   3.779   2.658  0.00  0.00     0.028 H 
ATOM      9  H10 AT1 d          40.269   3.182   3.912  0.00  0.00     0.028 H 
ATOM     10  H11 AT1 d          40.278   4.917   3.441  0.00  0.00     0.028 H 
ENDBRANCH   6   7
BRANCH   6  11
ATOM     11  C10 AT1 d          38.488   3.127   5.620  0.00  0.00    -0.064 C 
ATOM     12  H12 AT1 d          39.384   3.073   6.256  0.00  0.00     0.028 H 
ATOM     13  H13 AT1 d          38.408   2.209   5.020  0.00  0.00     0.028 H 
ATOM     14  H14 AT1 d          37.594   3.230   6.254  0.00  0.00     0.028 H 
ENDBRANCH   6  11
BRANCH   6  15
ATOM     15  C11 AT1 d          37.254   4.543   4.003  0.00  0.00    -0.064 C 
ATOM     16  H15 AT1 d          37.404   4.588   2.915  0.00  0.00     0.028 H 
ATOM     17  H16 AT1 d          36.806   5.486   4.350  0.00  0.00     0.028 H 
ATOM     18  H17 AT1 d          36.582   3.706   4.245  0.00  0.00     0.028 H 
ENDBRANCH   6  15
ENDBRANCH   5   6
BRANCH   4  19
ATOM     19  C   AT1 d          37.189   6.858   6.816  0.00  0.00     0.002 C 
ATOM     20  H4  AT1 d          37.025   7.940   6.708  0.00  0.00     0.044 H 
ATOM     21  H5  AT1 d          36.456   6.313   6.205  0.00  0.00     0.044 H 
BRANCH  19  22
ATOM     22  C1  AT1 d          36.951   6.487   8.282  0.00  0.00     0.186 C 
ATOM     23  H6  AT1 d          35.869   6.529   8.474  0.00  0.00     0.101 H 
BRANCH  22  24
ATOM     24  N   AT1 d          37.659   7.462   9.235  0.00  0.00    -0.065 N 
ATOM     25  H1  AT1 d          38.268   8.067   8.705  0.00  0.00     0.275 HD
ATOM     26  H2  AT1 d          38.204   6.941   9.905  0.00  0.00     0.275 HD
ATOM     27  H3  AT1 d          36.972   8.017   9.719  0.00  0.00     0.275 HD
ENDBRANCH  22  24
BRANCH  22  28
ATOM     28  C2  AT1 d          37.467   5.026   8.596  0.00  0.00     0.204 C 
ATOM     29  O   AT1 d          36.690   4.065   8.308  0.00  0.00    -0.646 OA
ATOM     30  O1  AT1 d          38.607   4.913   9.102  0.00  0.00    -0.646 OA
ENDBRANCH  22  28
ENDBRANCH  19  22
ENDBRANCH   4  19
BRANCH   3  31
ATOM     31  O3  AT1 d          39.598   8.448   7.373  0.00  0.00    -0.319 OA
BRANCH  31  32
ATOM     32  C4  AT1 d          40.830   9.187   7.663  0.00  0.00     0.130 C 
ATOM     33  H7  AT1 d          40.622  10.267   7.684  0.00  0.00     0.096 H 
ATOM     34  H8  AT1 d          41.583   8.974   6.889  0.00  0.00     0.096 H 
BRANCH  32  35
ATOM     35  P   AT1 d          41.444   8.649   9.280  0.00  0.00     0.284 P 
ATOM     36  O4  AT1 d          40.625   7.506   9.760  0.00  0.00    -0.638 OA
ATOM     37  O5  AT1 d          42.896   8.342   9.035  0.00  0.00    -0.638 OA
ATOM     38  O6  AT1 d          41.347   9.900  10.216  0.00  0.00    -0.638 OA
ENDBRANCH  32  35
ENDBRANCH  31  32
ENDBRANCH   3  31
TORSDOF 11
ENDMDL
MODEL 6
REMARK VINA RESULT:      -5.1      1.327      1.896
REMARK  11 active torsions:
REMARK  status: ('A' for Active; 'I' for Inactive)
REMARK    1  A    between atoms: C1_4  and  N_1 
REMARK    2  A    between atoms: C_2  and  C1_4 
REMARK    3  A    between atoms: C6_13  and  C_2 
REMARK    4  A    between atoms: C1_4  and  C2_5 
REMARK    5  A    between atoms: O3_8  and  C4_11 
REMARK    6  A    between atoms: C5_12  and  O3_8 
REMARK    7  A    between atoms: C7_14  and  C3_10 
REMARK    8  A    between atoms: C3_10  and  C9_15 
REMARK    9  A    between atoms: C3_10  and  C10_16 
REMARK   10  A    between atoms: C3_10  and  C11_17 
REMARK   11  A    between atoms: C4_11  and  P_18 
ROOT
ATOM      1  O2  AT1 d          39.221   5.521   5.385  0.00  0.00    -0.214 OA
ATOM      2  N1  AT1 d          39.385   6.689   6.164  0.00  0.00    -0.102 NA
ATOM      3  C5  AT1 d          39.181   6.281   7.395  0.00  0.00     0.200 A 
ATOM      4  C6  AT1 d          38.887   4.883   7.497  0.00  0.00     0.032 A 
ATOM      5  C7  AT1 d          38.922   4.459   6.183  0.00  0.00     0.097 A 
ENDROOT
BRANCH   5   6
ATOM      6  C3  AT1 d          38.714   3.165   5.390  0.00  0.00     0.001 C 
BRANCH   6   7
ATOM      7  C9  AT1 d          37.201   2.840   5.417  0.00  0.00    -0.064 C 
ATOM      8  H9  AT1 d          36.908   2.380   4.463  0.00  0.00     0.028 H 
ATOM      9  H10 AT1 d          36.630   3.769   5.568  0.00  0.00     0.028 H 
ATOM     10  H11 AT1 d          36.991   2.142   6.241  0.00  0.00     0.028 H 
ENDBRANCH   6   7
BRANCH   6  11
ATOM     11  C10 AT1 d          39.152   3.354   3.941  0.00  0.00    -0.064 C 
ATOM     12  H12 AT1 d          39.568   2.410   3.557  0.00  0.00     0.028 H 
ATOM     13  H13 AT1 d          39.919   4.140   3.889  0.00  0.00     0.028 H 
ATOM     14  H14 AT1 d          38.284   3.647   3.331  0.00  0.00     0.028 H 
ENDBRANCH   6  11
BRANCH   6  15
ATOM     15  C11 AT1 d          39.453   1.968   5.973  0.00  0.00    -0.064 C 
ATOM     16  H15 AT1 d          40.247   1.654   5.281  0.00  0.00     0.028 H 
ATOM     17  H16 AT1 d          38.747   1.138   6.122  0.00  0.00     0.028 H 
ATOM     18  H17 AT1 d          39.900   2.248   6.939  0.00  0.00     0.028 H 
ENDBRANCH   6  15
ENDBRANCH   5   6
BRANCH   4  19
ATOM     19  C   AT1 d          38.618   4.219   8.815  0.00  0.00     0.002 C 
ATOM     20  H4  AT1 d          39.411   3.477   8.988  0.00  0.00     0.044 H 
ATOM     21  H5  AT1 d          38.659   4.990   9.597  0.00  0.00     0.044 H 
BRANCH  19  22
ATOM     22  C1  AT1 d          37.268   3.505   8.926  0.00  0.00     0.186 C 
ATOM     23  H6  AT1 d          36.902   3.305   7.908  0.00  0.00     0.101 H 
BRANCH  22  24
ATOM     24  N   AT1 d          36.231   4.366   9.662  0.00  0.00    -0.065 N 
ATOM     25  H1  AT1 d          36.086   3.998  10.589  0.00  0.00     0.275 HD
ATOM     26  H2  AT1 d          35.361   4.352   9.155  0.00  0.00     0.275 HD
ATOM     27  H3  AT1 d          36.567   5.315   9.727  0.00  0.00     0.275 HD
ENDBRANCH  22  24
BRANCH  22  28
ATOM     28  C2  AT1 d          37.407   2.132   9.696  0.00  0.00     0.204 C 
ATOM     29  O   AT1 d          38.240   1.293   9.235  0.00  0.00    -0.646 OA
ATOM     30  O1  AT1 d          36.691   1.964  10.711  0.00  0.00    -0.646 OA
ENDBRANCH  22  28
ENDBRANCH  19  22
ENDBRANCH   4  19
BRANCH   3  31
ATOM     31  O3  AT1 d          39.225   7.076   8.481  0.00  0.00    -0.319 OA
BRANCH  31  32
ATOM     32  C4  AT1 d          40.483   7.127   9.232  0.00  0.00     0.130 C 
ATOM     33  H7  AT1 d          41.149   6.318   8.899  0.00  0.00     0.096 H 
ATOM     34  H8  AT1 d          40.280   7.015  10.308  0.00  0.00     0.096 H 
BRANCH  32  35
ATOM     35  P   AT1 d          41.262   8.731   8.919  0.00  0.00     0.284 P 
ATOM     36  O4  AT1 d          40.806   9.708   9.942  0.00  0.00    -0.638 OA
ATOM     37  O5  AT1 d          42.736   8.429   8.930  0.00  0.00    -0.638 OA
ATOM     38  O6  AT1 d          40.845   9.138   7.466  0.00  0.00    -0.638 OA
ENDBRANCH  32  35
ENDBRANCH  31  32
ENDBRANCH   3  31
TORSDOF 11
ENDMDL
MODEL 7
REMARK VINA RESULT:      -4.0      1.988      2.568
REMARK  11 active torsions:
REMARK  status: ('A' for Active; 'I' for Inactive)
REMARK    1  A    between atoms: C1_4  and  N_1 
REMARK    2  A    between atoms: C_2  and  C1_4 
REMARK    3  A    between atoms: C6_13  and  C_2 
REMARK    4  A    between atoms: C1_4  and  C2_5 
REMARK    5  A    between atoms: O3_8  and  C4_11 
REMARK    6  A    between atoms: C5_12  and  O3_8 
REMARK    7  A    between atoms: C7_14  and  C3_10 
REMARK    8  A    between atoms: C3_10  and  C9_15 
REMARK    9  A    between atoms: C3_10  and  C10_16 
REMARK   10  A    between atoms: C3_10  and  C11_17 
REMARK   11  A    between atoms: C4_11  and  P_18 
ROOT
ATOM      1  O2  AT1 d          38.620   5.563   5.005  0.00  0.00    -0.214 OA
ATOM      2  N1  AT1 d          38.898   6.766   5.694  0.00  0.00    -0.102 NA
ATOM      3  C5  AT1 d          38.971   6.402   6.953  0.00  0.00     0.200 A 
ATOM      4  C6  AT1 d          38.759   5.001   7.161  0.00  0.00     0.032 A 
ATOM      5  C7  AT1 d          38.536   4.525   5.883  0.00  0.00     0.097 A 
ENDROOT
BRANCH   5   6
ATOM      6  C3  AT1 d          38.219   3.194   5.195  0.00  0.00     0.001 C 
BRANCH   6   7
ATOM      7  C9  AT1 d          36.688   2.981   5.276  0.00  0.00    -0.064 C 
ATOM      8  H9  AT1 d          36.188   3.955   5.370  0.00  0.00     0.028 H 
ATOM      9  H10 AT1 d          36.451   2.361   6.153  0.00  0.00     0.028 H 
ATOM     10  H11 AT1 d          36.339   2.476   4.363  0.00  0.00     0.028 H 
ENDBRANCH   6   7
BRANCH   6  11
ATOM     11  C10 AT1 d          38.633   3.243   3.727  0.00  0.00    -0.064 C 
ATOM     12  H12 AT1 d          37.735   3.310   3.095  0.00  0.00     0.028 H 
ATOM     13  H13 AT1 d          39.193   2.332   3.473  0.00  0.00     0.028 H 
ATOM     14  H14 AT1 d          39.269   4.124   3.556  0.00  0.00     0.028 H 
ENDBRANCH   6  11
BRANCH   6  15
ATOM     15  C11 AT1 d          38.887   1.994   5.853  0.00  0.00    -0.064 C 
ATOM     16  H15 AT1 d          39.768   1.696   5.266  0.00  0.00     0.028 H 
ATOM     17  H16 AT1 d          38.176   1.156   5.895  0.00  0.00     0.028 H 
ATOM     18  H17 AT1 d          39.200   2.262   6.873  0.00  0.00     0.028 H 
ENDBRANCH   6  15
ENDBRANCH   5   6
BRANCH   4  19
ATOM     19  C   AT1 d          38.798   4.383   8.527  0.00  0.00     0.002 C 
ATOM     20  H4  AT1 d          39.449   3.498   8.480  0.00  0.00     0.044 H 
ATOM     21  H5  AT1 d          39.228   5.120   9.220  0.00  0.00     0.044 H 
BRANCH  19  22
ATOM     22  C1  AT1 d          37.442   3.944   9.086  0.00  0.00     0.186 C 
ATOM     23  H6  AT1 d          36.655   4.355   8.437  0.00  0.00     0.101 H 
BRANCH  22  24
ATOM     24  N   AT1 d          37.224   4.464  10.515  0.00  0.00    -0.065 N 
ATOM     25  H1  AT1 d          37.204   5.472  10.506  0.00  0.00     0.275 HD
ATOM     26  H2  AT1 d          37.977   4.148  11.106  0.00  0.00     0.275 HD
ATOM     27  H3  AT1 d          36.348   4.115  10.870  0.00  0.00     0.275 HD
ENDBRANCH  22  24
BRANCH  22  28
ATOM     28  C2  AT1 d          37.313   2.369   9.108  0.00  0.00     0.204 C 
ATOM     29  O   AT1 d          38.295   1.716   9.578  0.00  0.00    -0.646 OA
ATOM     30  O1  AT1 d          36.252   1.870   8.667  0.00  0.00    -0.646 OA
ENDBRANCH  22  28
ENDBRANCH  19  22
ENDBRANCH   4  19
BRANCH   3  31
ATOM     31  O3  AT1 d          39.209   7.242   7.979  0.00  0.00    -0.319 OA
BRANCH  31  32
ATOM     32  C4  AT1 d          38.089   8.058   8.458  0.00  0.00     0.130 C 
ATOM     33  H7  AT1 d          37.137   7.614   8.131  0.00  0.00     0.096 H 
ATOM     34  H8  AT1 d          38.174   9.079   8.058  0.00  0.00     0.096 H 
BRANCH  32  35
ATOM     35  P   AT1 d          38.156   8.100  10.267  0.00  0.00     0.284 P 
ATOM     36  O4  AT1 d          38.848   9.341  10.704  0.00  0.00    -0.638 OA
ATOM     37  O5  AT1 d          36.716   7.985  10.688  0.00  0.00    -0.638 OA
ATOM     38  O6  AT1 d          38.911   6.800  10.702  0.00  0.00    -0.638 OA
ENDBRANCH  32  35
ENDBRANCH  31  32
ENDBRANCH   3  31
TORSDOF 11
ENDMDL
MODEL 8
REMARK VINA RESULT:      -3.8      2.539      5.624
REMARK  11 active torsions:
REMARK  status: ('A' for Active; 'I' for Inactive)
REMARK    1  A    between atoms: C1_4  and  N_1 
REMARK    2  A    between atoms: C_2  and  C1_4 
REMARK    3  A    between atoms: C6_13  and  C_2 
REMARK    4  A    between atoms: C1_4  and  C2_5 
REMARK    5  A    between atoms: O3_8  and  C4_11 
REMARK    6  A    between atoms: C5_12  and  O3_8 
REMARK    7  A    between atoms: C7_14  and  C3_10 
REMARK    8  A    between atoms: C3_10  and  C9_15 
REMARK    9  A    between atoms: C3_10  and  C10_16 
REMARK   10  A    between atoms: C3_10  and  C11_17 
REMARK   11  A    between atoms: C4_11  and  P_18 
ROOT
ATOM      1  O2  AT1 d          37.304   3.576   7.447  0.00  0.00    -0.214 OA
ATOM      2  N1  AT1 d          37.981   4.291   6.433  0.00  0.00    -0.102 NA
ATOM      3  C5  AT1 d          38.769   5.108   7.091  0.00  0.00     0.200 A 
ATOM      4  C6  AT1 d          38.667   4.984   8.515  0.00  0.00     0.032 A 
ATOM      5  C7  AT1 d          37.714   3.997   8.676  0.00  0.00     0.097 A 
ENDROOT
BRANCH   5   6
ATOM      6  C3  AT1 d          37.000   3.268   9.818  0.00  0.00     0.001 C 
BRANCH   6   7
ATOM      7  C9  AT1 d          36.028   2.246   9.182  0.00  0.00    -0.064 C 
ATOM      8  H9  AT1 d          35.307   1.906   9.939  0.00  0.00     0.028 H 
ATOM      9  H10 AT1 d          36.599   1.383   8.805  0.00  0.00     0.028 H 
ATOM     10  H11 AT1 d          35.489   2.722   8.349  0.00  0.00     0.028 H 
ENDBRANCH   6   7
BRANCH   6  11
ATOM     11  C10 AT1 d          38.009   2.518  10.682  0.00  0.00    -0.064 C 
ATOM     12  H12 AT1 d          38.292   1.579  10.184  0.00  0.00     0.028 H 
ATOM     13  H13 AT1 d          37.559   2.293  11.660  0.00  0.00     0.028 H 
ATOM     14  H14 AT1 d          38.904   3.142  10.825  0.00  0.00     0.028 H 
ENDBRANCH   6  11
BRANCH   6  15
ATOM     15  C11 AT1 d          36.180   4.190  10.711  0.00  0.00    -0.064 C 
ATOM     16  H15 AT1 d          35.349   3.625  11.158  0.00  0.00     0.028 H 
ATOM     17  H16 AT1 d          35.777   5.019  10.110  0.00  0.00     0.028 H 
ATOM     18  H17 AT1 d          36.820   4.593  11.509  0.00  0.00     0.028 H 
ENDBRANCH   6  15
ENDBRANCH   5   6
BRANCH   4  19
ATOM     19  C   AT1 d          39.481   5.829   9.449  0.00  0.00     0.002 C 
ATOM     20  H4  AT1 d          39.402   5.394  10.456  0.00  0.00     0.044 H 
ATOM     21  H5  AT1 d          40.528   5.793   9.115  0.00  0.00     0.044 H 
BRANCH  19  22
ATOM     22  C1  AT1 d          39.063   7.300   9.535  0.00  0.00     0.186 C 
ATOM     23  H6  AT1 d          38.718   7.498  10.560  0.00  0.00     0.101 H 
BRANCH  22  24
ATOM     24  N   AT1 d          37.921   7.621   8.560  0.00  0.00    -0.065 N 
ATOM     25  H1  AT1 d          37.271   6.851   8.538  0.00  0.00     0.275 HD
ATOM     26  H2  AT1 d          38.298   7.768   7.637  0.00  0.00     0.275 HD
ATOM     27  H3  AT1 d          37.443   8.455   8.865  0.00  0.00     0.275 HD
ENDBRANCH  22  24
BRANCH  22  28
ATOM     28  C2  AT1 d          40.275   8.261   9.211  0.00  0.00     0.204 C 
ATOM     29  O   AT1 d          40.002   9.480   8.988  0.00  0.00    -0.646 OA
ATOM     30  O1  AT1 d          41.423   7.759   9.199  0.00  0.00    -0.646 OA
ENDBRANCH  22  28
ENDBRANCH  19  22
ENDBRANCH   4  19
BRANCH   3  31
ATOM     31  O3  AT1 d          39.600   5.999   6.517  0.00  0.00    -0.319 OA
BRANCH  31  32
ATOM     32  C4  AT1 d          39.544   6.132   5.058  0.00  0.00     0.130 C 
ATOM     33  H7  AT1 d          40.148   6.994   4.739  0.00  0.00     0.096 H 
ATOM     34  H8  AT1 d          38.501   6.277   4.737  0.00  0.00     0.096 H 
BRANCH  32  35
ATOM     35  P   AT1 d          40.207   4.615   4.326  0.00  0.00     0.284 P 
ATOM     36  O4  AT1 d          40.861   3.804   5.386  0.00  0.00    -0.638 OA
ATOM     37  O5  AT1 d          39.013   3.974   3.672  0.00  0.00    -0.638 OA
ATOM     38  O6  AT1 d          41.204   5.073   3.211  0.00  0.00    -0.638 OA
ENDBRANCH  32  35
ENDBRANCH  31  32
ENDBRANCH   3  31
TORSDOF 11
ENDMDL
