MODEL 1
REMARK VINA RESULT:      -6.2      0.000      0.000
REMARK  5 active torsions:
REMARK  status: ('A' for Active; 'I' for Inactive)
REMARK    1  A    between atoms: N_1  and  CA_2 
REMARK    2  A    between atoms: CA_2  and  C_3 
REMARK    3  A    between atoms: CA_2  and  CB_6 
REMARK    4  A    between atoms: CB_6  and  CG_7 
REMARK    5  A    between atoms: CD2_9  and  CE2_10 
ROOT
ATOM      1  CB  MOL d          45.325  26.011  42.226  0.00  0.00     0.002 C 
ATOM      2  H5  MOL d          44.775  26.842  42.692  0.00  0.00     0.044 H 
ATOM      3  H6  MOL d          44.948  25.056  42.621  0.00  0.00     0.044 H 
ENDROOT
BRANCH   1   4
ATOM      4  CA  MOL d          46.821  26.141  42.604  0.00  0.00     0.186 C 
ATOM      5  H4  MOL d          47.267  26.952  42.009  0.00  0.00     0.101 H 
BRANCH   4   6
ATOM      6  N   MOL d          47.531  24.857  42.305  0.00  0.00    -0.065 N 
ATOM      7  H1  MOL d          47.423  24.633  41.328  0.00  0.00     0.275 HD
ATOM      8  H2  MOL d          47.137  24.117  42.865  0.00  0.00     0.275 HD
ATOM      9  H3  MOL d          48.511  24.957  42.520  0.00  0.00     0.275 HD
ENDBRANCH   4   6
BRANCH   4  10
ATOM     10  C   MOL d          47.007  26.466  44.135  0.00  0.00     0.204 C 
ATOM     11  OT1 MOL d          46.603  27.588  44.547  0.00  0.00    -0.646 OA
ATOM     12  OT2 MOL d          47.611  25.606  44.837  0.00  0.00    -0.646 OA
ENDBRANCH   4  10
ENDBRANCH   1   4
BRANCH   1  13
ATOM     13  CG  MOL d          45.071  26.045  40.745  0.00  0.00     0.031 A 
ATOM     14  CD1 MOL d          44.740  27.164  39.932  0.00  0.00     0.207 A 
ATOM     15  OE1 MOL d          44.525  28.318  40.566  0.00  0.00    -0.170 OA
ATOM     16  NE1 MOL d          44.645  26.994  38.646  0.00  0.00    -0.236 N 
ATOM     17  OE2 MOL d          44.934  25.583  38.535  0.00  0.00    -0.240 OA
ATOM     18  H10 MOL d          44.429  27.659  37.931  0.00  0.00     0.197 HD
ATOM     19  CD2 MOL d          45.175  25.078  39.794  0.00  0.00     0.083 A 
BRANCH  19  20
ATOM     20  CE2 MOL d          45.410  23.613  39.870  0.00  0.00    -0.029 C 
ATOM     21  H7  MOL d          45.425  23.191  38.854  0.00  0.00     0.036 H 
ATOM     22  H8  MOL d          44.603  23.142  40.451  0.00  0.00     0.036 H 
ATOM     23  H9  MOL d          46.376  23.421  40.360  0.00  0.00     0.036 H 
ENDBRANCH  19  20
ENDBRANCH   1  13
TORSDOF 5
ENDMDL
