MODEL 1
REMARK VINA RESULT:      -5.4      0.000      0.000
REMARK  9 active torsions:
REMARK  status: ('A' for Active; 'I' for Inactive)
REMARK    1  A    between atoms: C1_1  and  C2_3 
REMARK    2  A    between atoms: C2_3  and  C3_4 
REMARK    3  A    between atoms: C3_4  and  C4_5 
REMARK    4  A    between atoms: C4_5  and  C5_6 
REMARK    5  A    between atoms: C5_6  and  C6_7 
REMARK    6  A    between atoms: C6_7  and  C7_8 
REMARK    7  A    between atoms: C7_8  and  C8_9 
REMARK    8  A    between atoms: C8_9  and  C9_10 
REMARK    9  A    between atoms: C9_10  and  C10_11 
ROOT
ATOM      1  C6  DKA d           1.210   0.175  22.472  0.00  0.00    -0.065 C 
ATOM      2  H9  DKA d           1.020   0.267  23.551  0.00  0.00     0.033 H 
ATOM      3  H10 DKA d           0.255   0.202  21.927  0.00  0.00     0.033 H 
ENDROOT
BRANCH   1   4
ATOM      4  C5  DKA d           1.901  -1.162  22.200  0.00  0.00    -0.065 C 
ATOM      5  H7  DKA d           1.545  -1.555  21.236  0.00  0.00     0.033 H 
ATOM      6  H8  DKA d           2.987  -0.995  22.150  0.00  0.00     0.033 H 
BRANCH   4   7
ATOM      7  C4  DKA d           1.613  -2.189  23.283  0.00  0.00    -0.065 C 
ATOM      8  H5  DKA d           0.775  -2.823  22.959  0.00  0.00     0.033 H 
ATOM      9  H6  DKA d           2.507  -2.811  23.432  0.00  0.00     0.033 H 
BRANCH   7  10
ATOM     10  C3  DKA d           1.247  -1.521  24.605  0.00  0.00    -0.056 C 
ATOM     11  H3  DKA d           2.101  -1.626  25.291  0.00  0.00     0.033 H 
ATOM     12  H4  DKA d           1.061  -0.454  24.411  0.00  0.00     0.033 H 
BRANCH  10  13
ATOM     13  C2  DKA d           0.003  -2.109  25.294  0.00  0.00     0.016 C 
ATOM     14  H1  DKA d          -0.586  -1.289  25.733  0.00  0.00     0.049 H 
ATOM     15  H2  DKA d          -0.606  -2.639  24.547  0.00  0.00     0.049 H 
BRANCH  13  16
ATOM     16  C1  DKA d           0.399  -3.082  26.395  0.00  0.00     0.172 C 
ATOM     17  O1  DKA d           0.469  -2.749  27.577  0.00  0.00    -0.648 OA
ATOM     18  O2  DKA d           0.709  -4.357  26.135  0.00  0.00    -0.648 OA
ENDBRANCH  13  16
ENDBRANCH  10  13
ENDBRANCH   7  10
ENDBRANCH   4   7
ENDBRANCH   1   4
BRANCH   1  19
ATOM     19  C7  DKA d           2.069   1.339  22.020  0.00  0.00    -0.065 C 
ATOM     20  H11 DKA d           1.411   2.139  21.650  0.00  0.00     0.033 H 
ATOM     21  H12 DKA d           2.726   0.997  21.207  0.00  0.00     0.033 H 
BRANCH  19  22
ATOM     22  C8  DKA d           2.935   1.900  23.145  0.00  0.00    -0.065 C 
ATOM     23  H13 DKA d           3.831   1.271  23.259  0.00  0.00     0.033 H 
ATOM     24  H14 DKA d           2.359   1.892  24.082  0.00  0.00     0.033 H 
BRANCH  22  25
ATOM     25  C9  DKA d           3.363   3.327  22.835  0.00  0.00    -0.069 C 
ATOM     26  H15 DKA d           4.270   3.299  22.214  0.00  0.00     0.032 H 
ATOM     27  H16 DKA d           3.582   3.846  23.780  0.00  0.00     0.032 H 
BRANCH  25  28
ATOM     28  C10 DKA d           2.288   4.090  22.096  0.00  0.00    -0.077 C 
ATOM     29  H17 DKA d           2.078   5.031  22.625  0.00  0.00     0.027 H 
ATOM     30  H18 DKA d           1.372   3.482  22.051  0.00  0.00     0.027 H 
ATOM     31  H19 DKA d           2.632   4.311  21.075  0.00  0.00     0.027 H 
ENDBRANCH  25  28
ENDBRANCH  22  25
ENDBRANCH  19  22
ENDBRANCH   1  19
TORSDOF 9
ENDMDL
MODEL 2
REMARK VINA RESULT:      -5.3      4.091      6.614
REMARK  9 active torsions:
REMARK  status: ('A' for Active; 'I' for Inactive)
REMARK    1  A    between atoms: C1_1  and  C2_3 
REMARK    2  A    between atoms: C2_3  and  C3_4 
REMARK    3  A    between atoms: C3_4  and  C4_5 
REMARK    4  A    between atoms: C4_5  and  C5_6 
REMARK    5  A    between atoms: C5_6  and  C6_7 
REMARK    6  A    between atoms: C6_7  and  C7_8 
REMARK    7  A    between atoms: C7_8  and  C8_9 
REMARK    8  A    between atoms: C8_9  and  C9_10 
REMARK    9  A    between atoms: C9_10  and  C10_11 
ROOT
ATOM      1  C6  DKA d           1.368  -1.055  23.991  0.00  0.00    -0.065 C 
ATOM      2  H9  DKA d           0.483  -0.753  24.571  0.00  0.00     0.033 H 
ATOM      3  H10 DKA d           2.278  -0.719  24.509  0.00  0.00     0.033 H 
ENDROOT
BRANCH   1   4
ATOM      4  C5  DKA d           1.307  -0.396  22.612  0.00  0.00    -0.065 C 
ATOM      5  H7  DKA d           1.096  -1.170  21.859  0.00  0.00     0.033 H 
ATOM      6  H8  DKA d           0.496   0.347  22.611  0.00  0.00     0.033 H 
BRANCH   4   7
ATOM      7  C4  DKA d           2.609   0.299  22.248  0.00  0.00    -0.065 C 
ATOM      8  H5  DKA d           3.445  -0.393  22.426  0.00  0.00     0.033 H 
ATOM      9  H6  DKA d           2.581   0.576  21.185  0.00  0.00     0.033 H 
BRANCH   7  10
ATOM     10  C3  DKA d           2.823   1.559  23.083  0.00  0.00    -0.056 C 
ATOM     11  H3  DKA d           1.880   2.125  23.099  0.00  0.00     0.033 H 
ATOM     12  H4  DKA d           3.084   1.252  24.107  0.00  0.00     0.033 H 
BRANCH  10  13
ATOM     13  C2  DKA d           3.932   2.489  22.561  0.00  0.00     0.016 C 
ATOM     14  H1  DKA d           4.240   3.170  23.368  0.00  0.00     0.049 H 
ATOM     15  H2  DKA d           4.794   1.881  22.247  0.00  0.00     0.049 H 
BRANCH  13  16
ATOM     16  C1  DKA d           3.443   3.309  21.377  0.00  0.00     0.172 C 
ATOM     17  O1  DKA d           2.294   3.744  21.304  0.00  0.00    -0.648 OA
ATOM     18  O2  DKA d           4.233   3.591  20.336  0.00  0.00    -0.648 OA
ENDBRANCH  13  16
ENDBRANCH  10  13
ENDBRANCH   7  10
ENDBRANCH   4   7
ENDBRANCH   1   4
BRANCH   1  19
ATOM     19  C7  DKA d           1.392  -2.565  23.878  0.00  0.00    -0.065 C 
ATOM     20  H11 DKA d           2.371  -2.929  24.222  0.00  0.00     0.033 H 
ATOM     21  H12 DKA d           1.247  -2.842  22.823  0.00  0.00     0.033 H 
BRANCH  19  22
ATOM     22  C8  DKA d           0.302  -3.233  24.712  0.00  0.00    -0.065 C 
ATOM     23  H13 DKA d           0.734  -4.091  25.249  0.00  0.00     0.033 H 
ATOM     24  H14 DKA d          -0.499  -3.584  24.046  0.00  0.00     0.033 H 
BRANCH  22  25
ATOM     25  C9  DKA d          -0.280  -2.254  25.721  0.00  0.00    -0.069 C 
ATOM     26  H15 DKA d          -1.370  -2.203  25.580  0.00  0.00     0.032 H 
ATOM     27  H16 DKA d           0.158  -1.260  25.546  0.00  0.00     0.032 H 
BRANCH  25  28
ATOM     28  C10 DKA d           0.009  -2.672  27.144  0.00  0.00    -0.077 C 
ATOM     29  H17 DKA d          -0.636  -3.520  27.415  0.00  0.00     0.027 H 
ATOM     30  H18 DKA d          -0.190  -1.828  27.821  0.00  0.00     0.027 H 
ATOM     31  H19 DKA d           1.064  -2.971  27.230  0.00  0.00     0.027 H 
ENDBRANCH  25  28
ENDBRANCH  22  25
ENDBRANCH  19  22
ENDBRANCH   1  19
TORSDOF 9
ENDMDL
MODEL 3
REMARK VINA RESULT:      -5.0      1.126      1.774
REMARK  9 active torsions:
REMARK  status: ('A' for Active; 'I' for Inactive)
REMARK    1  A    between atoms: C1_1  and  C2_3 
REMARK    2  A    between atoms: C2_3  and  C3_4 
REMARK    3  A    between atoms: C3_4  and  C4_5 
REMARK    4  A    between atoms: C4_5  and  C5_6 
REMARK    5  A    between atoms: C5_6  and  C6_7 
REMARK    6  A    between atoms: C6_7  and  C7_8 
REMARK    7  A    between atoms: C7_8  and  C8_9 
REMARK    8  A    between atoms: C8_9  and  C9_10 
REMARK    9  A    between atoms: C9_10  and  C10_11 
ROOT
ATOM      1  C6  DKA d           3.213  -0.978  21.717  0.00  0.00    -0.065 C 
ATOM      2  H9  DKA d           3.642  -1.964  21.486  0.00  0.00     0.033 H 
ATOM      3  H10 DKA d           3.584  -0.636  22.695  0.00  0.00     0.033 H 
ENDROOT
BRANCH   1   4
ATOM      4  C5  DKA d           1.690  -1.099  21.776  0.00  0.00    -0.065 C 
ATOM      5  H7  DKA d           1.259  -0.565  20.916  0.00  0.00     0.033 H 
ATOM      6  H8  DKA d           1.417  -2.163  21.722  0.00  0.00     0.033 H 
BRANCH   4   7
ATOM      7  C4  DKA d           1.115  -0.511  23.055  0.00  0.00    -0.065 C 
ATOM      8  H5  DKA d           1.533   0.496  23.204  0.00  0.00     0.033 H 
ATOM      9  H6  DKA d           0.022  -0.443  22.957  0.00  0.00     0.033 H 
BRANCH   7  10
ATOM     10  C3  DKA d           1.452  -1.372  24.268  0.00  0.00    -0.056 C 
ATOM     11  H3  DKA d           2.142  -2.166  23.946  0.00  0.00     0.033 H 
ATOM     12  H4  DKA d           1.949  -0.735  25.015  0.00  0.00     0.033 H 
BRANCH  10  13
ATOM     13  C2  DKA d           0.235  -2.036  24.937  0.00  0.00     0.016 C 
ATOM     14  H1  DKA d          -0.409  -1.256  25.367  0.00  0.00     0.049 H 
ATOM     15  H2  DKA d          -0.329  -2.601  24.180  0.00  0.00     0.049 H 
BRANCH  13  16
ATOM     16  C1  DKA d           0.673  -2.986  26.042  0.00  0.00     0.172 C 
ATOM     17  O1  DKA d           1.097  -4.118  25.811  0.00  0.00    -0.648 OA
ATOM     18  O2  DKA d           0.608  -2.648  27.334  0.00  0.00    -0.648 OA
ENDBRANCH  13  16
ENDBRANCH  10  13
ENDBRANCH   7  10
ENDBRANCH   4   7
ENDBRANCH   1   4
BRANCH   1  19
ATOM     19  C7  DKA d           3.645   0.009  20.652  0.00  0.00    -0.065 C 
ATOM     20  H11 DKA d           3.107  -0.219  19.721  0.00  0.00     0.033 H 
ATOM     21  H12 DKA d           4.728  -0.101  20.488  0.00  0.00     0.033 H 
BRANCH  19  22
ATOM     22  C8  DKA d           3.355   1.456  21.042  0.00  0.00    -0.065 C 
ATOM     23  H13 DKA d           2.268   1.588  21.159  0.00  0.00     0.033 H 
ATOM     24  H14 DKA d           3.721   2.124  20.249  0.00  0.00     0.033 H 
BRANCH  22  25
ATOM     25  C9  DKA d           4.045   1.811  22.352  0.00  0.00    -0.069 C 
ATOM     26  H15 DKA d           4.949   2.396  22.130  0.00  0.00     0.032 H 
ATOM     27  H16 DKA d           4.327   0.881  22.868  0.00  0.00     0.032 H 
BRANCH  25  28
ATOM     28  C10 DKA d           3.149   2.619  23.260  0.00  0.00    -0.077 C 
ATOM     29  H17 DKA d           2.148   2.164  23.286  0.00  0.00     0.027 H 
ATOM     30  H18 DKA d           3.074   3.649  22.880  0.00  0.00     0.027 H 
ATOM     31  H19 DKA d           3.572   2.633  24.275  0.00  0.00     0.027 H 
ENDBRANCH  25  28
ENDBRANCH  22  25
ENDBRANCH  19  22
ENDBRANCH   1  19
TORSDOF 9
ENDMDL
MODEL 4
REMARK VINA RESULT:      -4.6      1.481      2.141
REMARK  9 active torsions:
REMARK  status: ('A' for Active; 'I' for Inactive)
REMARK    1  A    between atoms: C1_1  and  C2_3 
REMARK    2  A    between atoms: C2_3  and  C3_4 
REMARK    3  A    between atoms: C3_4  and  C4_5 
REMARK    4  A    between atoms: C4_5  and  C5_6 
REMARK    5  A    between atoms: C5_6  and  C6_7 
REMARK    6  A    between atoms: C6_7  and  C7_8 
REMARK    7  A    between atoms: C7_8  and  C8_9 
REMARK    8  A    between atoms: C8_9  and  C9_10 
REMARK    9  A    between atoms: C9_10  and  C10_11 
ROOT
ATOM      1  C6  DKA d           3.035   1.283  23.090  0.00  0.00    -0.065 C 
ATOM      2  H9  DKA d           4.026   0.950  22.747  0.00  0.00     0.033 H 
ATOM      3  H10 DKA d           2.837   0.870  24.090  0.00  0.00     0.033 H 
ENDROOT
BRANCH   1   4
ATOM      4  C5  DKA d           1.973   0.768  22.119  0.00  0.00    -0.065 C 
ATOM      5  H7  DKA d           1.374   1.621  21.765  0.00  0.00     0.033 H 
ATOM      6  H8  DKA d           2.476   0.293  21.264  0.00  0.00     0.033 H 
BRANCH   4   7
ATOM      7  C4  DKA d           1.044  -0.246  22.766  0.00  0.00    -0.065 C 
ATOM      8  H5  DKA d           0.361   0.281  23.450  0.00  0.00     0.033 H 
ATOM      9  H6  DKA d           0.461  -0.748  21.981  0.00  0.00     0.033 H 
BRANCH   7  10
ATOM     10  C3  DKA d           1.822  -1.295  23.555  0.00  0.00    -0.056 C 
ATOM     11  H3  DKA d           2.074  -2.120  22.872  0.00  0.00     0.033 H 
ATOM     12  H4  DKA d           2.748  -0.830  23.925  0.00  0.00     0.033 H 
BRANCH  10  13
ATOM     13  C2  DKA d           1.064  -1.882  24.758  0.00  0.00     0.016 C 
ATOM     14  H1  DKA d           1.558  -1.560  25.687  0.00  0.00     0.049 H 
ATOM     15  H2  DKA d           0.028  -1.510  24.747  0.00  0.00     0.049 H 
BRANCH  13  16
ATOM     16  C1  DKA d           1.048  -3.402  24.703  0.00  0.00     0.172 C 
ATOM     17  O1  DKA d           0.022  -4.044  24.481  0.00  0.00    -0.648 OA
ATOM     18  O2  DKA d           2.151  -4.130  24.906  0.00  0.00    -0.648 OA
ENDBRANCH  13  16
ENDBRANCH  10  13
ENDBRANCH   7  10
ENDBRANCH   4   7
ENDBRANCH   1   4
BRANCH   1  19
ATOM     19  C7  DKA d           3.023   2.796  23.168  0.00  0.00    -0.065 C 
ATOM     20  H11 DKA d           3.267   3.097  24.197  0.00  0.00     0.033 H 
ATOM     21  H12 DKA d           2.015   3.154  22.909  0.00  0.00     0.033 H 
BRANCH  19  22
ATOM     22  C8  DKA d           4.030   3.440  22.218  0.00  0.00    -0.065 C 
ATOM     23  H13 DKA d           4.730   2.671  21.858  0.00  0.00     0.033 H 
ATOM     24  H14 DKA d           4.587   4.219  22.757  0.00  0.00     0.033 H 
BRANCH  22  25
ATOM     25  C9  DKA d           3.320   4.068  21.027  0.00  0.00    -0.069 C 
ATOM     26  H15 DKA d           3.639   5.116  20.935  0.00  0.00     0.032 H 
ATOM     27  H16 DKA d           2.234   4.028  21.198  0.00  0.00     0.032 H 
BRANCH  25  28
ATOM     28  C10 DKA d           3.638   3.346  19.738  0.00  0.00    -0.077 C 
ATOM     29  H17 DKA d           2.860   2.595  19.538  0.00  0.00     0.027 H 
ATOM     30  H18 DKA d           4.615   2.849  19.827  0.00  0.00     0.027 H 
ATOM     31  H19 DKA d           3.669   4.070  18.911  0.00  0.00     0.027 H 
ENDBRANCH  25  28
ENDBRANCH  22  25
ENDBRANCH  19  22
ENDBRANCH   1  19
TORSDOF 9
ENDMDL
MODEL 5
REMARK VINA RESULT:      -4.5      3.600      6.022
REMARK  9 active torsions:
REMARK  status: ('A' for Active; 'I' for Inactive)
REMARK    1  A    between atoms: C1_1  and  C2_3 
REMARK    2  A    between atoms: C2_3  and  C3_4 
REMARK    3  A    between atoms: C3_4  and  C4_5 
REMARK    4  A    between atoms: C4_5  and  C5_6 
REMARK    5  A    between atoms: C5_6  and  C6_7 
REMARK    6  A    between atoms: C6_7  and  C7_8 
REMARK    7  A    between atoms: C7_8  and  C8_9 
REMARK    8  A    between atoms: C8_9  and  C9_10 
REMARK    9  A    between atoms: C9_10  and  C10_11 
ROOT
ATOM      1  C6  DKA d           1.075   0.109  22.534  0.00  0.00    -0.065 C 
ATOM      2  H9  DKA d           0.540   0.092  21.573  0.00  0.00     0.033 H 
ATOM      3  H10 DKA d           0.445   0.595  23.295  0.00  0.00     0.033 H 
ENDROOT
BRANCH   1   4
ATOM      4  C5  DKA d           2.367   0.910  22.371  0.00  0.00    -0.065 C 
ATOM      5  H7  DKA d           2.190   1.724  21.652  0.00  0.00     0.033 H 
ATOM      6  H8  DKA d           2.644   1.336  23.347  0.00  0.00     0.033 H 
BRANCH   4   7
ATOM      7  C4  DKA d           3.516   0.053  21.866  0.00  0.00    -0.065 C 
ATOM      8  H5  DKA d           4.239  -0.091  22.682  0.00  0.00     0.033 H 
ATOM      9  H6  DKA d           3.121  -0.923  21.550  0.00  0.00     0.033 H 
BRANCH   7  10
ATOM     10  C3  DKA d           4.226   0.707  20.684  0.00  0.00    -0.056 C 
ATOM     11  H3  DKA d           4.040   1.790  20.728  0.00  0.00     0.033 H 
ATOM     12  H4  DKA d           5.305   0.515  20.782  0.00  0.00     0.033 H 
BRANCH  10  13
ATOM     13  C2  DKA d           3.771   0.198  19.305  0.00  0.00     0.016 C 
ATOM     14  H1  DKA d           2.853   0.728  19.011  0.00  0.00     0.049 H 
ATOM     15  H2  DKA d           4.562   0.399  18.568  0.00  0.00     0.049 H 
BRANCH  13  16
ATOM     16  C1  DKA d           3.492  -1.298  19.341  0.00  0.00     0.172 C 
ATOM     17  O1  DKA d           2.352  -1.758  19.305  0.00  0.00    -0.648 OA
ATOM     18  O2  DKA d           4.476  -2.199  19.430  0.00  0.00    -0.648 OA
ENDBRANCH  13  16
ENDBRANCH  10  13
ENDBRANCH   7  10
ENDBRANCH   4   7
ENDBRANCH   1   4
BRANCH   1  19
ATOM     19  C7  DKA d           1.361  -1.315  22.965  0.00  0.00    -0.065 C 
ATOM     20  H11 DKA d           2.352  -1.604  22.588  0.00  0.00     0.033 H 
ATOM     21  H12 DKA d           0.595  -1.975  22.531  0.00  0.00     0.033 H 
BRANCH  19  22
ATOM     22  C8  DKA d           1.348  -1.482  24.482  0.00  0.00    -0.065 C 
ATOM     23  H13 DKA d           1.129  -0.510  24.951  0.00  0.00     0.033 H 
ATOM     24  H14 DKA d           2.334  -1.835  24.815  0.00  0.00     0.033 H 
BRANCH  22  25
ATOM     25  C9  DKA d           0.288  -2.490  24.904  0.00  0.00    -0.069 C 
ATOM     26  H15 DKA d           0.707  -3.503  24.820  0.00  0.00     0.032 H 
ATOM     27  H16 DKA d          -0.579  -2.395  24.234  0.00  0.00     0.032 H 
BRANCH  25  28
ATOM     28  C10 DKA d          -0.168  -2.266  26.327  0.00  0.00    -0.077 C 
ATOM     29  H17 DKA d          -1.214  -2.588  26.431  0.00  0.00     0.027 H 
ATOM     30  H18 DKA d          -0.088  -1.197  26.574  0.00  0.00     0.027 H 
ATOM     31  H19 DKA d           0.466  -2.849  27.011  0.00  0.00     0.027 H 
ENDBRANCH  25  28
ENDBRANCH  22  25
ENDBRANCH  19  22
ENDBRANCH   1  19
TORSDOF 9
ENDMDL
MODEL 6
REMARK VINA RESULT:      -4.5      1.637      2.703
REMARK  9 active torsions:
REMARK  status: ('A' for Active; 'I' for Inactive)
REMARK    1  A    between atoms: C1_1  and  C2_3 
REMARK    2  A    between atoms: C2_3  and  C3_4 
REMARK    3  A    between atoms: C3_4  and  C4_5 
REMARK    4  A    between atoms: C4_5  and  C5_6 
REMARK    5  A    between atoms: C5_6  and  C6_7 
REMARK    6  A    between atoms: C6_7  and  C7_8 
REMARK    7  A    between atoms: C7_8  and  C8_9 
REMARK    8  A    between atoms: C8_9  and  C9_10 
REMARK    9  A    between atoms: C9_10  and  C10_11 
ROOT
ATOM      1  C6  DKA d           2.352   0.903  22.780  0.00  0.00    -0.065 C 
ATOM      2  H9  DKA d           3.255   0.688  23.371  0.00  0.00     0.033 H 
ATOM      3  H10 DKA d           1.860   1.804  23.177  0.00  0.00     0.033 H 
ENDROOT
BRANCH   1   4
ATOM      4  C5  DKA d           1.390  -0.281  22.892  0.00  0.00    -0.065 C 
ATOM      5  H7  DKA d           0.359   0.102  22.907  0.00  0.00     0.033 H 
ATOM      6  H8  DKA d           1.528  -0.932  22.016  0.00  0.00     0.033 H 
BRANCH   4   7
ATOM      7  C4  DKA d           1.627  -1.098  24.151  0.00  0.00    -0.065 C 
ATOM      8  H5  DKA d           2.703  -1.303  24.246  0.00  0.00     0.033 H 
ATOM      9  H6  DKA d           1.286  -0.519  25.022  0.00  0.00     0.033 H 
BRANCH   7  10
ATOM     10  C3  DKA d           0.872  -2.423  24.110  0.00  0.00    -0.056 C 
ATOM     11  H3  DKA d           0.397  -2.517  23.122  0.00  0.00     0.033 H 
ATOM     12  H4  DKA d           1.599  -3.237  24.245  0.00  0.00     0.033 H 
BRANCH  10  13
ATOM     13  C2  DKA d          -0.221  -2.569  25.183  0.00  0.00     0.016 C 
ATOM     14  H1  DKA d          -0.569  -1.569  25.481  0.00  0.00     0.049 H 
ATOM     15  H2  DKA d          -1.063  -3.140  24.765  0.00  0.00     0.049 H 
BRANCH  13  16
ATOM     16  C1  DKA d           0.314  -3.296  26.408  0.00  0.00     0.172 C 
ATOM     17  O1  DKA d           0.556  -4.502  26.407  0.00  0.00    -0.648 OA
ATOM     18  O2  DKA d           0.539  -2.664  27.565  0.00  0.00    -0.648 OA
ENDBRANCH  13  16
ENDBRANCH  10  13
ENDBRANCH   7  10
ENDBRANCH   4   7
ENDBRANCH   1   4
BRANCH   1  19
ATOM     19  C7  DKA d           2.753   1.152  21.341  0.00  0.00    -0.065 C 
ATOM     20  H11 DKA d           2.976   2.222  21.217  0.00  0.00     0.033 H 
ATOM     21  H12 DKA d           1.912   0.875  20.687  0.00  0.00     0.033 H 
BRANCH  19  22
ATOM     22  C8  DKA d           3.980   0.345  20.925  0.00  0.00    -0.065 C 
ATOM     23  H13 DKA d           4.050  -0.555  21.554  0.00  0.00     0.033 H 
ATOM     24  H14 DKA d           4.881   0.961  21.065  0.00  0.00     0.033 H 
BRANCH  22  25
ATOM     25  C9  DKA d           3.882  -0.072  19.465  0.00  0.00    -0.069 C 
ATOM     26  H15 DKA d           4.897  -0.146  19.048  0.00  0.00     0.032 H 
ATOM     27  H16 DKA d           3.315   0.693  18.914  0.00  0.00     0.032 H 
BRANCH  25  28
ATOM     28  C10 DKA d           3.188  -1.404  19.305  0.00  0.00    -0.077 C 
ATOM     29  H17 DKA d           3.916  -2.215  19.450  0.00  0.00     0.027 H 
ATOM     30  H18 DKA d           2.757  -1.474  18.295  0.00  0.00     0.027 H 
ATOM     31  H19 DKA d           2.387  -1.492  20.053  0.00  0.00     0.027 H 
ENDBRANCH  25  28
ENDBRANCH  22  25
ENDBRANCH  19  22
ENDBRANCH   1  19
TORSDOF 9
ENDMDL
MODEL 7
REMARK VINA RESULT:      -4.4      4.096      6.535
REMARK  9 active torsions:
REMARK  status: ('A' for Active; 'I' for Inactive)
REMARK    1  A    between atoms: C1_1  and  C2_3 
REMARK    2  A    between atoms: C2_3  and  C3_4 
REMARK    3  A    between atoms: C3_4  and  C4_5 
REMARK    4  A    between atoms: C4_5  and  C5_6 
REMARK    5  A    between atoms: C5_6  and  C6_7 
REMARK    6  A    between atoms: C6_7  and  C7_8 
REMARK    7  A    between atoms: C7_8  and  C8_9 
REMARK    8  A    between atoms: C8_9  and  C9_10 
REMARK    9  A    between atoms: C9_10  and  C10_11 
ROOT
ATOM      1  C6  DKA d           1.454  -1.561  24.835  0.00  0.00    -0.065 C 
ATOM      2  H9  DKA d           0.896  -1.123  25.676  0.00  0.00     0.033 H 
ATOM      3  H10 DKA d           2.490  -1.192  24.850  0.00  0.00     0.033 H 
ENDROOT
BRANCH   1   4
ATOM      4  C5  DKA d           0.793  -1.137  23.523  0.00  0.00    -0.065 C 
ATOM      5  H7  DKA d           0.614  -2.033  22.911  0.00  0.00     0.033 H 
ATOM      6  H8  DKA d          -0.167  -0.651  23.752  0.00  0.00     0.033 H 
BRANCH   4   7
ATOM      7  C4  DKA d           1.656  -0.168  22.731  0.00  0.00    -0.065 C 
ATOM      8  H5  DKA d           1.043   0.295  21.944  0.00  0.00     0.033 H 
ATOM      9  H6  DKA d           2.033   0.611  23.409  0.00  0.00     0.033 H 
BRANCH   7  10
ATOM     10  C3  DKA d           2.842  -0.876  22.082  0.00  0.00    -0.056 C 
ATOM     11  H3  DKA d           3.195  -1.657  22.771  0.00  0.00     0.033 H 
ATOM     12  H4  DKA d           2.495  -1.341  21.147  0.00  0.00     0.033 H 
BRANCH  10  13
ATOM     13  C2  DKA d           4.030   0.044  21.750  0.00  0.00     0.016 C 
ATOM     14  H1  DKA d           4.056   0.874  22.471  0.00  0.00     0.049 H 
ATOM     15  H2  DKA d           4.964  -0.534  21.822  0.00  0.00     0.049 H 
BRANCH  13  16
ATOM     16  C1  DKA d           3.903   0.610  20.343  0.00  0.00     0.172 C 
ATOM     17  O1  DKA d           4.197   1.773  20.070  0.00  0.00    -0.648 OA
ATOM     18  O2  DKA d           3.450  -0.125  19.322  0.00  0.00    -0.648 OA
ENDBRANCH  13  16
ENDBRANCH  10  13
ENDBRANCH   7  10
ENDBRANCH   4   7
ENDBRANCH   1   4
BRANCH   1  19
ATOM     19  C7  DKA d           1.465  -3.069  24.983  0.00  0.00    -0.065 C 
ATOM     20  H11 DKA d           2.246  -3.347  25.705  0.00  0.00     0.033 H 
ATOM     21  H12 DKA d           1.692  -3.518  24.004  0.00  0.00     0.033 H 
BRANCH  19  22
ATOM     22  C8  DKA d           0.128  -3.619  25.474  0.00  0.00    -0.065 C 
ATOM     23  H13 DKA d           0.286  -4.619  25.906  0.00  0.00     0.033 H 
ATOM     24  H14 DKA d          -0.566  -3.693  24.625  0.00  0.00     0.033 H 
BRANCH  22  25
ATOM     25  C9  DKA d          -0.473  -2.707  26.534  0.00  0.00    -0.069 C 
ATOM     26  H15 DKA d          -1.570  -2.752  26.460  0.00  0.00     0.032 H 
ATOM     27  H16 DKA d          -0.135  -1.676  26.349  0.00  0.00     0.032 H 
BRANCH  25  28
ATOM     28  C10 DKA d          -0.060  -3.114  27.928  0.00  0.00    -0.077 C 
ATOM     29  H17 DKA d          -0.956  -3.338  28.525  0.00  0.00     0.027 H 
ATOM     30  H18 DKA d           0.499  -2.293  28.400  0.00  0.00     0.027 H 
ATOM     31  H19 DKA d           0.578  -4.009  27.875  0.00  0.00     0.027 H 
ENDBRANCH  25  28
ENDBRANCH  22  25
ENDBRANCH  19  22
ENDBRANCH   1  19
TORSDOF 9
ENDMDL
MODEL 8
REMARK VINA RESULT:      -4.1      3.432      5.930
REMARK  9 active torsions:
REMARK  status: ('A' for Active; 'I' for Inactive)
REMARK    1  A    between atoms: C1_1  and  C2_3 
REMARK    2  A    between atoms: C2_3  and  C3_4 
REMARK    3  A    between atoms: C3_4  and  C4_5 
REMARK    4  A    between atoms: C4_5  and  C5_6 
REMARK    5  A    between atoms: C5_6  and  C6_7 
REMARK    6  A    between atoms: C6_7  and  C7_8 
REMARK    7  A    between atoms: C7_8  and  C8_9 
REMARK    8  A    between atoms: C8_9  and  C9_10 
REMARK    9  A    between atoms: C9_10  and  C10_11 
ROOT
ATOM      1  C6  DKA d           1.287  -0.723  22.350  0.00  0.00    -0.065 C 
ATOM      2  H9  DKA d           0.747  -1.418  21.690  0.00  0.00     0.033 H 
ATOM      3  H10 DKA d           1.136   0.308  21.999  0.00  0.00     0.033 H 
ENDROOT
BRANCH   1   4
ATOM      4  C5  DKA d           2.780  -1.051  22.306  0.00  0.00    -0.065 C 
ATOM      5  H7  DKA d           3.304  -0.411  23.031  0.00  0.00     0.033 H 
ATOM      6  H8  DKA d           2.918  -2.107  22.580  0.00  0.00     0.033 H 
BRANCH   4   7
ATOM      7  C4  DKA d           3.379  -0.821  20.928  0.00  0.00    -0.065 C 
ATOM      8  H5  DKA d           4.370  -1.296  20.885  0.00  0.00     0.033 H 
ATOM      9  H6  DKA d           2.722  -1.274  20.172  0.00  0.00     0.033 H 
BRANCH   7  10
ATOM     10  C3  DKA d           3.530   0.667  20.624  0.00  0.00    -0.056 C 
ATOM     11  H3  DKA d           4.597   0.927  20.700  0.00  0.00     0.033 H 
ATOM     12  H4  DKA d           3.182   0.845  19.596  0.00  0.00     0.033 H 
BRANCH  10  13
ATOM     13  C2  DKA d           2.742   1.594  21.566  0.00  0.00     0.016 C 
ATOM     14  H1  DKA d           2.214   2.351  20.968  0.00  0.00     0.049 H 
ATOM     15  H2  DKA d           2.010   0.997  22.130  0.00  0.00     0.049 H 
BRANCH  13  16
ATOM     16  C1  DKA d           3.673   2.294  22.545  0.00  0.00     0.172 C 
ATOM     17  O1  DKA d           4.611   3.000  22.176  0.00  0.00    -0.648 OA
ATOM     18  O2  DKA d           3.533   2.170  23.869  0.00  0.00    -0.648 OA
ENDBRANCH  13  16
ENDBRANCH  10  13
ENDBRANCH   7  10
ENDBRANCH   4   7
ENDBRANCH   1   4
BRANCH   1  19
ATOM     19  C7  DKA d           0.737  -0.852  23.756  0.00  0.00    -0.065 C 
ATOM     20  H11 DKA d          -0.349  -1.013  23.696  0.00  0.00     0.033 H 
ATOM     21  H12 DKA d           0.940   0.083  24.300  0.00  0.00     0.033 H 
BRANCH  19  22
ATOM     22  C8  DKA d           1.362  -2.012  24.526  0.00  0.00    -0.065 C 
ATOM     23  H13 DKA d           2.380  -1.732  24.838  0.00  0.00     0.033 H 
ATOM     24  H14 DKA d           1.409  -2.895  23.873  0.00  0.00     0.033 H 
BRANCH  22  25
ATOM     25  C9  DKA d           0.536  -2.346  25.760  0.00  0.00    -0.069 C 
ATOM     26  H15 DKA d          -0.473  -1.925  25.638  0.00  0.00     0.032 H 
ATOM     27  H16 DKA d           1.016  -1.897  26.642  0.00  0.00     0.032 H 
BRANCH  25  28
ATOM     28  C10 DKA d           0.420  -3.837  25.974  0.00  0.00    -0.077 C 
ATOM     29  H17 DKA d           0.200  -4.328  25.016  0.00  0.00     0.027 H 
ATOM     30  H18 DKA d          -0.391  -4.043  26.688  0.00  0.00     0.027 H 
ATOM     31  H19 DKA d           1.369  -4.224  26.375  0.00  0.00     0.027 H 
ENDBRANCH  25  28
ENDBRANCH  22  25
ENDBRANCH  19  22
ENDBRANCH   1  19
TORSDOF 9
ENDMDL
MODEL 9
REMARK VINA RESULT:      -3.7      2.157      2.609
REMARK  9 active torsions:
REMARK  status: ('A' for Active; 'I' for Inactive)
REMARK    1  A    between atoms: C1_1  and  C2_3 
REMARK    2  A    between atoms: C2_3  and  C3_4 
REMARK    3  A    between atoms: C3_4  and  C4_5 
REMARK    4  A    between atoms: C4_5  and  C5_6 
REMARK    5  A    between atoms: C5_6  and  C6_7 
REMARK    6  A    between atoms: C6_7  and  C7_8 
REMARK    7  A    between atoms: C7_8  and  C8_9 
REMARK    8  A    between atoms: C8_9  and  C9_10 
REMARK    9  A    between atoms: C9_10  and  C10_11 
ROOT
ATOM      1  C6  DKA d           3.555  -1.163  20.383  0.00  0.00    -0.065 C 
ATOM      2  H9  DKA d           2.731  -1.539  19.759  0.00  0.00     0.033 H 
ATOM      3  H10 DKA d           4.301  -1.960  20.525  0.00  0.00     0.033 H 
ENDROOT
BRANCH   1   4
ATOM      4  C5  DKA d           3.000  -0.753  21.747  0.00  0.00    -0.065 C 
ATOM      5  H7  DKA d           3.675  -1.126  22.532  0.00  0.00     0.033 H 
ATOM      6  H8  DKA d           2.954   0.345  21.794  0.00  0.00     0.033 H 
BRANCH   4   7
ATOM      7  C4  DKA d           1.608  -1.312  21.994  0.00  0.00    -0.065 C 
ATOM      8  H5  DKA d           0.965  -1.060  21.138  0.00  0.00     0.033 H 
ATOM      9  H6  DKA d           1.675  -2.405  22.094  0.00  0.00     0.033 H 
BRANCH   7  10
ATOM     10  C3  DKA d           0.989  -0.735  23.264  0.00  0.00    -0.056 C 
ATOM     11  H3  DKA d           1.310   0.313  23.357  0.00  0.00     0.033 H 
ATOM     12  H4  DKA d          -0.105  -0.776  23.162  0.00  0.00     0.033 H 
BRANCH  10  13
ATOM     13  C2  DKA d           1.380  -1.473  24.557  0.00  0.00     0.016 C 
ATOM     14  H1  DKA d           2.424  -1.231  24.807  0.00  0.00     0.049 H 
ATOM     15  H2  DKA d           0.721  -1.142  25.373  0.00  0.00     0.049 H 
BRANCH  13  16
ATOM     16  C1  DKA d           1.244  -2.979  24.386  0.00  0.00     0.172 C 
ATOM     17  O1  DKA d           0.151  -3.542  24.339  0.00  0.00    -0.648 OA
ATOM     18  O2  DKA d           2.310  -3.780  24.291  0.00  0.00    -0.648 OA
ENDBRANCH  13  16
ENDBRANCH  10  13
ENDBRANCH   7  10
ENDBRANCH   4   7
ENDBRANCH   1   4
BRANCH   1  19
ATOM     19  C7  DKA d           4.211   0.008  19.681  0.00  0.00    -0.065 C 
ATOM     20  H11 DKA d           3.758   0.120  18.685  0.00  0.00     0.033 H 
ATOM     21  H12 DKA d           5.286  -0.202  19.575  0.00  0.00     0.033 H 
BRANCH  19  22
ATOM     22  C8  DKA d           4.043   1.319  20.445  0.00  0.00    -0.065 C 
ATOM     23  H13 DKA d           4.994   1.576  20.936  0.00  0.00     0.033 H 
ATOM     24  H14 DKA d           3.260   1.195  21.207  0.00  0.00     0.033 H 
BRANCH  22  25
ATOM     25  C9  DKA d           3.647   2.445  19.501  0.00  0.00    -0.069 C 
ATOM     26  H15 DKA d           2.621   2.269  19.148  0.00  0.00     0.032 H 
ATOM     27  H16 DKA d           4.335   2.448  18.642  0.00  0.00     0.032 H 
BRANCH  25  28
ATOM     28  C10 DKA d           3.707   3.794  20.178  0.00  0.00    -0.077 C 
ATOM     29  H17 DKA d           3.551   3.669  21.259  0.00  0.00     0.027 H 
ATOM     30  H18 DKA d           2.922   4.446  19.767  0.00  0.00     0.027 H 
ATOM     31  H19 DKA d           4.692   4.250  20.000  0.00  0.00     0.027 H 
ENDBRANCH  25  28
ENDBRANCH  22  25
ENDBRANCH  19  22
ENDBRANCH   1  19
TORSDOF 9
ENDMDL
