MODEL 1
REMARK VINA RESULT:      -8.5      0.000      0.000
REMARK  13 active torsions:
REMARK  status: ('A' for Active; 'I' for Inactive)
REMARK    1  A    between atoms: CA_2  and  N_1 
REMARK    2  A    between atoms: P_3  and  CA_2 
REMARK    3  A    between atoms: CA_2  and  CB_6 
REMARK    4  A    between atoms: CM_13  and  P_3 
REMARK    5  A    between atoms: CB_6  and  CG_7 
REMARK    6  A    between atoms: CA_14  and  CM_13 
REMARK    7  A    between atoms: CA_14  and  CB_15 
REMARK    8  A    between atoms: C_22  and  CA_14 
REMARK    9  A    between atoms: CB_15  and  CG_16 
REMARK       I    between atoms: C_22  and  N_24 
REMARK   10  A    between atoms: N_24  and  CA_25 
REMARK   11  A    between atoms: CA_25  and  CB_28 
REMARK   12  A    between atoms: CA_25  and  C_26 
REMARK   13  A    between atoms: CB_28  and  CG_29 
ROOT
ATOM      1  CA  MOL d          36.206  42.150  -3.589  0.00  0.00     0.036 C 
ATOM      2  H14 MOL d          36.416  43.151  -3.995  0.00  0.00     0.056 H 
ENDROOT
BRANCH   1   3
ATOM      3  CM  MOL d          35.130  41.522  -4.496  0.00  0.00     0.021 C 
ATOM      4  H12 MOL d          34.849  40.551  -4.061  0.00  0.00     0.050 H 
ATOM      5  H13 MOL d          34.257  42.191  -4.494  0.00  0.00     0.050 H 
BRANCH   3   6
ATOM      6  P   MOL d          35.593  41.247  -6.171  0.00  0.00     0.138 P 
ATOM      7  O1P MOL d          36.359  39.965  -6.301  0.00  0.00    -0.666 OA
ATOM      8  O2P MOL d          36.460  42.321  -6.697  0.00  0.00    -0.666 OA
BRANCH   6   9
ATOM      9  CA  MOL d          34.031  41.319  -6.884  0.00  0.00     0.177 C 
ATOM     10  H4  MOL d          33.379  40.820  -6.153  0.00  0.00     0.101 H 
BRANCH   9  11
ATOM     11  N   MOL d          33.602  42.728  -7.034  0.00  0.00    -0.065 N 
ATOM     12  H1  MOL d          32.843  42.918  -6.399  0.00  0.00     0.275 HD
ATOM     13  H2  MOL d          33.295  42.886  -7.981  0.00  0.00     0.275 HD
ATOM     14  H3  MOL d          34.375  43.339  -6.824  0.00  0.00     0.275 HD
ENDBRANCH   9  11
BRANCH   9  15
ATOM     15  CB  MOL d          33.653  40.774  -8.197  0.00  0.00    -0.005 C 
ATOM     16  H5  MOL d          34.571  40.579  -8.771  0.00  0.00     0.044 H 
ATOM     17  H6  MOL d          33.043  41.523  -8.723  0.00  0.00     0.044 H 
BRANCH  15  18
ATOM     18  CG  MOL d          32.855  39.478  -8.106  0.00  0.00    -0.056 A 
ATOM     19  CD1 MOL d          31.897  39.223  -9.099  0.00  0.00    -0.077 A 
ATOM     20  CE1 MOL d          31.181  38.029  -8.965  0.00  0.00    -0.082 A 
ATOM     21  H7  MOL d          31.723  39.909  -9.920  0.00  0.00     0.084 H 
ATOM     22  CZ  MOL d          31.406  37.129  -7.933  0.00  0.00    -0.083 A 
ATOM     23  H9  MOL d          30.418  37.797  -9.699  0.00  0.00     0.083 H 
ATOM     24  CE2 MOL d          32.362  37.454  -6.993  0.00  0.00    -0.082 A 
ATOM     25  H11 MOL d          30.849  36.202  -7.868  0.00  0.00     0.083 H 
ATOM     26  CD2 MOL d          33.036  38.599  -7.060  0.00  0.00    -0.077 A 
ATOM     27  H10 MOL d          32.568  36.762  -6.184  0.00  0.00     0.083 H 
ATOM     28  H8  MOL d          33.743  38.846  -6.275  0.00  0.00     0.084 H 
ENDBRANCH  15  18
ENDBRANCH   9  15
ENDBRANCH   6   9
ENDBRANCH   3   6
ENDBRANCH   1   3
BRANCH   1  29
ATOM     29  CB  MOL d          35.635  42.333  -2.173  0.00  0.00    -0.029 C 
ATOM     30  H15 MOL d          35.392  41.336  -1.776  0.00  0.00     0.041 H 
ATOM     31  H16 MOL d          34.713  42.929  -2.256  0.00  0.00     0.041 H 
BRANCH  29  32
ATOM     32  CG  MOL d          36.544  43.020  -1.178  0.00  0.00    -0.057 A 
ATOM     33  CD1 MOL d          36.947  44.334  -1.362  0.00  0.00    -0.077 A 
ATOM     34  CE1 MOL d          37.783  44.962  -0.460  0.00  0.00    -0.082 A 
ATOM     35  H17 MOL d          36.599  44.879  -2.232  0.00  0.00     0.084 H 
ATOM     36  CZ  MOL d          38.214  44.261   0.650  0.00  0.00    -0.083 A 
ATOM     37  H19 MOL d          38.096  45.988  -0.620  0.00  0.00     0.083 H 
ATOM     38  CE2 MOL d          37.820  42.947   0.845  0.00  0.00    -0.082 A 
ATOM     39  H21 MOL d          38.863  44.741   1.373  0.00  0.00     0.083 H 
ATOM     40  CD2 MOL d          36.961  42.338  -0.048  0.00  0.00    -0.077 A 
ATOM     41  H20 MOL d          38.188  42.395   1.702  0.00  0.00     0.083 H 
ATOM     42  H18 MOL d          36.615  41.327   0.136  0.00  0.00     0.084 H 
ENDBRANCH  29  32
ENDBRANCH   1  29
BRANCH   1  43
ATOM     43  C   MOL d          37.548  41.409  -3.552  0.00  0.00     0.223 C 
ATOM     44  O   MOL d          38.608  41.915  -3.911  0.00  0.00    -0.273 OA
ATOM     45  N   MOL d          37.481  40.187  -3.080  0.00  0.00    -0.346 N 
ATOM     46  H22 MOL d          36.563  39.934  -2.776  0.00  0.00     0.163 HD
BRANCH  45  47
ATOM     47  CA  MOL d          38.450  39.125  -2.905  0.00  0.00     0.100 C 
ATOM     48  H23 MOL d          39.435  39.540  -2.647  0.00  0.00     0.090 H 
BRANCH  47  49
ATOM     49  CB  MOL d          37.962  38.251  -1.784  0.00  0.00    -0.013 C 
ATOM     50  H24 MOL d          36.943  37.952  -2.074  0.00  0.00     0.043 H 
ATOM     51  H25 MOL d          37.914  38.909  -0.905  0.00  0.00     0.043 H 
BRANCH  49  52
ATOM     52  CG  MOL d          38.615  36.999  -1.301  0.00  0.00    -0.056 A 
ATOM     53  CD1 MOL d          39.819  37.025  -0.626  0.00  0.00    -0.077 A 
ATOM     54  CE1 MOL d          40.431  35.880  -0.148  0.00  0.00    -0.082 A 
ATOM     55  H26 MOL d          40.303  37.981  -0.463  0.00  0.00     0.084 H 
ATOM     56  CZ  MOL d          39.810  34.662  -0.360  0.00  0.00    -0.083 A 
ATOM     57  H28 MOL d          41.376  35.936   0.381  0.00  0.00     0.083 H 
ATOM     58  CE2 MOL d          38.604  34.610  -1.041  0.00  0.00    -0.082 A 
ATOM     59  H30 MOL d          40.267  33.749   0.005  0.00  0.00     0.083 H 
ATOM     60  CD2 MOL d          38.006  35.766  -1.505  0.00  0.00    -0.077 A 
ATOM     61  H29 MOL d          38.124  33.653  -1.211  0.00  0.00     0.083 H 
ATOM     62  H27 MOL d          37.059  35.712  -2.030  0.00  0.00     0.084 H 
ENDBRANCH  49  52
ENDBRANCH  47  49
BRANCH  47  63
ATOM     63  C   MOL d          38.546  38.366  -4.231  0.00  0.00     0.197 C 
ATOM     64  O   MOL d          39.561  38.538  -4.930  0.00  0.00    -0.646 OA
ATOM     65  OXT MOL d          37.626  37.615  -4.547  0.00  0.00    -0.646 OA
ENDBRANCH  47  63
ENDBRANCH  45  47
ENDBRANCH   1  43
TORSDOF 13
ENDMDL
MODEL 2
REMARK VINA RESULT:      -7.7      2.271      8.242
REMARK  13 active torsions:
REMARK  status: ('A' for Active; 'I' for Inactive)
REMARK    1  A    between atoms: CA_2  and  N_1 
REMARK    2  A    between atoms: P_3  and  CA_2 
REMARK    3  A    between atoms: CA_2  and  CB_6 
REMARK    4  A    between atoms: CM_13  and  P_3 
REMARK    5  A    between atoms: CB_6  and  CG_7 
REMARK    6  A    between atoms: CA_14  and  CM_13 
REMARK    7  A    between atoms: CA_14  and  CB_15 
REMARK    8  A    between atoms: C_22  and  CA_14 
REMARK    9  A    between atoms: CB_15  and  CG_16 
REMARK       I    between atoms: C_22  and  N_24 
REMARK   10  A    between atoms: N_24  and  CA_25 
REMARK   11  A    between atoms: CA_25  and  CB_28 
REMARK   12  A    between atoms: CA_25  and  C_26 
REMARK   13  A    between atoms: CB_28  and  CG_29 
ROOT
ATOM      1  CA  MOL d          37.191  39.452  -5.426  0.00  0.00     0.036 C 
ATOM      2  H14 MOL d          38.039  40.042  -5.804  0.00  0.00     0.056 H 
ENDROOT
BRANCH   1   3
ATOM      3  CM  MOL d          36.628  40.214  -4.211  0.00  0.00     0.021 C 
ATOM      4  H12 MOL d          35.533  40.251  -4.315  0.00  0.00     0.050 H 
ATOM      5  H13 MOL d          36.892  39.646  -3.307  0.00  0.00     0.050 H 
BRANCH   3   6
ATOM      6  P   MOL d          37.203  41.863  -3.997  0.00  0.00     0.138 P 
ATOM      7  O1P MOL d          37.208  42.592  -5.308  0.00  0.00    -0.666 OA
ATOM      8  O2P MOL d          38.583  41.913  -3.473  0.00  0.00    -0.666 OA
BRANCH   6   9
ATOM      9  CA  MOL d          36.077  42.374  -2.804  0.00  0.00     0.177 C 
ATOM     10  H4  MOL d          35.995  43.460  -2.959  0.00  0.00     0.101 H 
BRANCH   9  11
ATOM     11  N   MOL d          34.758  41.748  -3.044  0.00  0.00    -0.065 N 
ATOM     12  H1  MOL d          34.655  40.942  -2.448  0.00  0.00     0.275 HD
ATOM     13  H2  MOL d          34.692  41.463  -4.009  0.00  0.00     0.275 HD
ATOM     14  H3  MOL d          34.028  42.412  -2.839  0.00  0.00     0.275 HD
ENDBRANCH   9  11
BRANCH   9  15
ATOM     15  CB  MOL d          36.212  42.187  -1.351  0.00  0.00    -0.005 C 
ATOM     16  H5  MOL d          36.738  41.239  -1.169  0.00  0.00     0.044 H 
ATOM     17  H6  MOL d          35.205  42.138  -0.911  0.00  0.00     0.044 H 
BRANCH  15  18
ATOM     18  CG  MOL d          36.985  43.309  -0.666  0.00  0.00    -0.056 A 
ATOM     19  CD1 MOL d          36.913  44.594  -1.222  0.00  0.00    -0.077 A 
ATOM     20  CE1 MOL d          37.650  45.586  -0.567  0.00  0.00    -0.082 A 
ATOM     21  H7  MOL d          36.322  44.806  -2.106  0.00  0.00     0.084 H 
ATOM     22  CZ  MOL d          38.394  45.337   0.578  0.00  0.00    -0.083 A 
ATOM     23  H9  MOL d          37.639  46.592  -0.970  0.00  0.00     0.083 H 
ATOM     24  CE2 MOL d          38.418  44.045   1.061  0.00  0.00    -0.082 A 
ATOM     25  H11 MOL d          38.938  46.131   1.075  0.00  0.00     0.083 H 
ATOM     26  CD2 MOL d          37.765  43.064   0.444  0.00  0.00    -0.077 A 
ATOM     27  H10 MOL d          38.980  43.826   1.962  0.00  0.00     0.083 H 
ATOM     28  H8  MOL d          37.849  42.051   0.822  0.00  0.00     0.084 H 
ENDBRANCH  15  18
ENDBRANCH   9  15
ENDBRANCH   6   9
ENDBRANCH   3   6
ENDBRANCH   1   3
BRANCH   1  29
ATOM     29  CB  MOL d          37.739  38.091  -4.964  0.00  0.00    -0.029 C 
ATOM     30  H15 MOL d          37.554  37.363  -5.768  0.00  0.00     0.041 H 
ATOM     31  H16 MOL d          37.184  37.792  -4.063  0.00  0.00     0.041 H 
BRANCH  29  32
ATOM     32  CG  MOL d          39.215  38.052  -4.635  0.00  0.00    -0.057 A 
ATOM     33  CD1 MOL d          39.698  38.567  -3.441  0.00  0.00    -0.077 A 
ATOM     34  CE1 MOL d          41.046  38.540  -3.140  0.00  0.00    -0.082 A 
ATOM     35  H17 MOL d          39.004  39.000  -2.730  0.00  0.00     0.084 H 
ATOM     36  CZ  MOL d          41.921  37.978  -4.050  0.00  0.00    -0.083 A 
ATOM     37  H19 MOL d          41.410  38.953  -2.206  0.00  0.00     0.083 H 
ATOM     38  CE2 MOL d          41.452  37.462  -5.247  0.00  0.00    -0.082 A 
ATOM     39  H21 MOL d          42.981  37.941  -3.826  0.00  0.00     0.083 H 
ATOM     40  CD2 MOL d          40.100  37.468  -5.526  0.00  0.00    -0.077 A 
ATOM     41  H20 MOL d          42.150  37.052  -5.967  0.00  0.00     0.083 H 
ATOM     42  H18 MOL d          39.732  37.017  -6.440  0.00  0.00     0.084 H 
ENDBRANCH  29  32
ENDBRANCH   1  29
BRANCH   1  43
ATOM     43  C   MOL d          36.222  39.286  -6.604  0.00  0.00     0.223 C 
ATOM     44  O   MOL d          36.077  38.231  -7.214  0.00  0.00    -0.273 OA
ATOM     45  N   MOL d          35.535  40.365  -6.898  0.00  0.00    -0.346 N 
ATOM     46  H22 MOL d          35.719  41.128  -6.280  0.00  0.00     0.163 HD
BRANCH  45  47
ATOM     47  CA  MOL d          34.568  40.687  -7.926  0.00  0.00     0.100 C 
ATOM     48  H23 MOL d          34.877  40.265  -8.893  0.00  0.00     0.090 H 
BRANCH  47  49
ATOM     49  CB  MOL d          33.254  40.087  -7.512  0.00  0.00    -0.013 C 
ATOM     50  H24 MOL d          32.513  40.889  -7.652  0.00  0.00     0.043 H 
ATOM     51  H25 MOL d          33.361  39.871  -6.439  0.00  0.00     0.043 H 
BRANCH  49  52
ATOM     52  CG  MOL d          32.625  38.866  -8.096  0.00  0.00    -0.056 A 
ATOM     53  CD1 MOL d          32.305  38.788  -9.437  0.00  0.00    -0.077 A 
ATOM     54  CE1 MOL d          31.744  37.658 -10.005  0.00  0.00    -0.082 A 
ATOM     55  H26 MOL d          32.502  39.646 -10.069  0.00  0.00     0.084 H 
ATOM     56  CZ  MOL d          31.491  36.566  -9.193  0.00  0.00    -0.083 A 
ATOM     57  H28 MOL d          31.507  37.629 -11.062  0.00  0.00     0.083 H 
ATOM     58  CE2 MOL d          31.799  36.624  -7.842  0.00  0.00    -0.082 A 
ATOM     59  H30 MOL d          31.054  35.667  -9.612  0.00  0.00     0.083 H 
ATOM     60  CD2 MOL d          32.364  37.760  -7.296  0.00  0.00    -0.077 A 
ATOM     61  H29 MOL d          31.593  35.769  -7.209  0.00  0.00     0.083 H 
ATOM     62  H27 MOL d          32.605  37.788  -6.239  0.00  0.00     0.084 H 
ENDBRANCH  49  52
ENDBRANCH  47  49
BRANCH  47  63
ATOM     63  C   MOL d          34.499  42.213  -8.032  0.00  0.00     0.197 C 
ATOM     64  O   MOL d          34.517  42.872  -6.977  0.00  0.00    -0.646 OA
ATOM     65  OXT MOL d          34.438  42.724  -9.147  0.00  0.00    -0.646 OA
ENDBRANCH  47  63
ENDBRANCH  45  47
ENDBRANCH   1  43
TORSDOF 13
ENDMDL
MODEL 3
REMARK VINA RESULT:      -7.5      2.577      6.307
REMARK  13 active torsions:
REMARK  status: ('A' for Active; 'I' for Inactive)
REMARK    1  A    between atoms: CA_2  and  N_1 
REMARK    2  A    between atoms: P_3  and  CA_2 
REMARK    3  A    between atoms: CA_2  and  CB_6 
REMARK    4  A    between atoms: CM_13  and  P_3 
REMARK    5  A    between atoms: CB_6  and  CG_7 
REMARK    6  A    between atoms: CA_14  and  CM_13 
REMARK    7  A    between atoms: CA_14  and  CB_15 
REMARK    8  A    between atoms: C_22  and  CA_14 
REMARK    9  A    between atoms: CB_15  and  CG_16 
REMARK       I    between atoms: C_22  and  N_24 
REMARK   10  A    between atoms: N_24  and  CA_25 
REMARK   11  A    between atoms: CA_25  and  CB_28 
REMARK   12  A    between atoms: CA_25  and  C_26 
REMARK   13  A    between atoms: CB_28  and  CG_29 
ROOT
ATOM      1  CA  MOL d          38.626  38.260  -3.063  0.00  0.00     0.036 C 
ATOM      2  H14 MOL d          37.655  37.757  -3.181  0.00  0.00     0.056 H 
ENDROOT
BRANCH   1   3
ATOM      3  CM  MOL d          39.631  37.495  -3.945  0.00  0.00     0.021 C 
ATOM      4  H12 MOL d          40.057  38.209  -4.666  0.00  0.00     0.050 H 
ATOM      5  H13 MOL d          40.429  37.114  -3.292  0.00  0.00     0.050 H 
BRANCH   3   6
ATOM      6  P   MOL d          38.984  36.135  -4.855  0.00  0.00     0.138 P 
ATOM      7  O1P MOL d          37.618  35.770  -4.354  0.00  0.00    -0.666 OA
ATOM      8  O2P MOL d          39.824  34.927  -4.731  0.00  0.00    -0.666 OA
BRANCH   6   9
ATOM      9  CA  MOL d          39.104  36.803  -6.433  0.00  0.00     0.177 C 
ATOM     10  H4  MOL d          38.603  37.778  -6.351  0.00  0.00     0.101 H 
BRANCH   9  11
ATOM     11  N   MOL d          40.524  37.015  -6.793  0.00  0.00    -0.065 N 
ATOM     12  H1  MOL d          41.100  36.365  -6.282  0.00  0.00     0.275 HD
ATOM     13  H2  MOL d          40.792  37.957  -6.558  0.00  0.00     0.275 HD
ATOM     14  H3  MOL d          40.646  36.866  -7.782  0.00  0.00     0.275 HD
ENDBRANCH   9  11
BRANCH   9  15
ATOM     15  CB  MOL d          38.593  36.194  -7.672  0.00  0.00    -0.005 C 
ATOM     16  H5  MOL d          38.251  35.174  -7.443  0.00  0.00     0.044 H 
ATOM     17  H6  MOL d          39.413  36.150  -8.403  0.00  0.00     0.044 H 
BRANCH  15  18
ATOM     18  CG  MOL d          37.433  36.966  -8.292  0.00  0.00    -0.056 A 
ATOM     19  CD1 MOL d          37.426  37.137  -9.684  0.00  0.00    -0.077 A 
ATOM     20  CE1 MOL d          36.350  37.864 -10.203  0.00  0.00    -0.082 A 
ATOM     21  H7  MOL d          38.206  36.732 -10.318  0.00  0.00     0.084 H 
ATOM     22  CZ  MOL d          35.332  38.372  -9.410  0.00  0.00    -0.083 A 
ATOM     23  H9  MOL d          36.310  38.038 -11.273  0.00  0.00     0.083 H 
ATOM     24  CE2 MOL d          35.413  38.164  -8.049  0.00  0.00    -0.082 A 
ATOM     25  H11 MOL d          34.500  38.913  -9.845  0.00  0.00     0.083 H 
ATOM     26  CD2 MOL d          36.441  37.515  -7.508  0.00  0.00    -0.077 A 
ATOM     27  H10 MOL d          34.624  38.537  -7.406  0.00  0.00     0.083 H 
ATOM     28  H8  MOL d          36.499  37.415  -6.430  0.00  0.00     0.084 H 
ENDBRANCH  15  18
ENDBRANCH   9  15
ENDBRANCH   6   9
ENDBRANCH   3   6
ENDBRANCH   1   3
BRANCH   1  29
ATOM     29  CB  MOL d          39.041  38.128  -1.587  0.00  0.00    -0.029 C 
ATOM     30  H15 MOL d          38.284  38.643  -0.977  0.00  0.00     0.041 H 
ATOM     31  H16 MOL d          40.013  38.628  -1.464  0.00  0.00     0.041 H 
BRANCH  29  32
ATOM     32  CG  MOL d          39.175  36.716  -1.063  0.00  0.00    -0.057 A 
ATOM     33  CD1 MOL d          38.089  35.855  -1.033  0.00  0.00    -0.077 A 
ATOM     34  CE1 MOL d          38.206  34.567  -0.549  0.00  0.00    -0.082 A 
ATOM     35  H17 MOL d          37.128  36.199  -1.397  0.00  0.00     0.084 H 
ATOM     36  CZ  MOL d          39.438  34.134  -0.095  0.00  0.00    -0.083 A 
ATOM     37  H19 MOL d          37.347  33.906  -0.525  0.00  0.00     0.083 H 
ATOM     38  CE2 MOL d          40.531  34.985  -0.118  0.00  0.00    -0.082 A 
ATOM     39  H21 MOL d          39.550  33.124   0.280  0.00  0.00     0.083 H 
ATOM     40  CD2 MOL d          40.410  36.261  -0.630  0.00  0.00    -0.077 A 
ATOM     41  H20 MOL d          41.485  34.647   0.269  0.00  0.00     0.083 H 
ATOM     42  H18 MOL d          41.279  36.906  -0.694  0.00  0.00     0.084 H 
ENDBRANCH  29  32
ENDBRANCH   1  29
BRANCH   1  43
ATOM     43  C   MOL d          38.401  39.729  -3.445  0.00  0.00     0.223 C 
ATOM     44  O   MOL d          39.278  40.443  -3.922  0.00  0.00    -0.273 OA
ATOM     45  N   MOL d          37.179  40.162  -3.242  0.00  0.00    -0.346 N 
ATOM     46  H22 MOL d          36.562  39.452  -2.903  0.00  0.00     0.163 HD
BRANCH  45  47
ATOM     47  CA  MOL d          36.532  41.447  -3.403  0.00  0.00     0.100 C 
ATOM     48  H23 MOL d          35.531  41.435  -2.947  0.00  0.00     0.090 H 
BRANCH  47  49
ATOM     49  CB  MOL d          37.388  42.471  -2.714  0.00  0.00    -0.013 C 
ATOM     50  H24 MOL d          37.019  43.444  -3.072  0.00  0.00     0.043 H 
ATOM     51  H25 MOL d          38.405  42.302  -3.096  0.00  0.00     0.043 H 
BRANCH  49  52
ATOM     52  CG  MOL d          37.547  42.631  -1.238  0.00  0.00    -0.056 A 
ATOM     53  CD1 MOL d          38.388  43.584  -0.700  0.00  0.00    -0.077 A 
ATOM     54  CE1 MOL d          38.533  43.766   0.664  0.00  0.00    -0.082 A 
ATOM     55  H26 MOL d          38.958  44.214  -1.373  0.00  0.00     0.084 H 
ATOM     56  CZ  MOL d          37.805  42.956   1.519  0.00  0.00    -0.083 A 
ATOM     57  H28 MOL d          39.200  44.525   1.054  0.00  0.00     0.083 H 
ATOM     58  CE2 MOL d          36.958  41.989   1.001  0.00  0.00    -0.082 A 
ATOM     59  H30 MOL d          37.898  43.079   2.593  0.00  0.00     0.083 H 
ATOM     60  CD2 MOL d          36.824  41.827  -0.364  0.00  0.00    -0.077 A 
ATOM     61  H29 MOL d          36.395  41.353   1.675  0.00  0.00     0.083 H 
ATOM     62  H27 MOL d          36.153  41.071  -0.755  0.00  0.00     0.084 H 
ENDBRANCH  49  52
ENDBRANCH  47  49
BRANCH  47  63
ATOM     63  C   MOL d          36.406  41.714  -4.905  0.00  0.00     0.197 C 
ATOM     64  O   MOL d          36.998  42.704  -5.374  0.00  0.00    -0.646 OA
ATOM     65  OXT MOL d          35.737  40.942  -5.587  0.00  0.00    -0.646 OA
ENDBRANCH  47  63
ENDBRANCH  45  47
ENDBRANCH   1  43
TORSDOF 13
ENDMDL
MODEL 4
REMARK VINA RESULT:      -7.4      2.014      7.450
REMARK  13 active torsions:
REMARK  status: ('A' for Active; 'I' for Inactive)
REMARK    1  A    between atoms: CA_2  and  N_1 
REMARK    2  A    between atoms: P_3  and  CA_2 
REMARK    3  A    between atoms: CA_2  and  CB_6 
REMARK    4  A    between atoms: CM_13  and  P_3 
REMARK    5  A    between atoms: CB_6  and  CG_7 
REMARK    6  A    between atoms: CA_14  and  CM_13 
REMARK    7  A    between atoms: CA_14  and  CB_15 
REMARK    8  A    between atoms: C_22  and  CA_14 
REMARK    9  A    between atoms: CB_15  and  CG_16 
REMARK       I    between atoms: C_22  and  N_24 
REMARK   10  A    between atoms: N_24  and  CA_25 
REMARK   11  A    between atoms: CA_25  and  CB_28 
REMARK   12  A    between atoms: CA_25  and  C_26 
REMARK   13  A    between atoms: CB_28  and  CG_29 
ROOT
ATOM      1  CA  MOL d          35.276  39.606  -6.707  0.00  0.00     0.036 C 
ATOM      2  H14 MOL d          35.353  39.668  -7.802  0.00  0.00     0.056 H 
ENDROOT
BRANCH   1   3
ATOM      3  CM  MOL d          36.338  38.590  -6.244  0.00  0.00     0.021 C 
ATOM      4  H12 MOL d          37.294  39.125  -6.144  0.00  0.00     0.050 H 
ATOM      5  H13 MOL d          36.029  38.205  -5.261  0.00  0.00     0.050 H 
BRANCH   3   6
ATOM      6  P   MOL d          36.603  37.211  -7.304  0.00  0.00     0.138 P 
ATOM      7  O1P MOL d          36.514  37.628  -8.742  0.00  0.00    -0.666 OA
ATOM      8  O2P MOL d          35.599  36.147  -7.102  0.00  0.00    -0.666 OA
BRANCH   6   9
ATOM      9  CA  MOL d          38.139  36.721  -6.709  0.00  0.00     0.177 C 
ATOM     10  H4  MOL d          37.957  35.725  -6.281  0.00  0.00     0.101 H 
BRANCH   9  11
ATOM     11  N   MOL d          39.106  36.603  -7.823  0.00  0.00    -0.065 N 
ATOM     12  H1  MOL d          38.742  35.969  -8.518  0.00  0.00     0.275 HD
ATOM     13  H2  MOL d          39.981  36.249  -7.472  0.00  0.00     0.275 HD
ATOM     14  H3  MOL d          39.252  37.509  -8.239  0.00  0.00     0.275 HD
ENDBRANCH   9  11
BRANCH   9  15
ATOM     15  CB  MOL d          38.951  37.441  -5.714  0.00  0.00    -0.005 C 
ATOM     16  H5  MOL d          38.779  38.520  -5.839  0.00  0.00     0.044 H 
ATOM     17  H6  MOL d          40.011  37.214  -5.899  0.00  0.00     0.044 H 
BRANCH  15  18
ATOM     18  CG  MOL d          38.619  37.062  -4.275  0.00  0.00    -0.056 A 
ATOM     19  CD1 MOL d          38.420  35.705  -3.980  0.00  0.00    -0.077 A 
ATOM     20  CE1 MOL d          38.105  35.409  -2.650  0.00  0.00    -0.082 A 
ATOM     21  H7  MOL d          38.505  34.934  -4.736  0.00  0.00     0.084 H 
ATOM     22  CZ  MOL d          38.013  36.381  -1.664  0.00  0.00    -0.083 A 
ATOM     23  H9  MOL d          37.925  34.375  -2.378  0.00  0.00     0.083 H 
ATOM     24  CE2 MOL d          38.219  37.694  -2.035  0.00  0.00    -0.082 A 
ATOM     25  H11 MOL d          37.787  36.118  -0.638  0.00  0.00     0.083 H 
ATOM     26  CD2 MOL d          38.479  38.023  -3.297  0.00  0.00    -0.077 A 
ATOM     27  H10 MOL d          38.168  38.472  -1.282  0.00  0.00     0.083 H 
ATOM     28  H8  MOL d          38.584  39.070  -3.562  0.00  0.00     0.084 H 
ENDBRANCH  15  18
ENDBRANCH   9  15
ENDBRANCH   6   9
ENDBRANCH   3   6
ENDBRANCH   1   3
BRANCH   1  29
ATOM     29  CB  MOL d          33.875  39.066  -6.370  0.00  0.00    -0.029 C 
ATOM     30  H15 MOL d          33.383  39.795  -5.709  0.00  0.00     0.041 H 
ATOM     31  H16 MOL d          34.001  38.112  -5.837  0.00  0.00     0.041 H 
BRANCH  29  32
ATOM     32  CG  MOL d          32.961  38.820  -7.551  0.00  0.00    -0.057 A 
ATOM     33  CD1 MOL d          33.040  39.601  -8.694  0.00  0.00    -0.077 A 
ATOM     34  CE1 MOL d          32.203  39.384  -9.770  0.00  0.00    -0.082 A 
ATOM     35  H17 MOL d          33.774  40.397  -8.744  0.00  0.00     0.084 H 
ATOM     36  CZ  MOL d          31.277  38.361  -9.700  0.00  0.00    -0.083 A 
ATOM     37  H19 MOL d          32.271  40.006 -10.656  0.00  0.00     0.083 H 
ATOM     38  CE2 MOL d          31.186  37.575  -8.563  0.00  0.00    -0.082 A 
ATOM     39  H21 MOL d          30.618  38.172 -10.539  0.00  0.00     0.083 H 
ATOM     40  CD2 MOL d          32.047  37.781  -7.503  0.00  0.00    -0.077 A 
ATOM     41  H20 MOL d          30.436  36.795  -8.505  0.00  0.00     0.083 H 
ATOM     42  H18 MOL d          32.007  37.131  -6.637  0.00  0.00     0.084 H 
ENDBRANCH  29  32
ENDBRANCH   1  29
BRANCH   1  43
ATOM     43  C   MOL d          35.459  41.034  -6.179  0.00  0.00     0.223 C 
ATOM     44  O   MOL d          35.111  42.033  -6.803  0.00  0.00    -0.273 OA
ATOM     45  N   MOL d          36.000  41.108  -4.986  0.00  0.00    -0.346 N 
ATOM     46  H22 MOL d          36.177  40.212  -4.579  0.00  0.00     0.163 HD
BRANCH  45  47
ATOM     47  CA  MOL d          36.396  42.207  -4.131  0.00  0.00     0.100 C 
ATOM     48  H23 MOL d          35.968  43.152  -4.495  0.00  0.00     0.090 H 
BRANCH  47  49
ATOM     49  CB  MOL d          35.874  41.915  -2.752  0.00  0.00    -0.013 C 
ATOM     50  H24 MOL d          35.855  40.818  -2.678  0.00  0.00     0.043 H 
ATOM     51  H25 MOL d          34.844  42.301  -2.746  0.00  0.00     0.043 H 
BRANCH  49  52
ATOM     52  CG  MOL d          36.476  42.385  -1.470  0.00  0.00    -0.056 A 
ATOM     53  CD1 MOL d          36.669  41.529  -0.405  0.00  0.00    -0.077 A 
ATOM     54  CE1 MOL d          37.246  41.936   0.785  0.00  0.00    -0.082 A 
ATOM     55  H26 MOL d          36.356  40.496  -0.505  0.00  0.00     0.084 H 
ATOM     56  CZ  MOL d          37.642  43.256   0.909  0.00  0.00    -0.083 A 
ATOM     57  H28 MOL d          37.386  41.237   1.601  0.00  0.00     0.083 H 
ATOM     58  CE2 MOL d          37.453  44.136  -0.145  0.00  0.00    -0.082 A 
ATOM     59  H30 MOL d          38.099  43.602   1.829  0.00  0.00     0.083 H 
ATOM     60  CD2 MOL d          36.879  43.707  -1.327  0.00  0.00    -0.077 A 
ATOM     61  H29 MOL d          37.758  45.171  -0.042  0.00  0.00     0.083 H 
ATOM     62  H27 MOL d          36.743  44.405  -2.146  0.00  0.00     0.084 H 
ENDBRANCH  49  52
ENDBRANCH  47  49
BRANCH  47  63
ATOM     63  C   MOL d          37.924  42.290  -4.165  0.00  0.00     0.197 C 
ATOM     64  O   MOL d          38.570  41.403  -3.576  0.00  0.00    -0.646 OA
ATOM     65  OXT MOL d          38.451  43.217  -4.775  0.00  0.00    -0.646 OA
ENDBRANCH  47  63
ENDBRANCH  45  47
ENDBRANCH   1  43
TORSDOF 13
ENDMDL
MODEL 5
REMARK VINA RESULT:      -7.4      2.344      5.865
REMARK  13 active torsions:
REMARK  status: ('A' for Active; 'I' for Inactive)
REMARK    1  A    between atoms: CA_2  and  N_1 
REMARK    2  A    between atoms: P_3  and  CA_2 
REMARK    3  A    between atoms: CA_2  and  CB_6 
REMARK    4  A    between atoms: CM_13  and  P_3 
REMARK    5  A    between atoms: CB_6  and  CG_7 
REMARK    6  A    between atoms: CA_14  and  CM_13 
REMARK    7  A    between atoms: CA_14  and  CB_15 
REMARK    8  A    between atoms: C_22  and  CA_14 
REMARK    9  A    between atoms: CB_15  and  CG_16 
REMARK       I    between atoms: C_22  and  N_24 
REMARK   10  A    between atoms: N_24  and  CA_25 
REMARK   11  A    between atoms: CA_25  and  CB_28 
REMARK   12  A    between atoms: CA_25  and  C_26 
REMARK   13  A    between atoms: CB_28  and  CG_29 
ROOT
ATOM      1  CA  MOL d          38.297  38.396  -4.392  0.00  0.00     0.036 C 
ATOM      2  H14 MOL d          37.773  37.562  -3.901  0.00  0.00     0.056 H 
ENDROOT
BRANCH   1   3
ATOM      3  CM  MOL d          38.947  37.821  -5.666  0.00  0.00     0.021 C 
ATOM      4  H12 MOL d          38.811  38.557  -6.473  0.00  0.00     0.050 H 
ATOM      5  H13 MOL d          40.020  37.691  -5.465  0.00  0.00     0.050 H 
BRANCH   3   6
ATOM      6  P   MOL d          38.313  36.280  -6.231  0.00  0.00     0.138 P 
ATOM      7  O1P MOL d          37.378  35.693  -5.217  0.00  0.00    -0.666 OA
ATOM      8  O2P MOL d          39.380  35.285  -6.459  0.00  0.00    -0.666 OA
BRANCH   6   9
ATOM      9  CA  MOL d          37.643  36.810  -7.722  0.00  0.00     0.177 C 
ATOM     10  H4  MOL d          37.668  37.908  -7.653  0.00  0.00     0.101 H 
BRANCH   9  11
ATOM     11  N   MOL d          38.498  36.376  -8.850  0.00  0.00    -0.065 N 
ATOM     12  H1  MOL d          38.521  37.099  -9.552  0.00  0.00     0.275 HD
ATOM     13  H2  MOL d          38.122  35.531  -9.250  0.00  0.00     0.275 HD
ATOM     14  H3  MOL d          39.433  36.203  -8.515  0.00  0.00     0.275 HD
ENDBRANCH   9  11
BRANCH   9  15
ATOM     15  CB  MOL d          36.308  36.471  -8.240  0.00  0.00    -0.005 C 
ATOM     16  H5  MOL d          35.896  35.652  -7.632  0.00  0.00     0.044 H 
ATOM     17  H6  MOL d          36.413  36.137  -9.283  0.00  0.00     0.044 H 
BRANCH  15  18
ATOM     18  CG  MOL d          35.330  37.641  -8.203  0.00  0.00    -0.056 A 
ATOM     19  CD1 MOL d          35.667  38.803  -8.913  0.00  0.00    -0.077 A 
ATOM     20  CE1 MOL d          34.745  39.852  -8.837  0.00  0.00    -0.082 A 
ATOM     21  H7  MOL d          36.584  38.883  -9.485  0.00  0.00     0.084 H 
ATOM     22  CZ  MOL d          33.557  39.760  -8.128  0.00  0.00    -0.083 A 
ATOM     23  H9  MOL d          34.970  40.778  -9.356  0.00  0.00     0.083 H 
ATOM     24  CE2 MOL d          33.300  38.585  -7.453  0.00  0.00    -0.082 A 
ATOM     25  H11 MOL d          32.853  40.584  -8.105  0.00  0.00     0.083 H 
ATOM     26  CD2 MOL d          34.169  37.577  -7.464  0.00  0.00    -0.077 A 
ATOM     27  H10 MOL d          32.372  38.480  -6.903  0.00  0.00     0.083 H 
ATOM     28  H8  MOL d          33.959  36.688  -6.880  0.00  0.00     0.084 H 
ENDBRANCH  15  18
ENDBRANCH   9  15
ENDBRANCH   6   9
ENDBRANCH   3   6
ENDBRANCH   1   3
BRANCH   1  29
ATOM     29  CB  MOL d          39.398  38.882  -3.434  0.00  0.00    -0.029 C 
ATOM     30  H15 MOL d          38.970  39.677  -2.805  0.00  0.00     0.041 H 
ATOM     31  H16 MOL d          40.215  39.296  -4.042  0.00  0.00     0.041 H 
BRANCH  29  32
ATOM     32  CG  MOL d          39.986  37.832  -2.518  0.00  0.00    -0.057 A 
ATOM     33  CD1 MOL d          41.223  37.262  -2.779  0.00  0.00    -0.077 A 
ATOM     34  CE1 MOL d          41.760  36.298  -1.949  0.00  0.00    -0.082 A 
ATOM     35  H17 MOL d          41.779  37.580  -3.654  0.00  0.00     0.084 H 
ATOM     36  CZ  MOL d          41.046  35.907  -0.832  0.00  0.00    -0.083 A 
ATOM     37  H19 MOL d          42.725  35.856  -2.170  0.00  0.00     0.083 H 
ATOM     38  CE2 MOL d          39.808  36.467  -0.561  0.00  0.00    -0.082 A 
ATOM     39  H21 MOL d          41.456  35.158  -0.166  0.00  0.00     0.083 H 
ATOM     40  CD2 MOL d          39.293  37.450  -1.381  0.00  0.00    -0.077 A 
ATOM     41  H20 MOL d          39.242  36.130   0.300  0.00  0.00     0.083 H 
ATOM     42  H18 MOL d          38.349  37.922  -1.136  0.00  0.00     0.084 H 
ENDBRANCH  29  32
ENDBRANCH   1  29
BRANCH   1  43
ATOM     43  C   MOL d          37.245  39.488  -4.626  0.00  0.00     0.223 C 
ATOM     44  O   MOL d          36.411  39.439  -5.525  0.00  0.00    -0.273 OA
ATOM     45  N   MOL d          37.291  40.478  -3.767  0.00  0.00    -0.346 N 
ATOM     46  H22 MOL d          37.985  40.352  -3.058  0.00  0.00     0.163 HD
BRANCH  45  47
ATOM     47  CA  MOL d          36.553  41.716  -3.624  0.00  0.00     0.100 C 
ATOM     48  H23 MOL d          35.607  41.541  -3.089  0.00  0.00     0.090 H 
BRANCH  47  49
ATOM     49  CB  MOL d          37.411  42.663  -2.833  0.00  0.00    -0.013 C 
ATOM     50  H24 MOL d          37.089  43.669  -3.140  0.00  0.00     0.043 H 
ATOM     51  H25 MOL d          38.437  42.484  -3.185  0.00  0.00     0.043 H 
BRANCH  49  52
ATOM     52  CG  MOL d          37.512  42.720  -1.345  0.00  0.00    -0.056 A 
ATOM     53  CD1 MOL d          36.802  41.854  -0.538  0.00  0.00    -0.077 A 
ATOM     54  CE1 MOL d          36.897  41.873   0.842  0.00  0.00    -0.082 A 
ATOM     55  H26 MOL d          36.145  41.129  -1.005  0.00  0.00     0.084 H 
ATOM     56  CZ  MOL d          37.736  42.802   1.433  0.00  0.00    -0.083 A 
ATOM     57  H28 MOL d          36.328  41.176   1.446  0.00  0.00     0.083 H 
ATOM     58  CE2 MOL d          38.454  43.686   0.643  0.00  0.00    -0.082 A 
ATOM     59  H30 MOL d          37.831  42.837   2.513  0.00  0.00     0.083 H 
ATOM     60  CD2 MOL d          38.349  43.646  -0.734  0.00  0.00    -0.077 A 
ATOM     61  H29 MOL d          39.105  44.416   1.111  0.00  0.00     0.083 H 
ATOM     62  H27 MOL d          38.921  44.340  -1.339  0.00  0.00     0.084 H 
ENDBRANCH  49  52
ENDBRANCH  47  49
BRANCH  47  63
ATOM     63  C   MOL d          36.256  42.241  -5.031  0.00  0.00     0.197 C 
ATOM     64  O   MOL d          35.086  42.165  -5.448  0.00  0.00    -0.646 OA
ATOM     65  OXT MOL d          37.178  42.720  -5.687  0.00  0.00    -0.646 OA
ENDBRANCH  47  63
ENDBRANCH  45  47
ENDBRANCH   1  43
TORSDOF 13
ENDMDL
MODEL 6
REMARK VINA RESULT:      -7.2      1.640      8.034
REMARK  13 active torsions:
REMARK  status: ('A' for Active; 'I' for Inactive)
REMARK    1  A    between atoms: CA_2  and  N_1 
REMARK    2  A    between atoms: P_3  and  CA_2 
REMARK    3  A    between atoms: CA_2  and  CB_6 
REMARK    4  A    between atoms: CM_13  and  P_3 
REMARK    5  A    between atoms: CB_6  and  CG_7 
REMARK    6  A    between atoms: CA_14  and  CM_13 
REMARK    7  A    between atoms: CA_14  and  CB_15 
REMARK    8  A    between atoms: C_22  and  CA_14 
REMARK    9  A    between atoms: CB_15  and  CG_16 
REMARK       I    between atoms: C_22  and  N_24 
REMARK   10  A    between atoms: N_24  and  CA_25 
REMARK   11  A    between atoms: CA_25  and  CB_28 
REMARK   12  A    between atoms: CA_25  and  C_26 
REMARK   13  A    between atoms: CB_28  and  CG_29 
ROOT
ATOM      1  CA  MOL d          37.997  39.651  -4.907  0.00  0.00     0.036 C 
ATOM      2  H14 MOL d          38.542  40.455  -5.423  0.00  0.00     0.056 H 
ENDROOT
BRANCH   1   3
ATOM      3  CM  MOL d          37.476  40.246  -3.584  0.00  0.00     0.021 C 
ATOM      4  H12 MOL d          36.404  40.008  -3.508  0.00  0.00     0.050 H 
ATOM      5  H13 MOL d          38.019  39.760  -2.761  0.00  0.00     0.050 H 
BRANCH   3   6
ATOM      6  P   MOL d          37.655  41.986  -3.396  0.00  0.00     0.138 P 
ATOM      7  O1P MOL d          38.094  42.612  -4.686  0.00  0.00    -0.666 OA
ATOM      8  O2P MOL d          38.668  42.339  -2.381  0.00  0.00    -0.666 OA
BRANCH   6   9
ATOM      9  CA  MOL d          36.073  42.346  -2.831  0.00  0.00     0.177 C 
ATOM     10  H4  MOL d          35.895  43.378  -3.168  0.00  0.00     0.101 H 
BRANCH   9  11
ATOM     11  N   MOL d          35.085  41.449  -3.470  0.00  0.00    -0.065 N 
ATOM     12  H1  MOL d          35.250  40.501  -3.172  0.00  0.00     0.275 HD
ATOM     13  H2  MOL d          35.178  41.507  -4.472  0.00  0.00     0.275 HD
ATOM     14  H3  MOL d          34.154  41.728  -3.202  0.00  0.00     0.275 HD
ENDBRANCH   9  11
BRANCH   9  15
ATOM     15  CB  MOL d          35.623  42.300  -1.431  0.00  0.00    -0.005 C 
ATOM     16  H5  MOL d          35.435  41.251  -1.159  0.00  0.00     0.044 H 
ATOM     17  H6  MOL d          34.688  42.874  -1.345  0.00  0.00     0.044 H 
BRANCH  15  18
ATOM     18  CG  MOL d          36.637  42.880  -0.450  0.00  0.00    -0.056 A 
ATOM     19  CD1 MOL d          37.067  42.068   0.610  0.00  0.00    -0.077 A 
ATOM     20  CE1 MOL d          37.986  42.649   1.489  0.00  0.00    -0.082 A 
ATOM     21  H7  MOL d          36.710  41.053   0.738  0.00  0.00     0.084 H 
ATOM     22  CZ  MOL d          38.470  43.938   1.328  0.00  0.00    -0.083 A 
ATOM     23  H9  MOL d          38.335  42.065   2.334  0.00  0.00     0.083 H 
ATOM     24  CE2 MOL d          37.995  44.675   0.263  0.00  0.00    -0.082 A 
ATOM     25  H11 MOL d          39.197  44.353   2.016  0.00  0.00     0.083 H 
ATOM     26  CD2 MOL d          37.089  44.176  -0.573  0.00  0.00    -0.077 A 
ATOM     27  H10 MOL d          38.367  45.681   0.105  0.00  0.00     0.083 H 
ATOM     28  H8  MOL d          36.699  44.802  -1.369  0.00  0.00     0.084 H 
ENDBRANCH  15  18
ENDBRANCH   9  15
ENDBRANCH   6   9
ENDBRANCH   3   6
ENDBRANCH   1   3
BRANCH   1  29
ATOM     29  CB  MOL d          39.004  38.530  -4.599  0.00  0.00    -0.029 C 
ATOM     30  H15 MOL d          39.952  39.002  -4.298  0.00  0.00     0.041 H 
ATOM     31  H16 MOL d          39.159  37.953  -5.522  0.00  0.00     0.041 H 
BRANCH  29  32
ATOM     32  CG  MOL d          38.602  37.562  -3.508  0.00  0.00    -0.057 A 
ATOM     33  CD1 MOL d          38.423  37.988  -2.201  0.00  0.00    -0.077 A 
ATOM     34  CE1 MOL d          38.063  37.106  -1.201  0.00  0.00    -0.082 A 
ATOM     35  H17 MOL d          38.569  39.034  -1.959  0.00  0.00     0.084 H 
ATOM     36  CZ  MOL d          37.871  35.775  -1.522  0.00  0.00    -0.083 A 
ATOM     37  H19 MOL d          37.933  37.451  -0.182  0.00  0.00     0.083 H 
ATOM     38  CE2 MOL d          38.049  35.337  -2.824  0.00  0.00    -0.082 A 
ATOM     39  H21 MOL d          37.580  35.071  -0.752  0.00  0.00     0.083 H 
ATOM     40  CD2 MOL d          38.381  36.231  -3.822  0.00  0.00    -0.077 A 
ATOM     41  H20 MOL d          37.927  34.286  -3.061  0.00  0.00     0.083 H 
ATOM     42  H18 MOL d          38.468  35.893  -4.848  0.00  0.00     0.084 H 
ENDBRANCH  29  32
ENDBRANCH   1  29
BRANCH   1  43
ATOM     43  C   MOL d          36.915  39.168  -5.882  0.00  0.00     0.223 C 
ATOM     44  O   MOL d          36.760  37.989  -6.188  0.00  0.00    -0.273 OA
ATOM     45  N   MOL d          36.143  40.120  -6.351  0.00  0.00    -0.346 N 
ATOM     46  H22 MOL d          36.352  41.019  -5.968  0.00  0.00     0.163 HD
BRANCH  45  47
ATOM     47  CA  MOL d          35.052  40.147  -7.303  0.00  0.00     0.100 C 
ATOM     48  H23 MOL d          35.352  39.667  -8.246  0.00  0.00     0.090 H 
BRANCH  47  49
ATOM     49  CB  MOL d          33.905  39.392  -6.695  0.00  0.00    -0.013 C 
ATOM     50  H24 MOL d          33.302  40.152  -6.175  0.00  0.00     0.043 H 
ATOM     51  H25 MOL d          34.362  38.719  -5.955  0.00  0.00     0.043 H 
BRANCH  49  52
ATOM     52  CG  MOL d          32.920  38.548  -7.435  0.00  0.00    -0.056 A 
ATOM     53  CD1 MOL d          32.574  37.286  -6.996  0.00  0.00    -0.077 A 
ATOM     54  CE1 MOL d          31.647  36.497  -7.652  0.00  0.00    -0.082 A 
ATOM     55  H26 MOL d          33.048  36.899  -6.101  0.00  0.00     0.084 H 
ATOM     56  CZ  MOL d          31.047  36.994  -8.796  0.00  0.00    -0.083 A 
ATOM     57  H28 MOL d          31.396  35.510  -7.279  0.00  0.00     0.083 H 
ATOM     58  CE2 MOL d          31.382  38.257  -9.258  0.00  0.00    -0.082 A 
ATOM     59  H30 MOL d          30.315  36.398  -9.328  0.00  0.00     0.083 H 
ATOM     60  CD2 MOL d          32.307  39.032  -8.585  0.00  0.00    -0.077 A 
ATOM     61  H29 MOL d          30.915  38.641 -10.158  0.00  0.00     0.083 H 
ATOM     62  H27 MOL d          32.556  40.020  -8.955  0.00  0.00     0.084 H 
ENDBRANCH  49  52
ENDBRANCH  47  49
BRANCH  47  63
ATOM     63  C   MOL d          34.705  41.615  -7.564  0.00  0.00     0.197 C 
ATOM     64  O   MOL d          34.721  42.399  -6.597  0.00  0.00    -0.646 OA
ATOM     65  OXT MOL d          34.435  41.962  -8.710  0.00  0.00    -0.646 OA
ENDBRANCH  47  63
ENDBRANCH  45  47
ENDBRANCH   1  43
TORSDOF 13
ENDMDL
MODEL 7
REMARK VINA RESULT:      -7.1      2.798      7.159
REMARK  13 active torsions:
REMARK  status: ('A' for Active; 'I' for Inactive)
REMARK    1  A    between atoms: CA_2  and  N_1 
REMARK    2  A    between atoms: P_3  and  CA_2 
REMARK    3  A    between atoms: CA_2  and  CB_6 
REMARK    4  A    between atoms: CM_13  and  P_3 
REMARK    5  A    between atoms: CB_6  and  CG_7 
REMARK    6  A    between atoms: CA_14  and  CM_13 
REMARK    7  A    between atoms: CA_14  and  CB_15 
REMARK    8  A    between atoms: C_22  and  CA_14 
REMARK    9  A    between atoms: CB_15  and  CG_16 
REMARK       I    between atoms: C_22  and  N_24 
REMARK   10  A    between atoms: N_24  and  CA_25 
REMARK   11  A    between atoms: CA_25  and  CB_28 
REMARK   12  A    between atoms: CA_25  and  C_26 
REMARK   13  A    between atoms: CB_28  and  CG_29 
ROOT
ATOM      1  CA  MOL d          35.567  40.310  -6.691  0.00  0.00     0.036 C 
ATOM      2  H14 MOL d          35.992  40.663  -7.642  0.00  0.00     0.056 H 
ENDROOT
BRANCH   1   3
ATOM      3  CM  MOL d          35.918  38.813  -6.578  0.00  0.00     0.021 C 
ATOM      4  H12 MOL d          36.994  38.736  -6.364  0.00  0.00     0.050 H 
ATOM      5  H13 MOL d          35.346  38.397  -5.735  0.00  0.00     0.050 H 
BRANCH   3   6
ATOM      6  P   MOL d          35.579  37.830  -7.997  0.00  0.00     0.138 P 
ATOM      7  O1P MOL d          35.703  38.649  -9.246  0.00  0.00    -0.666 OA
ATOM      8  O2P MOL d          34.211  37.274  -7.981  0.00  0.00    -0.666 OA
BRANCH   6   9
ATOM      9  CA  MOL d          36.744  36.593  -7.734  0.00  0.00     0.177 C 
ATOM     10  H4  MOL d          36.804  36.508  -6.640  0.00  0.00     0.101 H 
BRANCH   9  11
ATOM     11  N   MOL d          36.263  35.311  -8.296  0.00  0.00    -0.065 N 
ATOM     12  H1  MOL d          36.943  34.589  -8.116  0.00  0.00     0.275 HD
ATOM     13  H2  MOL d          36.132  35.408  -9.290  0.00  0.00     0.275 HD
ATOM     14  H3  MOL d          35.387  35.062  -7.864  0.00  0.00     0.275 HD
ENDBRANCH   9  11
BRANCH   9  15
ATOM     15  CB  MOL d          38.136  36.600  -8.212  0.00  0.00    -0.005 C 
ATOM     16  H5  MOL d          38.375  37.610  -8.576  0.00  0.00     0.044 H 
ATOM     17  H6  MOL d          38.224  35.882  -9.040  0.00  0.00     0.044 H 
BRANCH  15  18
ATOM     18  CG  MOL d          39.147  36.222  -7.135  0.00  0.00    -0.056 A 
ATOM     19  CD1 MOL d          39.227  37.032  -5.993  0.00  0.00    -0.077 A 
ATOM     20  CE1 MOL d          40.178  36.652  -5.041  0.00  0.00    -0.082 A 
ATOM     21  H7  MOL d          38.591  37.899  -5.857  0.00  0.00     0.084 H 
ATOM     22  CZ  MOL d          40.985  35.534  -5.188  0.00  0.00    -0.083 A 
ATOM     23  H9  MOL d          40.289  37.258  -4.149  0.00  0.00     0.083 H 
ATOM     24  CE2 MOL d          40.849  34.790  -6.342  0.00  0.00    -0.082 A 
ATOM     25  H11 MOL d          41.699  35.254  -4.423  0.00  0.00     0.083 H 
ATOM     26  CD2 MOL d          39.986  35.140  -7.292  0.00  0.00    -0.077 A 
ATOM     27  H10 MOL d          41.457  33.903  -6.477  0.00  0.00     0.083 H 
ATOM     28  H8  MOL d          39.943  34.562  -8.209  0.00  0.00     0.084 H 
ENDBRANCH  15  18
ENDBRANCH   9  15
ENDBRANCH   6   9
ENDBRANCH   3   6
ENDBRANCH   1   3
BRANCH   1  29
ATOM     29  CB  MOL d          34.039  40.469  -6.778  0.00  0.00    -0.029 C 
ATOM     30  H15 MOL d          33.711  41.052  -5.905  0.00  0.00     0.041 H 
ATOM     31  H16 MOL d          33.593  39.464  -6.737  0.00  0.00     0.041 H 
BRANCH  29  32
ATOM     32  CG  MOL d          33.517  41.158  -8.019  0.00  0.00    -0.057 A 
ATOM     33  CD1 MOL d          32.646  40.515  -8.885  0.00  0.00    -0.077 A 
ATOM     34  CE1 MOL d          32.173  41.139 -10.023  0.00  0.00    -0.082 A 
ATOM     35  H17 MOL d          32.329  39.502  -8.664  0.00  0.00     0.084 H 
ATOM     36  CZ  MOL d          32.576  42.433 -10.290  0.00  0.00    -0.083 A 
ATOM     37  H19 MOL d          31.497  40.622 -10.694  0.00  0.00     0.083 H 
ATOM     38  CE2 MOL d          33.448  43.086  -9.435  0.00  0.00    -0.082 A 
ATOM     39  H21 MOL d          32.208  42.941 -11.174  0.00  0.00     0.083 H 
ATOM     40  CD2 MOL d          33.892  42.465  -8.285  0.00  0.00    -0.077 A 
ATOM     41  H20 MOL d          33.783  44.090  -9.669  0.00  0.00     0.083 H 
ATOM     42  H18 MOL d          34.533  42.998  -7.592  0.00  0.00     0.084 H 
ENDBRANCH  29  32
ENDBRANCH   1  29
BRANCH   1  43
ATOM     43  C   MOL d          36.154  41.207  -5.595  0.00  0.00     0.223 C 
ATOM     44  O   MOL d          35.831  42.381  -5.440  0.00  0.00    -0.273 OA
ATOM     45  N   MOL d          37.022  40.611  -4.811  0.00  0.00    -0.346 N 
ATOM     46  H22 MOL d          37.141  39.641  -5.023  0.00  0.00     0.163 HD
BRANCH  45  47
ATOM     47  CA  MOL d          37.844  41.055  -3.705  0.00  0.00     0.100 C 
ATOM     48  H23 MOL d          38.501  41.878  -4.019  0.00  0.00     0.090 H 
BRANCH  47  49
ATOM     49  CB  MOL d          36.919  41.535  -2.622  0.00  0.00    -0.013 C 
ATOM     50  H24 MOL d          36.642  40.631  -2.058  0.00  0.00     0.043 H 
ATOM     51  H25 MOL d          36.035  41.923  -3.148  0.00  0.00     0.043 H 
BRANCH  49  52
ATOM     52  CG  MOL d          37.240  42.561  -1.586  0.00  0.00    -0.056 A 
ATOM     53  CD1 MOL d          37.320  43.903  -1.898  0.00  0.00    -0.077 A 
ATOM     54  CE1 MOL d          37.593  44.874  -0.951  0.00  0.00    -0.082 A 
ATOM     55  H26 MOL d          37.164  44.208  -2.927  0.00  0.00     0.084 H 
ATOM     56  CZ  MOL d          37.795  44.479   0.360  0.00  0.00    -0.083 A 
ATOM     57  H28 MOL d          37.647  45.920  -1.229  0.00  0.00     0.083 H 
ATOM     58  CE2 MOL d          37.725  43.136   0.696  0.00  0.00    -0.082 A 
ATOM     59  H30 MOL d          38.009  45.219   1.123  0.00  0.00     0.083 H 
ATOM     60  CD2 MOL d          37.446  42.183  -0.265  0.00  0.00    -0.077 A 
ATOM     61  H29 MOL d          37.890  42.831   1.723  0.00  0.00     0.083 H 
ATOM     62  H27 MOL d          37.387  41.137   0.014  0.00  0.00     0.084 H 
ENDBRANCH  49  52
ENDBRANCH  47  49
BRANCH  47  63
ATOM     63  C   MOL d          38.693  39.864  -3.255  0.00  0.00     0.197 C 
ATOM     64  O   MOL d          39.871  39.804  -3.652  0.00  0.00    -0.646 OA
ATOM     65  OXT MOL d          38.185  39.023  -2.518  0.00  0.00    -0.646 OA
ENDBRANCH  47  63
ENDBRANCH  45  47
ENDBRANCH   1  43
TORSDOF 13
ENDMDL
MODEL 8
REMARK VINA RESULT:      -7.0      2.133      6.558
REMARK  13 active torsions:
REMARK  status: ('A' for Active; 'I' for Inactive)
REMARK    1  A    between atoms: CA_2  and  N_1 
REMARK    2  A    between atoms: P_3  and  CA_2 
REMARK    3  A    between atoms: CA_2  and  CB_6 
REMARK    4  A    between atoms: CM_13  and  P_3 
REMARK    5  A    between atoms: CB_6  and  CG_7 
REMARK    6  A    between atoms: CA_14  and  CM_13 
REMARK    7  A    between atoms: CA_14  and  CB_15 
REMARK    8  A    between atoms: C_22  and  CA_14 
REMARK    9  A    between atoms: CB_15  and  CG_16 
REMARK       I    between atoms: C_22  and  N_24 
REMARK   10  A    between atoms: N_24  and  CA_25 
REMARK   11  A    between atoms: CA_25  and  CB_28 
REMARK   12  A    between atoms: CA_25  and  C_26 
REMARK   13  A    between atoms: CB_28  and  CG_29 
ROOT
ATOM      1  CA  MOL d          35.830  39.812  -5.481  0.00  0.00     0.036 C 
ATOM      2  H14 MOL d          35.705  39.486  -4.437  0.00  0.00     0.056 H 
ENDROOT
BRANCH   1   3
ATOM      3  CM  MOL d          36.270  41.288  -5.435  0.00  0.00     0.021 C 
ATOM      4  H12 MOL d          36.995  41.448  -6.247  0.00  0.00     0.050 H 
ATOM      5  H13 MOL d          35.379  41.909  -5.611  0.00  0.00     0.050 H 
BRANCH   3   6
ATOM      6  P   MOL d          37.015  41.827  -3.935  0.00  0.00     0.138 P 
ATOM      7  O1P MOL d          38.208  42.690  -4.221  0.00  0.00    -0.666 OA
ATOM      8  O2P MOL d          37.489  40.700  -3.107  0.00  0.00    -0.666 OA
BRANCH   6   9
ATOM      9  CA  MOL d          35.642  42.574  -3.221  0.00  0.00     0.177 C 
ATOM     10  H4  MOL d          35.076  42.970  -4.077  0.00  0.00     0.101 H 
BRANCH   9  11
ATOM     11  N   MOL d          34.818  41.565  -2.519  0.00  0.00    -0.065 N 
ATOM     12  H1  MOL d          34.615  41.887  -1.586  0.00  0.00     0.275 HD
ATOM     13  H2  MOL d          35.323  40.694  -2.471  0.00  0.00     0.275 HD
ATOM     14  H3  MOL d          33.956  41.427  -3.022  0.00  0.00     0.275 HD
ENDBRANCH   9  11
BRANCH   9  15
ATOM     15  CB  MOL d          35.666  43.655  -2.223  0.00  0.00    -0.005 C 
ATOM     16  H5  MOL d          34.641  43.815  -1.858  0.00  0.00     0.044 H 
ATOM     17  H6  MOL d          36.030  44.572  -2.710  0.00  0.00     0.044 H 
BRANCH  15  18
ATOM     18  CG  MOL d          36.565  43.354  -1.028  0.00  0.00    -0.056 A 
ATOM     19  CD1 MOL d          37.715  44.138  -0.854  0.00  0.00    -0.077 A 
ATOM     20  CE1 MOL d          38.513  43.814   0.247  0.00  0.00    -0.082 A 
ATOM     21  H7  MOL d          37.969  44.944  -1.532  0.00  0.00     0.084 H 
ATOM     22  CZ  MOL d          38.193  42.800   1.137  0.00  0.00    -0.083 A 
ATOM     23  H9  MOL d          39.422  44.382   0.413  0.00  0.00     0.083 H 
ATOM     24  CE2 MOL d          37.046  42.071   0.895  0.00  0.00    -0.082 A 
ATOM     25  H11 MOL d          38.821  42.586   1.993  0.00  0.00     0.083 H 
ATOM     26  CD2 MOL d          36.281  42.318  -0.164  0.00  0.00    -0.077 A 
ATOM     27  H10 MOL d          36.764  41.282   1.583  0.00  0.00     0.083 H 
ATOM     28  H8  MOL d          35.416  41.692  -0.352  0.00  0.00     0.084 H 
ENDBRANCH  15  18
ENDBRANCH   9  15
ENDBRANCH   6   9
ENDBRANCH   3   6
ENDBRANCH   1   3
BRANCH   1  29
ATOM     29  CB  MOL d          34.456  39.711  -6.166  0.00  0.00    -0.029 C 
ATOM     30  H15 MOL d          33.684  39.817  -5.389  0.00  0.00     0.041 H 
ATOM     31  H16 MOL d          34.380  38.714  -6.624  0.00  0.00     0.041 H 
BRANCH  29  32
ATOM     32  CG  MOL d          34.177  40.739  -7.240  0.00  0.00    -0.057 A 
ATOM     33  CD1 MOL d          33.793  42.030  -6.915  0.00  0.00    -0.077 A 
ATOM     34  CE1 MOL d          33.531  42.969  -7.894  0.00  0.00    -0.082 A 
ATOM     35  H17 MOL d          33.697  42.309  -5.872  0.00  0.00     0.084 H 
ATOM     36  CZ  MOL d          33.665  42.606  -9.220  0.00  0.00    -0.083 A 
ATOM     37  H19 MOL d          33.224  43.974  -7.626  0.00  0.00     0.083 H 
ATOM     38  CE2 MOL d          34.047  41.317  -9.558  0.00  0.00    -0.082 A 
ATOM     39  H21 MOL d          33.472  43.332 -10.001  0.00  0.00     0.083 H 
ATOM     40  CD2 MOL d          34.334  40.395  -8.572  0.00  0.00    -0.077 A 
ATOM     41  H20 MOL d          34.119  41.033 -10.602  0.00  0.00     0.083 H 
ATOM     42  H18 MOL d          34.682  39.404  -8.841  0.00  0.00     0.084 H 
ENDBRANCH  29  32
ENDBRANCH   1  29
BRANCH   1  43
ATOM     43  C   MOL d          36.837  38.845  -6.117  0.00  0.00     0.223 C 
ATOM     44  O   MOL d          36.666  38.320  -7.213  0.00  0.00    -0.273 OA
ATOM     45  N   MOL d          37.918  38.639  -5.403  0.00  0.00    -0.346 N 
ATOM     46  H22 MOL d          37.942  39.179  -4.562  0.00  0.00     0.163 HD
BRANCH  45  47
ATOM     47  CA  MOL d          39.085  37.799  -5.571  0.00  0.00     0.100 C 
ATOM     48  H23 MOL d          39.555  37.981  -6.548  0.00  0.00     0.090 H 
BRANCH  47  49
ATOM     49  CB  MOL d          40.052  38.148  -4.474  0.00  0.00    -0.013 C 
ATOM     50  H24 MOL d          39.869  39.210  -4.255  0.00  0.00     0.043 H 
ATOM     51  H25 MOL d          41.049  38.033  -4.922  0.00  0.00     0.043 H 
BRANCH  49  52
ATOM     52  CG  MOL d          40.142  37.482  -3.141  0.00  0.00    -0.056 A 
ATOM     53  CD1 MOL d          41.160  36.601  -2.839  0.00  0.00    -0.077 A 
ATOM     54  CE1 MOL d          41.277  35.991  -1.603  0.00  0.00    -0.082 A 
ATOM     55  H26 MOL d          41.897  36.378  -3.602  0.00  0.00     0.084 H 
ATOM     56  CZ  MOL d          40.332  36.277  -0.634  0.00  0.00    -0.083 A 
ATOM     57  H28 MOL d          42.091  35.305  -1.398  0.00  0.00     0.083 H 
ATOM     58  CE2 MOL d          39.297  37.154  -0.915  0.00  0.00    -0.082 A 
ATOM     59  H30 MOL d          40.401  35.814   0.345  0.00  0.00     0.083 H 
ATOM     60  CD2 MOL d          39.201  37.757  -2.155  0.00  0.00    -0.077 A 
ATOM     61  H29 MOL d          38.555  37.370  -0.155  0.00  0.00     0.083 H 
ATOM     62  H27 MOL d          38.390  38.447  -2.359  0.00  0.00     0.084 H 
ENDBRANCH  49  52
ENDBRANCH  47  49
BRANCH  47  63
ATOM     63  C   MOL d          38.619  36.343  -5.489  0.00  0.00     0.197 C 
ATOM     64  O   MOL d          37.631  36.085  -4.777  0.00  0.00    -0.646 OA
ATOM     65  OXT MOL d          39.229  35.492  -6.132  0.00  0.00    -0.646 OA
ENDBRANCH  47  63
ENDBRANCH  45  47
ENDBRANCH   1  43
TORSDOF 13
ENDMDL
MODEL 9
REMARK VINA RESULT:      -7.0      2.054      7.078
REMARK  13 active torsions:
REMARK  status: ('A' for Active; 'I' for Inactive)
REMARK    1  A    between atoms: CA_2  and  N_1 
REMARK    2  A    between atoms: P_3  and  CA_2 
REMARK    3  A    between atoms: CA_2  and  CB_6 
REMARK    4  A    between atoms: CM_13  and  P_3 
REMARK    5  A    between atoms: CB_6  and  CG_7 
REMARK    6  A    between atoms: CA_14  and  CM_13 
REMARK    7  A    between atoms: CA_14  and  CB_15 
REMARK    8  A    between atoms: C_22  and  CA_14 
REMARK    9  A    between atoms: CB_15  and  CG_16 
REMARK       I    between atoms: C_22  and  N_24 
REMARK   10  A    between atoms: N_24  and  CA_25 
REMARK   11  A    between atoms: CA_25  and  CB_28 
REMARK   12  A    between atoms: CA_25  and  C_26 
REMARK   13  A    between atoms: CB_28  and  CG_29 
ROOT
ATOM      1  CA  MOL d          35.512  38.920  -6.846  0.00  0.00     0.036 C 
ATOM      2  H14 MOL d          34.652  38.411  -6.386  0.00  0.00     0.056 H 
ENDROOT
BRANCH   1   3
ATOM      3  CM  MOL d          36.081  39.877  -5.781  0.00  0.00     0.021 C 
ATOM      4  H12 MOL d          35.810  39.479  -4.792  0.00  0.00     0.050 H 
ATOM      5  H13 MOL d          37.176  39.883  -5.886  0.00  0.00     0.050 H 
BRANCH   3   6
ATOM      6  P   MOL d          35.524  41.544  -5.862  0.00  0.00     0.138 P 
ATOM      7  O1P MOL d          34.073  41.596  -6.237  0.00  0.00    -0.666 OA
ATOM      8  O2P MOL d          36.257  42.333  -6.873  0.00  0.00    -0.666 OA
BRANCH   6   9
ATOM      9  CA  MOL d          35.956  42.035  -4.273  0.00  0.00     0.177 C 
ATOM     10  H4  MOL d          36.148  43.114  -4.368  0.00  0.00     0.101 H 
BRANCH   9  11
ATOM     11  N   MOL d          34.821  41.824  -3.346  0.00  0.00    -0.065 N 
ATOM     12  H1  MOL d          34.847  42.521  -2.619  0.00  0.00     0.275 HD
ATOM     13  H2  MOL d          34.892  40.907  -2.934  0.00  0.00     0.275 HD
ATOM     14  H3  MOL d          33.954  41.899  -3.854  0.00  0.00     0.275 HD
ENDBRANCH   9  11
BRANCH   9  15
ATOM     15  CB  MOL d          37.069  41.499  -3.474  0.00  0.00    -0.005 C 
ATOM     16  H5  MOL d          38.006  41.662  -4.028  0.00  0.00     0.044 H 
ATOM     17  H6  MOL d          36.909  40.420  -3.332  0.00  0.00     0.044 H 
BRANCH  15  18
ATOM     18  CG  MOL d          37.199  42.153  -2.102  0.00  0.00    -0.056 A 
ATOM     19  CD1 MOL d          37.439  43.534  -2.050  0.00  0.00    -0.077 A 
ATOM     20  CE1 MOL d          37.564  44.084  -0.771  0.00  0.00    -0.082 A 
ATOM     21  H7  MOL d          37.522  44.137  -2.946  0.00  0.00     0.084 H 
ATOM     22  CZ  MOL d          37.438  43.331   0.388  0.00  0.00    -0.083 A 
ATOM     23  H9  MOL d          37.767  45.145  -0.680  0.00  0.00     0.083 H 
ATOM     24  CE2 MOL d          37.206  41.977   0.252  0.00  0.00    -0.082 A 
ATOM     25  H11 MOL d          37.520  43.790   1.365  0.00  0.00     0.083 H 
ATOM     26  CD2 MOL d          37.123  41.406  -0.946  0.00  0.00    -0.077 A 
ATOM     27  H10 MOL d          37.090  41.367   1.141  0.00  0.00     0.083 H 
ATOM     28  H8  MOL d          36.992  40.332  -1.014  0.00  0.00     0.084 H 
ENDBRANCH  15  18
ENDBRANCH   9  15
ENDBRANCH   6   9
ENDBRANCH   3   6
ENDBRANCH   1   3
BRANCH   1  29
ATOM     29  CB  MOL d          34.984  39.739  -8.037  0.00  0.00    -0.029 C 
ATOM     30  H15 MOL d          35.676  39.593  -8.880  0.00  0.00     0.041 H 
ATOM     31  H16 MOL d          34.984  40.799  -7.743  0.00  0.00     0.041 H 
BRANCH  29  32
ATOM     32  CG  MOL d          33.592  39.389  -8.514  0.00  0.00    -0.057 A 
ATOM     33  CD1 MOL d          32.903  38.309  -7.985  0.00  0.00    -0.077 A 
ATOM     34  CE1 MOL d          31.635  37.982  -8.424  0.00  0.00    -0.082 A 
ATOM     35  H17 MOL d          33.368  37.709  -7.212  0.00  0.00     0.084 H 
ATOM     36  CZ  MOL d          31.047  38.759  -9.404  0.00  0.00    -0.083 A 
ATOM     37  H19 MOL d          31.109  37.130  -8.006  0.00  0.00     0.083 H 
ATOM     38  CE2 MOL d          31.726  39.840  -9.942  0.00  0.00    -0.082 A 
ATOM     39  H21 MOL d          30.049  38.521  -9.753  0.00  0.00     0.083 H 
ATOM     40  CD2 MOL d          32.981  40.175  -9.477  0.00  0.00    -0.077 A 
ATOM     41  H20 MOL d          31.269  40.424 -10.732  0.00  0.00     0.083 H 
ATOM     42  H18 MOL d          33.487  41.052  -9.864  0.00  0.00     0.084 H 
ENDBRANCH  29  32
ENDBRANCH   1  29
BRANCH   1  43
ATOM     43  C   MOL d          36.467  37.815  -7.315  0.00  0.00     0.223 C 
ATOM     44  O   MOL d          36.314  37.192  -8.362  0.00  0.00    -0.273 OA
ATOM     45  N   MOL d          37.484  37.601  -6.515  0.00  0.00    -0.346 N 
ATOM     46  H22 MOL d          37.506  38.223  -5.733  0.00  0.00     0.163 HD
BRANCH  45  47
ATOM     47  CA  MOL d          38.583  36.658  -6.521  0.00  0.00     0.100 C 
ATOM     48  H23 MOL d          39.022  36.584  -7.526  0.00  0.00     0.090 H 
BRANCH  47  49
ATOM     49  CB  MOL d          39.617  37.165  -5.555  0.00  0.00    -0.013 C 
ATOM     50  H24 MOL d          39.831  38.196  -5.877  0.00  0.00     0.043 H 
ATOM     51  H25 MOL d          40.503  36.537  -5.725  0.00  0.00     0.043 H 
BRANCH  49  52
ATOM     52  CG  MOL d          39.467  37.240  -4.072  0.00  0.00    -0.056 A 
ATOM     53  CD1 MOL d          40.195  36.424  -3.230  0.00  0.00    -0.077 A 
ATOM     54  CE1 MOL d          40.091  36.492  -1.851  0.00  0.00    -0.082 A 
ATOM     55  H26 MOL d          40.874  35.700  -3.665  0.00  0.00     0.084 H 
ATOM     56  CZ  MOL d          39.219  37.415  -1.300  0.00  0.00    -0.083 A 
ATOM     57  H28 MOL d          40.678  35.837  -1.218  0.00  0.00     0.083 H 
ATOM     58  CE2 MOL d          38.474  38.242  -2.126  0.00  0.00    -0.082 A 
ATOM     59  H30 MOL d          39.119  37.491  -0.223  0.00  0.00     0.083 H 
ATOM     60  CD2 MOL d          38.597  38.161  -3.500  0.00  0.00    -0.077 A 
ATOM     61  H29 MOL d          37.789  38.959  -1.690  0.00  0.00     0.083 H 
ATOM     62  H27 MOL d          38.013  38.819  -4.134  0.00  0.00     0.084 H 
ENDBRANCH  49  52
ENDBRANCH  47  49
BRANCH  47  63
ATOM     63  C   MOL d          38.022  35.295  -6.106  0.00  0.00     0.197 C 
ATOM     64  O   MOL d          37.140  35.270  -5.227  0.00  0.00    -0.646 OA
ATOM     65  OXT MOL d          38.456  34.287  -6.657  0.00  0.00    -0.646 OA
ENDBRANCH  47  63
ENDBRANCH  45  47
ENDBRANCH   1  43
TORSDOF 13
ENDMDL
MODEL 10
REMARK VINA RESULT:      -6.7      2.888      7.648
REMARK  13 active torsions:
REMARK  status: ('A' for Active; 'I' for Inactive)
REMARK    1  A    between atoms: CA_2  and  N_1 
REMARK    2  A    between atoms: P_3  and  CA_2 
REMARK    3  A    between atoms: CA_2  and  CB_6 
REMARK    4  A    between atoms: CM_13  and  P_3 
REMARK    5  A    between atoms: CB_6  and  CG_7 
REMARK    6  A    between atoms: CA_14  and  CM_13 
REMARK    7  A    between atoms: CA_14  and  CB_15 
REMARK    8  A    between atoms: C_22  and  CA_14 
REMARK    9  A    between atoms: CB_15  and  CG_16 
REMARK       I    between atoms: C_22  and  N_24 
REMARK   10  A    between atoms: N_24  and  CA_25 
REMARK   11  A    between atoms: CA_25  and  CB_28 
REMARK   12  A    between atoms: CA_25  and  C_26 
REMARK   13  A    between atoms: CB_28  and  CG_29 
ROOT
ATOM      1  CA  MOL d          35.078  39.838  -7.341  0.00  0.00     0.036 C 
ATOM      2  H14 MOL d          35.212  40.086  -8.404  0.00  0.00     0.056 H 
ENDROOT
BRANCH   1   3
ATOM      3  CM  MOL d          35.594  38.398  -7.154  0.00  0.00     0.021 C 
ATOM      4  H12 MOL d          36.510  38.446  -6.546  0.00  0.00     0.050 H 
ATOM      5  H13 MOL d          34.823  37.832  -6.610  0.00  0.00     0.050 H 
BRANCH   3   6
ATOM      6  P   MOL d          35.972  37.514  -8.627  0.00  0.00     0.138 P 
ATOM      7  O1P MOL d          36.123  38.457  -9.783  0.00  0.00    -0.666 OA
ATOM      8  O2P MOL d          34.912  36.553  -8.993  0.00  0.00    -0.666 OA
BRANCH   6   9
ATOM      9  CA  MOL d          37.378  36.692  -8.079  0.00  0.00     0.177 C 
ATOM     10  H4  MOL d          37.045  35.654  -7.934  0.00  0.00     0.101 H 
BRANCH   9  11
ATOM     11  N   MOL d          38.428  36.724  -9.122  0.00  0.00    -0.065 N 
ATOM     12  H1  MOL d          38.028  36.465 -10.010  0.00  0.00     0.275 HD
ATOM     13  H2  MOL d          39.160  36.073  -8.881  0.00  0.00     0.275 HD
ATOM     14  H3  MOL d          38.812  37.653  -9.185  0.00  0.00     0.275 HD
ENDBRANCH   9  11
BRANCH   9  15
ATOM     15  CB  MOL d          38.166  37.030  -6.883  0.00  0.00    -0.005 C 
ATOM     16  H5  MOL d          37.509  36.969  -6.003  0.00  0.00     0.044 H 
ATOM     17  H6  MOL d          38.541  38.058  -6.990  0.00  0.00     0.044 H 
BRANCH  15  18
ATOM     18  CG  MOL d          39.357  36.103  -6.662  0.00  0.00    -0.056 A 
ATOM     19  CD1 MOL d          40.629  36.682  -6.540  0.00  0.00    -0.077 A 
ATOM     20  CE1 MOL d          41.690  35.790  -6.353  0.00  0.00    -0.082 A 
ATOM     21  H7  MOL d          40.780  37.754  -6.589  0.00  0.00     0.084 H 
ATOM     22  CZ  MOL d          41.513  34.417  -6.268  0.00  0.00    -0.083 A 
ATOM     23  H9  MOL d          42.694  36.190  -6.271  0.00  0.00     0.083 H 
ATOM     24  CE2 MOL d          40.231  33.925  -6.401  0.00  0.00    -0.082 A 
ATOM     25  H11 MOL d          42.353  33.754  -6.102  0.00  0.00     0.083 H 
ATOM     26  CD2 MOL d          39.199  34.734  -6.622  0.00  0.00    -0.077 A 
ATOM     27  H10 MOL d          40.062  32.857  -6.324  0.00  0.00     0.083 H 
ATOM     28  H8  MOL d          38.213  34.309  -6.774  0.00  0.00     0.084 H 
ENDBRANCH  15  18
ENDBRANCH   9  15
ENDBRANCH   6   9
ENDBRANCH   3   6
ENDBRANCH   1   3
BRANCH   1  29
ATOM     29  CB  MOL d          33.569  39.880  -7.042  0.00  0.00    -0.029 C 
ATOM     30  H15 MOL d          33.218  40.907  -7.222  0.00  0.00     0.041 H 
ATOM     31  H16 MOL d          33.429  39.626  -5.981  0.00  0.00     0.041 H 
BRANCH  29  32
ATOM     32  CG  MOL d          32.707  38.945  -7.861  0.00  0.00    -0.057 A 
ATOM     33  CD1 MOL d          32.144  37.810  -7.299  0.00  0.00    -0.077 A 
ATOM     34  CE1 MOL d          31.363  36.950  -8.046  0.00  0.00    -0.082 A 
ATOM     35  H17 MOL d          32.321  37.592  -6.252  0.00  0.00     0.084 H 
ATOM     36  CZ  MOL d          31.136  37.241  -9.377  0.00  0.00    -0.083 A 
ATOM     37  H19 MOL d          30.935  36.062  -7.595  0.00  0.00     0.083 H 
ATOM     38  CE2 MOL d          31.694  38.372  -9.952  0.00  0.00    -0.082 A 
ATOM     39  H21 MOL d          30.518  36.582  -9.976  0.00  0.00     0.083 H 
ATOM     40  CD2 MOL d          32.450  39.240  -9.190  0.00  0.00    -0.077 A 
ATOM     41  H20 MOL d          31.536  38.575 -11.005  0.00  0.00     0.083 H 
ATOM     42  H18 MOL d          32.842  40.149  -9.630  0.00  0.00     0.084 H 
ENDBRANCH  29  32
ENDBRANCH   1  29
BRANCH   1  43
ATOM     43  C   MOL d          35.829  40.914  -6.547  0.00  0.00     0.223 C 
ATOM     44  O   MOL d          35.917  42.082  -6.913  0.00  0.00    -0.273 OA
ATOM     45  N   MOL d          36.356  40.491  -5.423  0.00  0.00    -0.346 N 
ATOM     46  H22 MOL d          36.153  39.531  -5.231  0.00  0.00     0.163 HD
BRANCH  45  47
ATOM     47  CA  MOL d          37.169  41.115  -4.400  0.00  0.00     0.100 C 
ATOM     48  H23 MOL d          37.720  41.972  -4.814  0.00  0.00     0.090 H 
BRANCH  47  49
ATOM     49  CB  MOL d          36.242  41.588  -3.316  0.00  0.00    -0.013 C 
ATOM     50  H24 MOL d          35.674  40.696  -3.012  0.00  0.00     0.043 H 
ATOM     51  H25 MOL d          35.566  42.303  -3.806  0.00  0.00     0.043 H 
BRANCH  49  52
ATOM     52  CG  MOL d          36.650  42.246  -2.040  0.00  0.00    -0.056 A 
ATOM     53  CD1 MOL d          36.659  41.560  -0.843  0.00  0.00    -0.077 A 
ATOM     54  CE1 MOL d          37.056  42.142   0.348  0.00  0.00    -0.082 A 
ATOM     55  H26 MOL d          36.343  40.523  -0.835  0.00  0.00     0.084 H 
ATOM     56  CZ  MOL d          37.455  43.467   0.335  0.00  0.00    -0.083 A 
ATOM     57  H28 MOL d          37.054  41.573   1.271  0.00  0.00     0.083 H 
ATOM     58  CE2 MOL d          37.449  44.178  -0.855  0.00  0.00    -0.082 A 
ATOM     59  H30 MOL d          37.773  43.948   1.253  0.00  0.00     0.083 H 
ATOM     60  CD2 MOL d          37.054  43.576  -2.034  0.00  0.00    -0.077 A 
ATOM     61  H29 MOL d          37.756  45.218  -0.860  0.00  0.00     0.083 H 
ATOM     62  H27 MOL d          37.060  44.143  -2.959  0.00  0.00     0.084 H 
ENDBRANCH  49  52
ENDBRANCH  47  49
BRANCH  47  63
ATOM     63  C   MOL d          38.161  40.064  -3.895  0.00  0.00     0.197 C 
ATOM     64  O   MOL d          37.805  38.871  -3.910  0.00  0.00    -0.646 OA
ATOM     65  OXT MOL d          39.265  40.435  -3.505  0.00  0.00    -0.646 OA
ENDBRANCH  47  63
ENDBRANCH  45  47
ENDBRANCH   1  43
TORSDOF 13
ENDMDL
