MODEL 1
REMARK VINA RESULT:      -7.7      0.000      0.000
REMARK  9 active torsions:
REMARK  status: ('A' for Active; 'I' for Inactive)
REMARK    1  A    between atoms: C20_6  and  C17_7 
REMARK    2  A    between atoms: C4_11  and  C1_12 
REMARK    3  A    between atoms: N12_24  and  C19_25 
REMARK    4  A    between atoms: C19_25  and  C21_26 
REMARK    5  A    between atoms: C21_26  and  C23_27 
REMARK    6  A    between atoms: C23_27  and  N29_28 
REMARK    7  A    between atoms: N29_28  and  C32_29 
REMARK    8  A    between atoms: N29_28  and  C31_30 
REMARK    9  A    between atoms: N29_28  and  C30_31 
ROOT
ATOM      1  C1  Y5H d          -2.981  13.163  22.149  0.00  0.00     0.160 C 
ATOM      2  N3  Y5H d          -4.379  13.358  22.615  0.00  0.00    -0.055 N 
ATOM      3  C7  Y5H d          -5.069  13.858  21.413  0.00  0.00     0.117 C 
ATOM      4  C14 Y5H d          -4.717  15.354  21.341  0.00  0.00    -0.036 C 
ATOM      5  C15 Y5H d          -4.532  15.746  22.816  0.00  0.00    -0.040 C 
ATOM      6  C8  Y5H d          -4.516  14.436  23.627  0.00  0.00     0.085 C 
ATOM      7  C5  Y5H d          -4.549  13.034  20.239  0.00  0.00     0.066 A 
ATOM      8  C2  Y5H d          -3.186  12.492  20.748  0.00  0.00     0.071 A 
ATOM      9  C6  Y5H d          -3.404  10.986  20.745  0.00  0.00     0.234 A 
ATOM     10  O13 Y5H d          -2.608  10.108  21.031  0.00  0.00    -0.272 OA
ATOM     11  C11 Y5H d          -5.417  11.825  20.002  0.00  0.00     0.233 A 
ATOM     12  O18 Y5H d          -6.568  11.763  19.570  0.00  0.00    -0.272 OA
ATOM     13  N12 Y5H d          -4.719  10.660  20.373  0.00  0.00    -0.288 N 
ATOM     14  H4  Y5H d          -2.470  14.132  22.050  0.00  0.00     0.096 H 
ATOM     15  H5  Y5H d          -4.771  12.495  22.959  0.00  0.00     0.281 HD
ATOM     16  H6  Y5H d          -6.158  13.734  21.495  0.00  0.00     0.086 H 
ATOM     17  H7  Y5H d          -5.534  15.929  20.881  0.00  0.00     0.036 H 
ATOM     18  H8  Y5H d          -3.789  15.515  20.772  0.00  0.00     0.036 H 
ATOM     19  H9  Y5H d          -5.365  16.385  23.146  0.00  0.00     0.035 H 
ATOM     20  H10 Y5H d          -3.582  16.285  22.948  0.00  0.00     0.035 H 
ATOM     21  H11 Y5H d          -3.665  14.423  24.323  0.00  0.00     0.076 H 
ATOM     22  H12 Y5H d          -5.453  14.319  24.191  0.00  0.00     0.076 H 
ATOM     23  H13 Y5H d          -4.452  13.641  19.327  0.00  0.00     0.059 H 
ATOM     24  H14 Y5H d          -2.351  12.757  20.083  0.00  0.00     0.059 H 
ENDROOT
BRANCH  13  25
ATOM     25  C19 Y5H d          -5.226   9.281  20.287  0.00  0.00     0.007 C 
ATOM     26  H15 Y5H d          -6.306   9.278  20.499  0.00  0.00     0.065 H 
ATOM     27  H16 Y5H d          -4.706   8.657  21.029  0.00  0.00     0.065 H 
BRANCH  25  28
ATOM     28  C21 Y5H d          -4.985   8.707  18.884  0.00  0.00    -0.027 C 
ATOM     29  H17 Y5H d          -3.931   8.821  18.593  0.00  0.00     0.037 H 
ATOM     30  H18 Y5H d          -5.626   9.207  18.144  0.00  0.00     0.037 H 
BRANCH  28  31
ATOM     31  C23 Y5H d          -5.357   7.216  19.006  0.00  0.00     0.086 C 
ATOM     32  H19 Y5H d          -5.766   7.042  20.013  0.00  0.00     0.076 H 
ATOM     33  H20 Y5H d          -4.442   6.619  18.875  0.00  0.00     0.076 H 
BRANCH  31  34
ATOM     34  N29 Y5H d          -6.380   6.754  17.988  0.00  0.00    -0.079 N 
BRANCH  34  35
ATOM     35  C32 Y5H d          -7.687   7.456  18.221  0.00  0.00     0.067 C 
ATOM     36  H21 Y5H d          -8.516   6.792  17.934  0.00  0.00     0.068 H 
ATOM     37  H22 Y5H d          -7.725   8.373  17.614  0.00  0.00     0.068 H 
ATOM     38  H23 Y5H d          -7.778   7.717  19.286  0.00  0.00     0.068 H 
ENDBRANCH  34  35
BRANCH  34  39
ATOM     39  C31 Y5H d          -6.611   5.286  18.265  0.00  0.00     0.067 C 
ATOM     40  H24 Y5H d          -6.406   4.705  17.354  0.00  0.00     0.068 H 
ATOM     41  H25 Y5H d          -7.656   5.131  18.572  0.00  0.00     0.068 H 
ATOM     42  H26 Y5H d          -5.940   4.955  19.070  0.00  0.00     0.068 H 
ENDBRANCH  34  39
BRANCH  34  43
ATOM     43  C30 Y5H d          -5.943   6.969  16.579  0.00  0.00     0.067 C 
ATOM     44  H27 Y5H d          -6.246   7.974  16.250  0.00  0.00     0.068 H 
ATOM     45  H28 Y5H d          -6.412   6.215  15.930  0.00  0.00     0.068 H 
ATOM     46  H29 Y5H d          -4.849   6.877  16.516  0.00  0.00     0.068 H 
ENDBRANCH  34  43
ENDBRANCH  31  34
ENDBRANCH  28  31
ENDBRANCH  25  28
ENDBRANCH  13  25
BRANCH   1  47
ATOM     47  C4  Y5H d          -2.166  12.275  23.054  0.00  0.00     0.091 A 
ATOM     48  N16 Y5H d          -2.714  11.454  24.013  0.00  0.00    -0.224 NA
ATOM     49  C17 Y5H d          -1.678  10.838  24.547  0.00  0.00     0.186 A 
ATOM     50  O10 Y5H d          -0.476  11.268  24.085  0.00  0.00    -0.301 OA
ATOM     51  C9  Y5H d          -0.835  12.171  23.097  0.00  0.00     0.047 A 
ATOM     52  H3  Y5H d          -0.141  12.711  22.455  0.00  0.00     0.126 H 
BRANCH  49  53
ATOM     53  C20 Y5H d          -1.665   9.951  25.701  0.00  0.00     0.059 A 
ATOM     54  C22 Y5H d          -2.596   9.893  26.731  0.00  0.00    -0.060 A 
ATOM     55  C24 Y5H d          -2.374   8.823  27.629  0.00  0.00    -0.054 A 
ATOM     56  H2  Y5H d          -3.416  10.602  26.837  0.00  0.00     0.085 H 
ATOM     57  C25 Y5H d          -1.318   8.052  27.218  0.00  0.00     0.075 A 
ATOM     58  H1  Y5H d          -2.963   8.637  28.526  0.00  0.00     0.086 H 
ATOM     59 CL1  Y5H d          -0.699   6.598  27.971  0.00  0.00    -0.076 Cl
ATOM     60  S1  Y5H d          -0.510   8.661  25.802  0.00  0.00    -0.074 SA
ENDBRANCH  49  53
ENDBRANCH   1  47
TORSDOF 9
ENDMDL
MODEL 2
REMARK VINA RESULT:      -7.6      1.664      2.083
REMARK  9 active torsions:
REMARK  status: ('A' for Active; 'I' for Inactive)
REMARK    1  A    between atoms: C20_6  and  C17_7 
REMARK    2  A    between atoms: C4_11  and  C1_12 
REMARK    3  A    between atoms: N12_24  and  C19_25 
REMARK    4  A    between atoms: C19_25  and  C21_26 
REMARK    5  A    between atoms: C21_26  and  C23_27 
REMARK    6  A    between atoms: C23_27  and  N29_28 
REMARK    7  A    between atoms: N29_28  and  C32_29 
REMARK    8  A    between atoms: N29_28  and  C31_30 
REMARK    9  A    between atoms: N29_28  and  C30_31 
ROOT
ATOM      1  C1  Y5H d          -1.636  12.188  22.027  0.00  0.00     0.160 C 
ATOM      2  N3  Y5H d          -2.304  13.469  21.676  0.00  0.00    -0.055 N 
ATOM      3  C7  Y5H d          -2.291  13.464  20.203  0.00  0.00     0.117 C 
ATOM      4  C14 Y5H d          -0.873  13.915  19.812  0.00  0.00    -0.036 C 
ATOM      5  C15 Y5H d          -0.464  14.841  20.970  0.00  0.00    -0.040 C 
ATOM      6  C8  Y5H d          -1.524  14.668  22.075  0.00  0.00     0.085 C 
ATOM      7  C5  Y5H d          -2.639  12.043  19.770  0.00  0.00     0.066 A 
ATOM      8  C2  Y5H d          -2.284  11.185  21.014  0.00  0.00     0.071 A 
ATOM      9  C6  Y5H d          -3.631  10.598  21.410  0.00  0.00     0.234 A 
ATOM     10  O13 Y5H d          -3.877   9.818  22.315  0.00  0.00    -0.272 OA
ATOM     11  C11 Y5H d          -4.125  11.890  19.568  0.00  0.00     0.233 A 
ATOM     12  O18 Y5H d          -4.846  12.363  18.689  0.00  0.00    -0.272 OA
ATOM     13  N12 Y5H d          -4.663  11.086  20.591  0.00  0.00    -0.288 N 
ATOM     14  H4  Y5H d          -0.551  12.265  21.867  0.00  0.00     0.096 H 
ATOM     15  H5  Y5H d          -3.237  13.509  22.057  0.00  0.00     0.281 HD
ATOM     16  H6  Y5H d          -3.032  14.166  19.793  0.00  0.00     0.086 H 
ATOM     17  H7  Y5H d          -0.882  14.460  18.857  0.00  0.00     0.036 H 
ATOM     18  H8  Y5H d          -0.192  13.054  19.737  0.00  0.00     0.036 H 
ATOM     19  H9  Y5H d          -0.439  15.886  20.629  0.00  0.00     0.035 H 
ATOM     20  H10 Y5H d           0.528  14.556  21.350  0.00  0.00     0.035 H 
ATOM     21  H11 Y5H d          -1.043  14.509  23.051  0.00  0.00     0.076 H 
ATOM     22  H12 Y5H d          -2.175  15.553  22.127  0.00  0.00     0.076 H 
ATOM     23  H13 Y5H d          -2.081  11.743  18.872  0.00  0.00     0.059 H 
ATOM     24  H14 Y5H d          -1.572  10.379  20.782  0.00  0.00     0.059 H 
ENDROOT
BRANCH  13  25
ATOM     25  C19 Y5H d          -6.076  10.702  20.739  0.00  0.00     0.007 C 
ATOM     26  H15 Y5H d          -6.694  11.337  20.088  0.00  0.00     0.065 H 
ATOM     27  H16 Y5H d          -6.381  10.843  21.787  0.00  0.00     0.065 H 
BRANCH  25  28
ATOM     28  C21 Y5H d          -6.277   9.231  20.348  0.00  0.00    -0.027 C 
ATOM     29  H17 Y5H d          -7.097   8.782  20.928  0.00  0.00     0.037 H 
ATOM     30  H18 Y5H d          -5.354   8.656  20.513  0.00  0.00     0.037 H 
BRANCH  28  31
ATOM     31  C23 Y5H d          -6.631   9.274  18.849  0.00  0.00     0.086 C 
ATOM     32  H19 Y5H d          -6.025  10.058  18.372  0.00  0.00     0.076 H 
ATOM     33  H20 Y5H d          -7.698   9.525  18.753  0.00  0.00     0.076 H 
BRANCH  31  34
ATOM     34  N29 Y5H d          -6.380   7.967  18.123  0.00  0.00    -0.079 N 
BRANCH  34  35
ATOM     35  C32 Y5H d          -6.066   8.237  16.679  0.00  0.00     0.067 C 
ATOM     36  H21 Y5H d          -5.436   9.136  16.602  0.00  0.00     0.068 H 
ATOM     37  H22 Y5H d          -7.002   8.396  16.123  0.00  0.00     0.068 H 
ATOM     38  H23 Y5H d          -5.529   7.376  16.254  0.00  0.00     0.068 H 
ENDBRANCH  34  35
BRANCH  34  39
ATOM     39  C31 Y5H d          -7.689   7.213  18.156  0.00  0.00     0.067 C 
ATOM     40  H24 Y5H d          -8.248   7.407  17.228  0.00  0.00     0.068 H 
ATOM     41  H25 Y5H d          -8.284   7.547  19.019  0.00  0.00     0.068 H 
ATOM     42  H26 Y5H d          -7.489   6.135  18.245  0.00  0.00     0.068 H 
ENDBRANCH  34  39
BRANCH  34  43
ATOM     43  C30 Y5H d          -5.283   7.160  18.729  0.00  0.00     0.067 C 
ATOM     44  H27 Y5H d          -5.466   6.092  18.540  0.00  0.00     0.068 H 
ATOM     45  H28 Y5H d          -5.252   7.340  19.813  0.00  0.00     0.068 H 
ATOM     46  H29 Y5H d          -4.322   7.452  18.281  0.00  0.00     0.068 H 
ENDBRANCH  34  43
ENDBRANCH  31  34
ENDBRANCH  28  31
ENDBRANCH  25  28
ENDBRANCH  13  25
BRANCH   1  47
ATOM     47  C4  Y5H d          -1.887  11.751  23.448  0.00  0.00     0.091 A 
ATOM     48  N16 Y5H d          -1.401  10.580  23.984  0.00  0.00    -0.224 NA
ATOM     49  C17 Y5H d          -1.814  10.597  25.235  0.00  0.00     0.186 A 
ATOM     50  O10 Y5H d          -2.628  11.640  25.538  0.00  0.00    -0.301 OA
ATOM     51  C9  Y5H d          -2.622  12.382  24.368  0.00  0.00     0.047 A 
ATOM     52  H3  Y5H d          -3.135  13.331  24.221  0.00  0.00     0.126 H 
BRANCH  49  53
ATOM     53  C20 Y5H d          -1.696   9.539  26.227  0.00  0.00     0.059 A 
ATOM     54  C22 Y5H d          -2.571   9.258  27.270  0.00  0.00    -0.060 A 
ATOM     55  C24 Y5H d          -2.247   8.073  27.971  0.00  0.00    -0.054 A 
ATOM     56  H2  Y5H d          -3.422   9.888  27.523  0.00  0.00     0.085 H 
ATOM     57  C25 Y5H d          -1.172   7.444  27.398  0.00  0.00     0.075 A 
ATOM     58  H1  Y5H d          -2.779   7.709  28.848  0.00  0.00     0.086 H 
ATOM     59 CL1  Y5H d          -0.438   5.930  27.878  0.00  0.00    -0.076 Cl
ATOM     60  S1  Y5H d          -0.469   8.323  26.070  0.00  0.00    -0.074 SA
ENDBRANCH  49  53
ENDBRANCH   1  47
TORSDOF 9
ENDMDL
MODEL 3
REMARK VINA RESULT:      -6.9      2.637      4.232
REMARK  9 active torsions:
REMARK  status: ('A' for Active; 'I' for Inactive)
REMARK    1  A    between atoms: C20_6  and  C17_7 
REMARK    2  A    between atoms: C4_11  and  C1_12 
REMARK    3  A    between atoms: N12_24  and  C19_25 
REMARK    4  A    between atoms: C19_25  and  C21_26 
REMARK    5  A    between atoms: C21_26  and  C23_27 
REMARK    6  A    between atoms: C23_27  and  N29_28 
REMARK    7  A    between atoms: N29_28  and  C32_29 
REMARK    8  A    between atoms: N29_28  and  C31_30 
REMARK    9  A    between atoms: N29_28  and  C30_31 
ROOT
ATOM      1  C1  Y5H d          -1.663  12.146  22.015  0.00  0.00     0.160 C 
ATOM      2  N3  Y5H d          -2.219  13.484  21.684  0.00  0.00    -0.055 N 
ATOM      3  C7  Y5H d          -2.262  13.477  20.212  0.00  0.00     0.117 C 
ATOM      4  C14 Y5H d          -0.823  13.791  19.767  0.00  0.00    -0.036 C 
ATOM      5  C15 Y5H d          -0.284  14.674  20.905  0.00  0.00    -0.040 C 
ATOM      6  C8  Y5H d          -1.313  14.603  22.049  0.00  0.00     0.085 C 
ATOM      7  C5  Y5H d          -2.760  12.097  19.798  0.00  0.00     0.066 A 
ATOM      8  C2  Y5H d          -2.441  11.209  21.030  0.00  0.00     0.071 A 
ATOM      9  C6  Y5H d          -3.822  10.753  21.479  0.00  0.00     0.234 A 
ATOM     10  O13 Y5H d          -4.107  10.000  22.395  0.00  0.00    -0.272 OA
ATOM     11  C11 Y5H d          -4.260  12.086  19.652  0.00  0.00     0.233 A 
ATOM     12  O18 Y5H d          -4.965  12.625  18.799  0.00  0.00    -0.272 OA
ATOM     13  N12 Y5H d          -4.833  11.336  20.698  0.00  0.00    -0.288 N 
ATOM     14  H4  Y5H d          -0.582  12.118  21.814  0.00  0.00     0.096 H 
ATOM     15  H5  Y5H d          -3.128  13.613  22.100  0.00  0.00     0.281 HD
ATOM     16  H6  Y5H d          -2.947  14.247  19.827  0.00  0.00     0.086 H 
ATOM     17  H7  Y5H d          -0.816  14.335  18.810  0.00  0.00     0.036 H 
ATOM     18  H8  Y5H d          -0.230  12.870  19.669  0.00  0.00     0.036 H 
ATOM     19  H9  Y5H d          -0.173  15.712  20.559  0.00  0.00     0.035 H 
ATOM     20  H10 Y5H d           0.690  14.296  21.248  0.00  0.00     0.035 H 
ATOM     21  H11 Y5H d          -0.813  14.399  23.007  0.00  0.00     0.076 H 
ATOM     22  H12 Y5H d          -1.875  15.546  22.122  0.00  0.00     0.076 H 
ATOM     23  H13 Y5H d          -2.267  11.744  18.880  0.00  0.00     0.059 H 
ATOM     24  H14 Y5H d          -1.818  10.339  20.775  0.00  0.00     0.059 H 
ENDROOT
BRANCH  13  25
ATOM     25  C19 Y5H d          -6.269  11.089  20.901  0.00  0.00     0.007 C 
ATOM     26  H15 Y5H d          -6.404  10.439  21.778  0.00  0.00     0.065 H 
ATOM     27  H16 Y5H d          -6.680  10.591  20.009  0.00  0.00     0.065 H 
BRANCH  25  28
ATOM     28  C21 Y5H d          -7.015  12.411  21.131  0.00  0.00    -0.027 C 
ATOM     29  H17 Y5H d          -8.011  12.382  20.665  0.00  0.00     0.037 H 
ATOM     30  H18 Y5H d          -6.443  13.256  20.721  0.00  0.00     0.037 H 
BRANCH  28  31
ATOM     31  C23 Y5H d          -7.135  12.526  22.663  0.00  0.00     0.086 C 
ATOM     32  H19 Y5H d          -6.332  11.927  23.119  0.00  0.00     0.076 H 
ATOM     33  H20 Y5H d          -8.112  12.121  22.966  0.00  0.00     0.076 H 
BRANCH  31  34
ATOM     34  N29 Y5H d          -7.025  13.946  23.181  0.00  0.00    -0.079 N 
BRANCH  34  35
ATOM     35  C32 Y5H d          -7.605  14.903  22.178  0.00  0.00     0.067 C 
ATOM     36  H21 Y5H d          -8.291  14.362  21.509  0.00  0.00     0.068 H 
ATOM     37  H22 Y5H d          -6.793  15.351  21.587  0.00  0.00     0.068 H 
ATOM     38  H23 Y5H d          -8.157  15.696  22.705  0.00  0.00     0.068 H 
ENDBRANCH  34  35
BRANCH  34  39
ATOM     39  C31 Y5H d          -5.547  14.244  23.272  0.00  0.00     0.067 C 
ATOM     40  H24 Y5H d          -5.226  14.787  22.370  0.00  0.00     0.068 H 
ATOM     41  H25 Y5H d          -4.986  13.301  23.352  0.00  0.00     0.068 H 
ATOM     42  H26 Y5H d          -5.351  14.862  24.161  0.00  0.00     0.068 H 
ENDBRANCH  34  39
BRANCH  34  43
ATOM     43  C30 Y5H d          -7.692  14.142  24.500  0.00  0.00     0.067 C 
ATOM     44  H27 Y5H d          -8.413  13.329  24.671  0.00  0.00     0.068 H 
ATOM     45  H28 Y5H d          -8.219  15.107  24.505  0.00  0.00     0.068 H 
ATOM     46  H29 Y5H d          -6.935  14.134  25.298  0.00  0.00     0.068 H 
ENDBRANCH  34  43
ENDBRANCH  31  34
ENDBRANCH  28  31
ENDBRANCH  25  28
ENDBRANCH  13  25
BRANCH   1  47
ATOM     47  C4  Y5H d          -1.900  11.735  23.446  0.00  0.00     0.091 A 
ATOM     48  N16 Y5H d          -1.452  10.550  23.984  0.00  0.00    -0.224 NA
ATOM     49  C17 Y5H d          -1.837  10.597  25.244  0.00  0.00     0.186 A 
ATOM     50  O10 Y5H d          -2.598  11.677  25.553  0.00  0.00    -0.301 OA
ATOM     51  C9  Y5H d          -2.587  12.405  24.374  0.00  0.00     0.047 A 
ATOM     52  H3  Y5H d          -3.063  13.374  24.228  0.00  0.00     0.126 H 
BRANCH  49  53
ATOM     53  C20 Y5H d          -1.742   9.546  26.245  0.00  0.00     0.059 A 
ATOM     54  C22 Y5H d          -2.655   9.252  27.251  0.00  0.00    -0.060 A 
ATOM     55  C24 Y5H d          -2.340   8.077  27.971  0.00  0.00    -0.054 A 
ATOM     56  H2  Y5H d          -3.528   9.868  27.465  0.00  0.00     0.085 H 
ATOM     57  C25 Y5H d          -1.229   7.466  27.448  0.00  0.00     0.075 A 
ATOM     58  H1  Y5H d          -2.903   7.707  28.826  0.00  0.00     0.086 H 
ATOM     59 CL1  Y5H d          -0.489   5.968  27.967  0.00  0.00    -0.076 Cl
ATOM     60  S1  Y5H d          -0.486   8.352  26.147  0.00  0.00    -0.074 SA
ENDBRANCH  49  53
ENDBRANCH   1  47
TORSDOF 9
ENDMDL
MODEL 4
REMARK VINA RESULT:      -6.6      4.058      6.908
REMARK  9 active torsions:
REMARK  status: ('A' for Active; 'I' for Inactive)
REMARK    1  A    between atoms: C20_6  and  C17_7 
REMARK    2  A    between atoms: C4_11  and  C1_12 
REMARK    3  A    between atoms: N12_24  and  C19_25 
REMARK    4  A    between atoms: C19_25  and  C21_26 
REMARK    5  A    between atoms: C21_26  and  C23_27 
REMARK    6  A    between atoms: C23_27  and  N29_28 
REMARK    7  A    between atoms: N29_28  and  C32_29 
REMARK    8  A    between atoms: N29_28  and  C31_30 
REMARK    9  A    between atoms: N29_28  and  C30_31 
ROOT
ATOM      1  C1  Y5H d          -4.548  11.709  22.346  0.00  0.00     0.160 C 
ATOM      2  N3  Y5H d          -4.766  13.179  22.351  0.00  0.00    -0.055 N 
ATOM      3  C7  Y5H d          -3.805  13.660  23.358  0.00  0.00     0.117 C 
ATOM      4  C14 Y5H d          -4.481  13.397  24.716  0.00  0.00    -0.036 C 
ATOM      5  C15 Y5H d          -5.980  13.519  24.395  0.00  0.00    -0.040 C 
ATOM      6  C8  Y5H d          -6.104  13.573  22.860  0.00  0.00     0.085 C 
ATOM      7  C5  Y5H d          -2.515  12.877  23.138  0.00  0.00     0.066 A 
ATOM      8  C2  Y5H d          -2.986  11.603  22.385  0.00  0.00     0.071 A 
ATOM      9  C6  Y5H d          -2.266  11.720  21.049  0.00  0.00     0.234 A 
ATOM     10  O13 Y5H d          -2.279  10.938  20.114  0.00  0.00    -0.272 OA
ATOM     11  C11 Y5H d          -1.597  13.606  22.191  0.00  0.00     0.233 A 
ATOM     12  O18 Y5H d          -0.965  14.649  22.364  0.00  0.00    -0.272 OA
ATOM     13  N12 Y5H d          -1.537  12.918  20.964  0.00  0.00    -0.288 N 
ATOM     14  H4  Y5H d          -4.996  11.251  23.241  0.00  0.00     0.096 H 
ATOM     15  H5  Y5H d          -4.603  13.573  21.437  0.00  0.00     0.281 HD
ATOM     16  H6  Y5H d          -3.607  14.736  23.243  0.00  0.00     0.086 H 
ATOM     17  H7  Y5H d          -4.176  14.148  25.460  0.00  0.00     0.036 H 
ATOM     18  H8  Y5H d          -4.239  12.391  25.088  0.00  0.00     0.036 H 
ATOM     19  H9  Y5H d          -6.389  14.438  24.840  0.00  0.00     0.035 H 
ATOM     20  H10 Y5H d          -6.523  12.648  24.788  0.00  0.00     0.035 H 
ATOM     21  H11 Y5H d          -6.873  12.870  22.509  0.00  0.00     0.076 H 
ATOM     22  H12 Y5H d          -6.360  14.590  22.528  0.00  0.00     0.076 H 
ATOM     23  H13 Y5H d          -2.010  12.648  24.088  0.00  0.00     0.059 H 
ATOM     24  H14 Y5H d          -2.688  10.676  22.897  0.00  0.00     0.059 H 
ENDROOT
BRANCH  13  25
ATOM     25  C19 Y5H d          -0.745  13.311  19.787  0.00  0.00     0.007 C 
ATOM     26  H15 Y5H d          -0.265  12.418  19.359  0.00  0.00     0.065 H 
ATOM     27  H16 Y5H d           0.028  14.031  20.095  0.00  0.00     0.065 H 
BRANCH  25  28
ATOM     28  C21 Y5H d          -1.645  13.959  18.726  0.00  0.00    -0.027 C 
ATOM     29  H17 Y5H d          -2.293  14.724  19.180  0.00  0.00     0.037 H 
ATOM     30  H18 Y5H d          -2.267  13.201  18.229  0.00  0.00     0.037 H 
BRANCH  28  31
ATOM     31  C23 Y5H d          -0.665  14.601  17.725  0.00  0.00     0.086 C 
ATOM     32  H19 Y5H d           0.356  14.487  18.119  0.00  0.00     0.076 H 
ATOM     33  H20 Y5H d          -0.907  15.670  17.640  0.00  0.00     0.076 H 
BRANCH  31  34
ATOM     34  N29 Y5H d          -0.714  13.987  16.340  0.00  0.00    -0.079 N 
BRANCH  34  35
ATOM     35  C32 Y5H d           0.288  12.872  16.239  0.00  0.00     0.067 C 
ATOM     36  H21 Y5H d           0.170  12.360  15.273  0.00  0.00     0.068 H 
ATOM     37  H22 Y5H d           0.122  12.154  17.057  0.00  0.00     0.068 H 
ATOM     38  H23 Y5H d           1.305  13.285  16.314  0.00  0.00     0.068 H 
ENDBRANCH  34  35
BRANCH  34  39
ATOM     39  C31 Y5H d          -0.265  15.071  15.387  0.00  0.00     0.067 C 
ATOM     40  H24 Y5H d           0.473  14.658  14.684  0.00  0.00     0.068 H 
ATOM     41  H25 Y5H d           0.191  15.894  15.957  0.00  0.00     0.068 H 
ATOM     42  H26 Y5H d          -1.133  15.450  14.828  0.00  0.00     0.068 H 
ENDBRANCH  34  39
BRANCH  34  43
ATOM     43  C30 Y5H d          -2.066  13.478  15.972  0.00  0.00     0.067 C 
ATOM     44  H27 Y5H d          -2.511  14.138  15.212  0.00  0.00     0.068 H 
ATOM     45  H28 Y5H d          -2.707  13.461  16.865  0.00  0.00     0.068 H 
ATOM     46  H29 Y5H d          -1.976  12.460  15.565  0.00  0.00     0.068 H 
ENDBRANCH  34  43
ENDBRANCH  31  34
ENDBRANCH  28  31
ENDBRANCH  25  28
ENDBRANCH  13  25
BRANCH   1  47
ATOM     47  C4  Y5H d          -5.100  11.024  21.122  0.00  0.00     0.091 A 
ATOM     48  N16 Y5H d          -5.086   9.660  20.938  0.00  0.00    -0.224 NA
ATOM     49  C17 Y5H d          -5.683   9.481  19.777  0.00  0.00     0.186 A 
ATOM     50  O10 Y5H d          -5.996  10.631  19.129  0.00  0.00    -0.301 OA
ATOM     51  C9  Y5H d          -5.636  11.605  20.046  0.00  0.00     0.047 A 
ATOM     52  H3  Y5H d          -5.770  12.678  19.911  0.00  0.00     0.126 H 
BRANCH  49  53
ATOM     53  C20 Y5H d          -5.826   8.240  19.030  0.00  0.00     0.059 A 
ATOM     54  C22 Y5H d          -4.881   7.231  18.880  0.00  0.00    -0.060 A 
ATOM     55  C24 Y5H d          -5.380   6.089  18.212  0.00  0.00    -0.054 A 
ATOM     56  H2  Y5H d          -3.857   7.312  19.242  0.00  0.00     0.085 H 
ATOM     57  C25 Y5H d          -6.715   6.231  17.932  0.00  0.00     0.075 A 
ATOM     58  H1  Y5H d          -4.785   5.215  17.955  0.00  0.00     0.086 H 
ATOM     59 CL1  Y5H d          -7.775   5.070  17.163  0.00  0.00    -0.076 Cl
ATOM     60  S1  Y5H d          -7.365   7.784  18.374  0.00  0.00    -0.074 SA
ENDBRANCH  49  53
ENDBRANCH   1  47
TORSDOF 9
ENDMDL
MODEL 5
REMARK VINA RESULT:      -6.6      4.124      7.629
REMARK  9 active torsions:
REMARK  status: ('A' for Active; 'I' for Inactive)
REMARK    1  A    between atoms: C20_6  and  C17_7 
REMARK    2  A    between atoms: C4_11  and  C1_12 
REMARK    3  A    between atoms: N12_24  and  C19_25 
REMARK    4  A    between atoms: C19_25  and  C21_26 
REMARK    5  A    between atoms: C21_26  and  C23_27 
REMARK    6  A    between atoms: C23_27  and  N29_28 
REMARK    7  A    between atoms: N29_28  and  C32_29 
REMARK    8  A    between atoms: N29_28  and  C31_30 
REMARK    9  A    between atoms: N29_28  and  C30_31 
ROOT
ATOM      1  C1  Y5H d          -4.120  13.020  17.460  0.00  0.00     0.160 C 
ATOM      2  N3  Y5H d          -2.798  12.680  16.871  0.00  0.00    -0.055 N 
ATOM      3  C7  Y5H d          -1.967  13.848  17.211  0.00  0.00     0.117 C 
ATOM      4  C14 Y5H d          -2.333  14.918  16.168  0.00  0.00    -0.036 C 
ATOM      5  C15 Y5H d          -2.715  14.090  14.929  0.00  0.00    -0.040 C 
ATOM      6  C8  Y5H d          -2.813  12.623  15.387  0.00  0.00     0.085 C 
ATOM      7  C5  Y5H d          -2.315  14.226  18.647  0.00  0.00     0.066 A 
ATOM      8  C2  Y5H d          -3.722  13.606  18.857  0.00  0.00     0.071 A 
ATOM      9  C6  Y5H d          -3.478  12.596  19.970  0.00  0.00     0.234 A 
ATOM     10  O13 Y5H d          -4.290  11.873  20.523  0.00  0.00    -0.272 OA
ATOM     11  C11 Y5H d          -1.401  13.531  19.624  0.00  0.00     0.233 A 
ATOM     12  O18 Y5H d          -0.203  13.714  19.838  0.00  0.00    -0.272 OA
ATOM     13  N12 Y5H d          -2.121  12.545  20.327  0.00  0.00    -0.288 N 
ATOM     14  H4  Y5H d          -4.631  13.777  16.847  0.00  0.00     0.096 H 
ATOM     15  H5  Y5H d          -2.439  11.820  17.256  0.00  0.00     0.281 HD
ATOM     16  H6  Y5H d          -0.895  13.611  17.142  0.00  0.00     0.086 H 
ATOM     17  H7  Y5H d          -1.473  15.570  15.954  0.00  0.00     0.036 H 
ATOM     18  H8  Y5H d          -3.181  15.529  16.510  0.00  0.00     0.036 H 
ATOM     19  H9  Y5H d          -1.944  14.194  14.152  0.00  0.00     0.035 H 
ATOM     20  H10 Y5H d          -3.684  14.429  14.533  0.00  0.00     0.035 H 
ATOM     21  H11 Y5H d          -3.747  12.167  15.028  0.00  0.00     0.076 H 
ATOM     22  H12 Y5H d          -1.956  12.043  15.014  0.00  0.00     0.076 H 
ATOM     23  H13 Y5H d          -2.303  15.316  18.795  0.00  0.00     0.059 H 
ATOM     24  H14 Y5H d          -4.468  14.349  19.175  0.00  0.00     0.059 H 
ENDROOT
BRANCH  13  25
ATOM     25  C19 Y5H d          -1.582  11.657  21.370  0.00  0.00     0.007 C 
ATOM     26  H15 Y5H d          -0.557  11.362  21.099  0.00  0.00     0.065 H 
ATOM     27  H16 Y5H d          -2.215  10.760  21.443  0.00  0.00     0.065 H 
BRANCH  25  28
ATOM     28  C21 Y5H d          -1.560  12.373  22.727  0.00  0.00    -0.027 C 
ATOM     29  H17 Y5H d          -1.700  13.457  22.597  0.00  0.00     0.037 H 
ATOM     30  H18 Y5H d          -0.611  12.186  23.250  0.00  0.00     0.037 H 
BRANCH  28  31
ATOM     31  C23 Y5H d          -2.741  11.762  23.506  0.00  0.00     0.086 C 
ATOM     32  H19 Y5H d          -2.338  11.200  24.362  0.00  0.00     0.076 H 
ATOM     33  H20 Y5H d          -3.279  11.074  22.837  0.00  0.00     0.076 H 
BRANCH  31  34
ATOM     34  N29 Y5H d          -3.726  12.788  24.030  0.00  0.00    -0.079 N 
BRANCH  34  35
ATOM     35  C32 Y5H d          -3.416  14.138  23.449  0.00  0.00     0.067 C 
ATOM     36  H21 Y5H d          -2.599  14.045  22.719  0.00  0.00     0.068 H 
ATOM     37  H22 Y5H d          -3.111  14.823  24.255  0.00  0.00     0.068 H 
ATOM     38  H23 Y5H d          -4.311  14.536  22.948  0.00  0.00     0.068 H 
ENDBRANCH  34  35
BRANCH  34  39
ATOM     39  C31 Y5H d          -3.481  12.880  25.518  0.00  0.00     0.067 C 
ATOM     40  H24 Y5H d          -2.828  12.054  25.834  0.00  0.00     0.068 H 
ATOM     41  H25 Y5H d          -4.440  12.814  26.052  0.00  0.00     0.068 H 
ATOM     42  H26 Y5H d          -2.998  13.840  25.751  0.00  0.00     0.068 H 
ENDBRANCH  34  39
BRANCH  34  43
ATOM     43  C30 Y5H d          -5.147  12.437  23.743  0.00  0.00     0.067 C 
ATOM     44  H27 Y5H d          -5.718  12.421  24.683  0.00  0.00     0.068 H 
ATOM     45  H28 Y5H d          -5.191  11.445  23.270  0.00  0.00     0.068 H 
ATOM     46  H29 Y5H d          -5.580  13.186  23.065  0.00  0.00     0.068 H 
ENDBRANCH  34  43
ENDBRANCH  31  34
ENDBRANCH  28  31
ENDBRANCH  25  28
ENDBRANCH  13  25
BRANCH   1  47
ATOM     47  C4  Y5H d          -5.030  11.829  17.619  0.00  0.00     0.091 A 
ATOM     48  N16 Y5H d          -4.585  10.527  17.652  0.00  0.00    -0.224 NA
ATOM     49  C17 Y5H d          -5.677   9.812  17.833  0.00  0.00     0.186 A 
ATOM     50  O10 Y5H d          -6.824  10.536  17.817  0.00  0.00    -0.301 OA
ATOM     51  C9  Y5H d          -6.362  11.838  17.712  0.00  0.00     0.047 A 
ATOM     52  H3  Y5H d          -6.987  12.730  17.707  0.00  0.00     0.126 H 
BRANCH  49  53
ATOM     53  C20 Y5H d          -5.807   8.363  17.813  0.00  0.00     0.059 A 
ATOM     54  C22 Y5H d          -5.128   7.442  18.602  0.00  0.00    -0.060 A 
ATOM     55  C24 Y5H d          -5.587   6.115  18.438  0.00  0.00    -0.054 A 
ATOM     56  H2  Y5H d          -4.321   7.716  19.280  0.00  0.00     0.085 H 
ATOM     57  C25 Y5H d          -6.654   6.069  17.577  0.00  0.00     0.075 A 
ATOM     58  H1  Y5H d          -5.152   5.246  18.928  0.00  0.00     0.086 H 
ATOM     59 CL1  Y5H d          -7.585   4.666  17.103  0.00  0.00    -0.076 Cl
ATOM     60  S1  Y5H d          -7.054   7.609  16.871  0.00  0.00    -0.074 SA
ENDBRANCH  49  53
ENDBRANCH   1  47
TORSDOF 9
ENDMDL
MODEL 6
REMARK VINA RESULT:      -6.0      2.977      4.692
REMARK  9 active torsions:
REMARK  status: ('A' for Active; 'I' for Inactive)
REMARK    1  A    between atoms: C20_6  and  C17_7 
REMARK    2  A    between atoms: C4_11  and  C1_12 
REMARK    3  A    between atoms: N12_24  and  C19_25 
REMARK    4  A    between atoms: C19_25  and  C21_26 
REMARK    5  A    between atoms: C21_26  and  C23_27 
REMARK    6  A    between atoms: C23_27  and  N29_28 
REMARK    7  A    between atoms: N29_28  and  C32_29 
REMARK    8  A    between atoms: N29_28  and  C31_30 
REMARK    9  A    between atoms: N29_28  and  C30_31 
ROOT
ATOM      1  C1  Y5H d          -2.118  13.073  20.719  0.00  0.00     0.160 C 
ATOM      2  N3  Y5H d          -2.557  14.342  21.357  0.00  0.00    -0.055 N 
ATOM      3  C7  Y5H d          -3.372  14.982  20.310  0.00  0.00     0.117 C 
ATOM      4  C14 Y5H d          -2.357  15.631  19.353  0.00  0.00    -0.036 C 
ATOM      5  C15 Y5H d          -1.173  15.976  20.272  0.00  0.00    -0.040 C 
ATOM      6  C8  Y5H d          -1.440  15.284  21.622  0.00  0.00     0.085 C 
ATOM      7  C5  Y5H d          -4.213  13.878  19.678  0.00  0.00     0.066 A 
ATOM      8  C2  Y5H d          -3.429  12.582  20.016  0.00  0.00     0.071 A 
ATOM      9  C6  Y5H d          -4.415  11.812  20.883  0.00  0.00     0.234 A 
ATOM     10  O13 Y5H d          -4.282  10.703  21.373  0.00  0.00    -0.272 OA
ATOM     11  C11 Y5H d          -5.546  13.752  20.371  0.00  0.00     0.233 A 
ATOM     12  O18 Y5H d          -6.506  14.524  20.364  0.00  0.00    -0.272 OA
ATOM     13  N12 Y5H d          -5.585  12.554  21.111  0.00  0.00    -0.288 N 
ATOM     14  H4  Y5H d          -1.325  13.268  19.982  0.00  0.00     0.096 H 
ATOM     15  H5  Y5H d          -3.078  14.162  22.202  0.00  0.00     0.281 HD
ATOM     16  H6  Y5H d          -4.033  15.753  20.732  0.00  0.00     0.086 H 
ATOM     17  H7  Y5H d          -2.775  16.538  18.892  0.00  0.00     0.036 H 
ATOM     18  H8  Y5H d          -2.051  14.927  18.565  0.00  0.00     0.036 H 
ATOM     19  H9  Y5H d          -1.108  17.066  20.412  0.00  0.00     0.035 H 
ATOM     20  H10 Y5H d          -0.234  15.606  19.835  0.00  0.00     0.035 H 
ATOM     21  H11 Y5H d          -0.547  14.739  21.959  0.00  0.00     0.076 H 
ATOM     22  H12 Y5H d          -1.730  16.021  22.384  0.00  0.00     0.076 H 
ATOM     23  H13 Y5H d          -4.339  14.031  18.596  0.00  0.00     0.059 H 
ATOM     24  H14 Y5H d          -3.174  11.997  19.120  0.00  0.00     0.059 H 
ENDROOT
BRANCH  13  25
ATOM     25  C19 Y5H d          -6.716  12.072  21.920  0.00  0.00     0.007 C 
ATOM     26  H15 Y5H d          -6.462  11.090  22.346  0.00  0.00     0.065 H 
ATOM     27  H16 Y5H d          -7.604  11.975  21.279  0.00  0.00     0.065 H 
BRANCH  25  28
ATOM     28  C21 Y5H d          -7.019  13.054  23.059  0.00  0.00    -0.027 C 
ATOM     29  H17 Y5H d          -7.952  12.779  23.572  0.00  0.00     0.037 H 
ATOM     30  H18 Y5H d          -7.101  14.081  22.675  0.00  0.00     0.037 H 
BRANCH  28  31
ATOM     31  C23 Y5H d          -5.816  12.925  24.013  0.00  0.00     0.086 C 
ATOM     32  H19 Y5H d          -4.943  12.600  23.428  0.00  0.00     0.076 H 
ATOM     33  H20 Y5H d          -6.054  12.162  24.770  0.00  0.00     0.076 H 
BRANCH  31  34
ATOM     34  N29 Y5H d          -5.459  14.213  24.729  0.00  0.00    -0.079 N 
BRANCH  34  35
ATOM     35  C32 Y5H d          -5.021  15.247  23.731  0.00  0.00     0.067 C 
ATOM     36  H21 Y5H d          -4.116  14.898  23.214  0.00  0.00     0.068 H 
ATOM     37  H22 Y5H d          -4.804  16.191  24.253  0.00  0.00     0.068 H 
ATOM     38  H23 Y5H d          -5.823  15.410  22.996  0.00  0.00     0.068 H 
ENDBRANCH  34  35
BRANCH  34  39
ATOM     39  C31 Y5H d          -4.259  13.894  25.589  0.00  0.00     0.067 C 
ATOM     40  H24 Y5H d          -4.223  12.811  25.781  0.00  0.00     0.068 H 
ATOM     41  H25 Y5H d          -4.339  14.433  26.545  0.00  0.00     0.068 H 
ATOM     42  H26 Y5H d          -3.341  14.205  25.070  0.00  0.00     0.068 H 
ENDBRANCH  34  39
BRANCH  34  43
ATOM     43  C30 Y5H d          -6.577  14.756  25.551  0.00  0.00     0.067 C 
ATOM     44  H27 Y5H d          -7.473  14.133  25.410  0.00  0.00     0.068 H 
ATOM     45  H28 Y5H d          -6.795  15.787  25.239  0.00  0.00     0.068 H 
ATOM     46  H29 Y5H d          -6.289  14.747  26.613  0.00  0.00     0.068 H 
ENDBRANCH  34  43
ENDBRANCH  31  34
ENDBRANCH  28  31
ENDBRANCH  25  28
ENDBRANCH  13  25
BRANCH   1  47
ATOM     47  C4  Y5H d          -1.623  12.046  21.705  0.00  0.00     0.091 A 
ATOM     48  N16 Y5H d          -2.182  11.847  22.947  0.00  0.00    -0.224 NA
ATOM     49  C17 Y5H d          -1.486  10.856  23.464  0.00  0.00     0.186 A 
ATOM     50  O10 Y5H d          -0.438  10.453  22.701  0.00  0.00    -0.301 OA
ATOM     51  C9  Y5H d          -0.582  11.222  21.557  0.00  0.00     0.047 A 
ATOM     52  H3  Y5H d           0.054  11.163  20.675  0.00  0.00     0.126 H 
BRANCH  49  53
ATOM     53  C20 Y5H d          -1.564  10.322  24.816  0.00  0.00     0.059 A 
ATOM     54  C22 Y5H d          -2.547  10.571  25.767  0.00  0.00    -0.060 A 
ATOM     55  C24 Y5H d          -2.410   9.785  26.935  0.00  0.00    -0.054 A 
ATOM     56  H2  Y5H d          -3.344  11.299  25.627  0.00  0.00     0.085 H 
ATOM     57  C25 Y5H d          -1.364   8.907  26.813  0.00  0.00     0.075 A 
ATOM     58  H1  Y5H d          -3.048   9.867  27.813  0.00  0.00     0.086 H 
ATOM     59 CL1  Y5H d          -0.838   7.704  27.971  0.00  0.00    -0.076 Cl
ATOM     60  S1  Y5H d          -0.464   9.084  25.334  0.00  0.00    -0.074 SA
ENDBRANCH  49  53
ENDBRANCH   1  47
TORSDOF 9
ENDMDL
MODEL 7
REMARK VINA RESULT:      -5.9      3.721      7.619
REMARK  9 active torsions:
REMARK  status: ('A' for Active; 'I' for Inactive)
REMARK    1  A    between atoms: C20_6  and  C17_7 
REMARK    2  A    between atoms: C4_11  and  C1_12 
REMARK    3  A    between atoms: N12_24  and  C19_25 
REMARK    4  A    between atoms: C19_25  and  C21_26 
REMARK    5  A    between atoms: C21_26  and  C23_27 
REMARK    6  A    between atoms: C23_27  and  N29_28 
REMARK    7  A    between atoms: N29_28  and  C32_29 
REMARK    8  A    between atoms: N29_28  and  C31_30 
REMARK    9  A    between atoms: N29_28  and  C30_31 
ROOT
ATOM      1  C1  Y5H d          -2.982  13.987  18.328  0.00  0.00     0.160 C 
ATOM      2  N3  Y5H d          -1.626  13.378  18.370  0.00  0.00    -0.055 N 
ATOM      3  C7  Y5H d          -0.835  14.366  19.123  0.00  0.00     0.117 C 
ATOM      4  C14 Y5H d          -0.483  15.462  18.102  0.00  0.00    -0.036 C 
ATOM      5  C15 Y5H d          -0.414  14.696  16.770  0.00  0.00    -0.040 C 
ATOM      6  C8  Y5H d          -0.981  13.289  17.035  0.00  0.00     0.085 C 
ATOM      7  C5  Y5H d          -1.715  14.841  20.275  0.00  0.00     0.066 A 
ATOM      8  C2  Y5H d          -3.154  14.517  19.792  0.00  0.00     0.071 A 
ATOM      9  C6  Y5H d          -3.633  13.507  20.826  0.00  0.00     0.234 A 
ATOM     10  O13 Y5H d          -4.726  12.972  20.907  0.00  0.00    -0.272 OA
ATOM     11  C11 Y5H d          -1.490  14.004  21.507  0.00  0.00     0.233 A 
ATOM     12  O18 Y5H d          -0.506  13.951  22.246  0.00  0.00    -0.272 OA
ATOM     13  N12 Y5H d          -2.619  13.197  21.747  0.00  0.00    -0.288 N 
ATOM     14  H4  Y5H d          -3.009  14.815  17.604  0.00  0.00     0.096 H 
ATOM     15  H5  Y5H d          -1.648  12.474  18.816  0.00  0.00     0.281 HD
ATOM     16  H6  Y5H d           0.087  13.920  19.524  0.00  0.00     0.086 H 
ATOM     17  H7  Y5H d           0.485  15.926  18.340  0.00  0.00     0.036 H 
ATOM     18  H8  Y5H d          -1.264  16.237  18.070  0.00  0.00     0.036 H 
ATOM     19  H9  Y5H d           0.629  14.626  16.428  0.00  0.00     0.035 H 
ATOM     20  H10 Y5H d          -1.017  15.210  16.007  0.00  0.00     0.035 H 
ATOM     21  H11 Y5H d          -1.720  13.018  16.267  0.00  0.00     0.076 H 
ATOM     22  H12 Y5H d          -0.174  12.542  17.046  0.00  0.00     0.076 H 
ATOM     23  H13 Y5H d          -1.568  15.910  20.486  0.00  0.00     0.059 H 
ATOM     24  H14 Y5H d          -3.810  15.401  19.793  0.00  0.00     0.059 H 
ENDROOT
BRANCH  13  25
ATOM     25  C19 Y5H d          -2.786  12.246  22.857  0.00  0.00     0.007 C 
ATOM     26  H15 Y5H d          -1.842  11.702  23.013  0.00  0.00     0.065 H 
ATOM     27  H16 Y5H d          -3.583  11.531  22.604  0.00  0.00     0.065 H 
BRANCH  25  28
ATOM     28  C21 Y5H d          -3.161  12.987  24.148  0.00  0.00    -0.027 C 
ATOM     29  H17 Y5H d          -2.969  14.065  24.047  0.00  0.00     0.037 H 
ATOM     30  H18 Y5H d          -2.593  12.592  25.002  0.00  0.00     0.037 H 
BRANCH  28  31
ATOM     31  C23 Y5H d          -4.668  12.718  24.324  0.00  0.00     0.086 C 
ATOM     32  H19 Y5H d          -4.801  12.035  25.177  0.00  0.00     0.076 H 
ATOM     33  H20 Y5H d          -5.044  12.238  23.408  0.00  0.00     0.076 H 
BRANCH  31  34
ATOM     34  N29 Y5H d          -5.488  13.967  24.580  0.00  0.00    -0.079 N 
BRANCH  34  35
ATOM     35  C32 Y5H d          -4.904  15.126  23.824  0.00  0.00     0.067 C 
ATOM     36  H21 Y5H d          -4.652  14.808  22.802  0.00  0.00     0.068 H 
ATOM     37  H22 Y5H d          -3.993  15.475  24.334  0.00  0.00     0.068 H 
ATOM     38  H23 Y5H d          -5.638  15.944  23.783  0.00  0.00     0.068 H 
ENDBRANCH  34  35
BRANCH  34  39
ATOM     39  C31 Y5H d          -5.331  14.275  26.051  0.00  0.00     0.067 C 
ATOM     40  H24 Y5H d          -4.293  14.578  26.253  0.00  0.00     0.068 H 
ATOM     41  H25 Y5H d          -5.573  13.379  26.642  0.00  0.00     0.068 H 
ATOM     42  H26 Y5H d          -6.012  15.092  26.330  0.00  0.00     0.068 H 
ENDBRANCH  34  39
BRANCH  34  43
ATOM     43  C30 Y5H d          -6.926  13.810  24.218  0.00  0.00     0.067 C 
ATOM     44  H27 Y5H d          -7.424  14.790  24.260  0.00  0.00     0.068 H 
ATOM     45  H28 Y5H d          -7.409  13.122  24.927  0.00  0.00     0.068 H 
ATOM     46  H29 Y5H d          -7.005  13.402  23.200  0.00  0.00     0.068 H 
ENDBRANCH  34  43
ENDBRANCH  31  34
ENDBRANCH  28  31
ENDBRANCH  25  28
ENDBRANCH  13  25
BRANCH   1  47
ATOM     47  C4  Y5H d          -4.071  13.004  17.983  0.00  0.00     0.091 A 
ATOM     48  N16 Y5H d          -3.916  11.638  18.050  0.00  0.00    -0.224 NA
ATOM     49  C17 Y5H d          -5.093  11.157  17.704  0.00  0.00     0.186 A 
ATOM     50  O10 Y5H d          -5.985  12.101  17.310  0.00  0.00    -0.301 OA
ATOM     51  C9  Y5H d          -5.298  13.283  17.538  0.00  0.00     0.047 A 
ATOM     52  H3  Y5H d          -5.698  14.284  17.380  0.00  0.00     0.126 H 
BRANCH  49  53
ATOM     53  C20 Y5H d          -5.457   9.767  17.478  0.00  0.00     0.059 A 
ATOM     54  C22 Y5H d          -5.778   9.164  16.268  0.00  0.00    -0.060 A 
ATOM     55  C24 Y5H d          -5.945   7.763  16.365  0.00  0.00    -0.054 A 
ATOM     56  H2  Y5H d          -5.890   9.716  15.336  0.00  0.00     0.085 H 
ATOM     57  C25 Y5H d          -5.678   7.326  17.636  0.00  0.00     0.075 A 
ATOM     58  H1  Y5H d          -6.246   7.118  15.541  0.00  0.00     0.086 H 
ATOM     59 CL1  Y5H d          -5.703   5.679  18.228  0.00  0.00    -0.076 Cl
ATOM     60  S1  Y5H d          -5.323   8.606  18.761  0.00  0.00    -0.074 SA
ENDBRANCH  49  53
ENDBRANCH   1  47
TORSDOF 9
ENDMDL
MODEL 8
REMARK VINA RESULT:      -5.8      3.002      4.779
REMARK  9 active torsions:
REMARK  status: ('A' for Active; 'I' for Inactive)
REMARK    1  A    between atoms: C20_6  and  C17_7 
REMARK    2  A    between atoms: C4_11  and  C1_12 
REMARK    3  A    between atoms: N12_24  and  C19_25 
REMARK    4  A    between atoms: C19_25  and  C21_26 
REMARK    5  A    between atoms: C21_26  and  C23_27 
REMARK    6  A    between atoms: C23_27  and  N29_28 
REMARK    7  A    between atoms: N29_28  and  C32_29 
REMARK    8  A    between atoms: N29_28  and  C31_30 
REMARK    9  A    between atoms: N29_28  and  C30_31 
ROOT
ATOM      1  C1  Y5H d          -2.282  12.556  20.773  0.00  0.00     0.160 C 
ATOM      2  N3  Y5H d          -2.492  13.953  20.310  0.00  0.00    -0.055 N 
ATOM      3  C7  Y5H d          -2.832  13.789  18.886  0.00  0.00     0.117 C 
ATOM      4  C14 Y5H d          -1.484  13.588  18.171  0.00  0.00    -0.036 C 
ATOM      5  C15 Y5H d          -0.500  14.387  19.042  0.00  0.00    -0.040 C 
ATOM      6  C8  Y5H d          -1.253  14.772  20.329  0.00  0.00     0.085 C 
ATOM      7  C5  Y5H d          -3.773  12.592  18.799  0.00  0.00     0.066 A 
ATOM      8  C2  Y5H d          -3.475  11.798  20.099  0.00  0.00     0.071 A 
ATOM      9  C6  Y5H d          -4.809  11.847  20.832  0.00  0.00     0.234 A 
ATOM     10  O13 Y5H d          -5.103  11.331  21.897  0.00  0.00    -0.272 OA
ATOM     11  C11 Y5H d          -5.212  13.028  18.896  0.00  0.00     0.233 A 
ATOM     12  O18 Y5H d          -5.894  13.656  18.086  0.00  0.00    -0.272 OA
ATOM     13  N12 Y5H d          -5.750  12.620  20.132  0.00  0.00    -0.288 N 
ATOM     14  H4  Y5H d          -1.317  12.172  20.411  0.00  0.00     0.096 H 
ATOM     15  H5  Y5H d          -3.225  14.404  20.836  0.00  0.00     0.281 HD
ATOM     16  H6  Y5H d          -3.336  14.682  18.488  0.00  0.00     0.086 H 
ATOM     17  H7  Y5H d          -1.518  13.988  17.147  0.00  0.00     0.036 H 
ATOM     18  H8  Y5H d          -1.209  12.524  18.141  0.00  0.00     0.036 H 
ATOM     19  H9  Y5H d          -0.172  15.292  18.510  0.00  0.00     0.035 H 
ATOM     20  H10 Y5H d           0.377  13.769  19.286  0.00  0.00     0.035 H 
ATOM     21  H11 Y5H d          -0.648  14.535  21.216  0.00  0.00     0.076 H 
ATOM     22  H12 Y5H d          -1.499  15.844  20.328  0.00  0.00     0.076 H 
ATOM     23  H13 Y5H d          -3.596  12.000  17.889  0.00  0.00     0.059 H 
ATOM     24  H14 Y5H d          -3.189  10.754  19.901  0.00  0.00     0.059 H 
ENDROOT
BRANCH  13  25
ATOM     25  C19 Y5H d          -7.126  12.854  20.599  0.00  0.00     0.007 C 
ATOM     26  H15 Y5H d          -7.416  12.047  21.288  0.00  0.00     0.065 H 
ATOM     27  H16 Y5H d          -7.805  12.860  19.734  0.00  0.00     0.065 H 
BRANCH  25  28
ATOM     28  C21 Y5H d          -7.223  14.201  21.328  0.00  0.00    -0.027 C 
ATOM     29  H17 Y5H d          -7.982  14.844  20.858  0.00  0.00     0.037 H 
ATOM     30  H18 Y5H d          -6.252  14.717  21.323  0.00  0.00     0.037 H 
BRANCH  28  31
ATOM     31  C23 Y5H d          -7.638  13.834  22.766  0.00  0.00     0.086 C 
ATOM     32  H19 Y5H d          -7.470  12.756  22.911  0.00  0.00     0.076 H 
ATOM     33  H20 Y5H d          -8.708  14.058  22.886  0.00  0.00     0.076 H 
BRANCH  31  34
ATOM     34  N29 Y5H d          -6.869  14.585  23.836  0.00  0.00    -0.079 N 
BRANCH  34  35
ATOM     35  C32 Y5H d          -5.867  15.503  23.196  0.00  0.00     0.067 C 
ATOM     36  H21 Y5H d          -6.185  16.547  23.334  0.00  0.00     0.068 H 
ATOM     37  H22 Y5H d          -5.798  15.280  22.121  0.00  0.00     0.068 H 
ATOM     38  H23 Y5H d          -4.883  15.355  23.665  0.00  0.00     0.068 H 
ENDBRANCH  34  35
BRANCH  34  39
ATOM     39  C31 Y5H d          -6.087  13.540  24.599  0.00  0.00     0.067 C 
ATOM     40  H24 Y5H d          -6.200  12.565  24.104  0.00  0.00     0.068 H 
ATOM     41  H25 Y5H d          -6.469  13.476  25.628  0.00  0.00     0.068 H 
ATOM     42  H26 Y5H d          -5.024  13.821  24.620  0.00  0.00     0.068 H 
ENDBRANCH  34  39
BRANCH  34  43
ATOM     43  C30 Y5H d          -7.749  15.367  24.751  0.00  0.00     0.067 C 
ATOM     44  H27 Y5H d          -8.803  15.163  24.509  0.00  0.00     0.068 H 
ATOM     45  H28 Y5H d          -7.546  16.440  24.626  0.00  0.00     0.068 H 
ATOM     46  H29 Y5H d          -7.549  15.074  25.792  0.00  0.00     0.068 H 
ENDBRANCH  34  43
ENDBRANCH  31  34
ENDBRANCH  28  31
ENDBRANCH  25  28
ENDBRANCH  13  25
BRANCH   1  47
ATOM     47  C4  Y5H d          -2.331  12.408  22.272  0.00  0.00     0.091 A 
ATOM     48  N16 Y5H d          -2.009  11.246  22.936  0.00  0.00    -0.224 NA
ATOM     49  C17 Y5H d          -2.151  11.547  24.211  0.00  0.00     0.186 A 
ATOM     50  O10 Y5H d          -2.646  12.790  24.437  0.00  0.00    -0.301 OA
ATOM     51  C9  Y5H d          -2.715  13.327  23.161  0.00  0.00     0.047 A 
ATOM     52  H3  Y5H d          -3.033  14.341  22.921  0.00  0.00     0.126 H 
BRANCH  49  53
ATOM     53  C20 Y5H d          -2.066  10.650  25.353  0.00  0.00     0.059 A 
ATOM     54  C22 Y5H d          -2.987  10.506  26.384  0.00  0.00    -0.060 A 
ATOM     55  C24 Y5H d          -2.679   9.446  27.268  0.00  0.00    -0.054 A 
ATOM     56  H2  Y5H d          -3.860  11.146  26.500  0.00  0.00     0.085 H 
ATOM     57  C25 Y5H d          -1.567   8.765  26.846  0.00  0.00     0.075 A 
ATOM     58  H1  Y5H d          -3.249   9.203  28.163  0.00  0.00     0.086 H 
ATOM     59 CL1  Y5H d          -0.833   7.356  27.581  0.00  0.00    -0.076 Cl
ATOM     60  S1  Y5H d          -0.812   9.454  25.437  0.00  0.00    -0.074 SA
ENDBRANCH  49  53
ENDBRANCH   1  47
TORSDOF 9
ENDMDL
MODEL 9
REMARK VINA RESULT:      -5.8      3.672      7.183
REMARK  9 active torsions:
REMARK  status: ('A' for Active; 'I' for Inactive)
REMARK    1  A    between atoms: C20_6  and  C17_7 
REMARK    2  A    between atoms: C4_11  and  C1_12 
REMARK    3  A    between atoms: N12_24  and  C19_25 
REMARK    4  A    between atoms: C19_25  and  C21_26 
REMARK    5  A    between atoms: C21_26  and  C23_27 
REMARK    6  A    between atoms: C23_27  and  N29_28 
REMARK    7  A    between atoms: N29_28  and  C32_29 
REMARK    8  A    between atoms: N29_28  and  C31_30 
REMARK    9  A    between atoms: N29_28  and  C30_31 
ROOT
ATOM      1  C1  Y5H d          -2.747  10.504  22.580  0.00  0.00     0.160 C 
ATOM      2  N3  Y5H d          -2.760  11.526  23.659  0.00  0.00    -0.055 N 
ATOM      3  C7  Y5H d          -1.334  11.682  23.993  0.00  0.00     0.117 C 
ATOM      4  C14 Y5H d          -1.004  10.492  24.910  0.00  0.00    -0.036 C 
ATOM      5  C15 Y5H d          -2.337  10.214  25.625  0.00  0.00    -0.040 C 
ATOM      6  C8  Y5H d          -3.411  11.055  24.908  0.00  0.00     0.085 C 
ATOM      7  C5  Y5H d          -0.575  11.685  22.671  0.00  0.00     0.066 A 
ATOM      8  C2  Y5H d          -1.545  10.972  21.691  0.00  0.00     0.071 A 
ATOM      9  C6  Y5H d          -1.843  12.057  20.667  0.00  0.00     0.234 A 
ATOM     10  O13 Y5H d          -2.533  11.979  19.665  0.00  0.00    -0.272 OA
ATOM     11  C11 Y5H d          -0.409  13.088  22.146  0.00  0.00     0.233 A 
ATOM     12  O18 Y5H d           0.288  14.006  22.579  0.00  0.00    -0.272 OA
ATOM     13  N12 Y5H d          -1.222  13.269  21.010  0.00  0.00    -0.288 N 
ATOM     14  H4  Y5H d          -2.561   9.504  23.000  0.00  0.00     0.096 H 
ATOM     15  H5  Y5H d          -3.182  12.385  23.340  0.00  0.00     0.281 HD
ATOM     16  H6  Y5H d          -1.148  12.626  24.526  0.00  0.00     0.086 H 
ATOM     17  H7  Y5H d          -0.218  10.757  25.633  0.00  0.00     0.036 H 
ATOM     18  H8  Y5H d          -0.684   9.618  24.323  0.00  0.00     0.036 H 
ATOM     19  H9  Y5H d          -2.269  10.511  26.682  0.00  0.00     0.035 H 
ATOM     20  H10 Y5H d          -2.587   9.145  25.559  0.00  0.00     0.035 H 
ATOM     21  H11 Y5H d          -4.292  10.440  24.676  0.00  0.00     0.076 H 
ATOM     22  H12 Y5H d          -3.714  11.909  25.531  0.00  0.00     0.076 H 
ATOM     23  H13 Y5H d           0.395  11.174  22.757  0.00  0.00     0.059 H 
ATOM     24  H14 Y5H d          -1.085  10.101  21.200  0.00  0.00     0.059 H 
ENDROOT
BRANCH  13  25
ATOM     25  C19 Y5H d          -1.334  14.501  20.212  0.00  0.00     0.007 C 
ATOM     26  H15 Y5H d          -1.406  14.236  19.146  0.00  0.00     0.065 H 
ATOM     27  H16 Y5H d          -0.441  15.121  20.376  0.00  0.00     0.065 H 
BRANCH  25  28
ATOM     28  C21 Y5H d          -2.583  15.293  20.621  0.00  0.00    -0.027 C 
ATOM     29  H17 Y5H d          -2.309  16.303  20.961  0.00  0.00     0.037 H 
ATOM     30  H18 Y5H d          -3.129  14.773  21.422  0.00  0.00     0.037 H 
BRANCH  28  31
ATOM     31  C23 Y5H d          -3.435  15.364  19.339  0.00  0.00     0.086 C 
ATOM     32  H19 Y5H d          -2.981  14.705  18.585  0.00  0.00     0.076 H 
ATOM     33  H20 Y5H d          -3.425  16.401  18.973  0.00  0.00     0.076 H 
BRANCH  31  34
ATOM     34  N29 Y5H d          -4.877  14.941  19.537  0.00  0.00    -0.079 N 
BRANCH  34  35
ATOM     35  C32 Y5H d          -5.121  13.622  18.860  0.00  0.00     0.067 C 
ATOM     36  H21 Y5H d          -4.213  13.313  18.321  0.00  0.00     0.068 H 
ATOM     37  H22 Y5H d          -5.953  13.725  18.147  0.00  0.00     0.068 H 
ATOM     38  H23 Y5H d          -5.375  12.864  19.615  0.00  0.00     0.068 H 
ENDBRANCH  34  35
BRANCH  34  39
ATOM     39  C31 Y5H d          -5.717  15.970  18.817  0.00  0.00     0.067 C 
ATOM     40  H24 Y5H d          -5.595  16.948  19.304  0.00  0.00     0.068 H 
ATOM     41  H25 Y5H d          -6.775  15.671  18.854  0.00  0.00     0.068 H 
ATOM     42  H26 Y5H d          -5.393  16.039  17.768  0.00  0.00     0.068 H 
ENDBRANCH  34  39
BRANCH  34  43
ATOM     43  C30 Y5H d          -5.268  14.843  20.973  0.00  0.00     0.067 C 
ATOM     44  H27 Y5H d          -4.506  14.270  21.522  0.00  0.00     0.068 H 
ATOM     45  H28 Y5H d          -6.239  14.334  21.055  0.00  0.00     0.068 H 
ATOM     46  H29 Y5H d          -5.345  15.853  21.401  0.00  0.00     0.068 H 
ENDBRANCH  34  43
ENDBRANCH  31  34
ENDBRANCH  28  31
ENDBRANCH  25  28
ENDBRANCH  13  25
BRANCH   1  47
ATOM     47  C4  Y5H d          -4.022  10.462  21.777  0.00  0.00     0.091 A 
ATOM     48  N16 Y5H d          -4.275   9.535  20.792  0.00  0.00    -0.224 NA
ATOM     49  C17 Y5H d          -5.490   9.826  20.373  0.00  0.00     0.186 A 
ATOM     50  O10 Y5H d          -6.019  10.943  20.932  0.00  0.00    -0.301 OA
ATOM     51  C9  Y5H d          -5.055  11.305  21.860  0.00  0.00     0.047 A 
ATOM     52  H3  Y5H d          -5.128  12.145  22.549  0.00  0.00     0.126 H 
BRANCH  49  53
ATOM     53  C20 Y5H d          -6.208   9.245  19.248  0.00  0.00     0.059 A 
ATOM     54  C22 Y5H d          -7.511   8.762  19.236  0.00  0.00    -0.060 A 
ATOM     55  C24 Y5H d          -7.962   8.394  17.947  0.00  0.00    -0.054 A 
ATOM     56  H2  Y5H d          -8.124   8.675  20.132  0.00  0.00     0.085 H 
ATOM     57  C25 Y5H d          -7.012   8.674  16.999  0.00  0.00     0.075 A 
ATOM     58  H1  Y5H d          -8.933   7.949  17.737  0.00  0.00     0.086 H 
ATOM     59 CL1  Y5H d          -7.130   8.442  15.268  0.00  0.00    -0.076 Cl
ATOM     60  S1  Y5H d          -5.521   9.286  17.655  0.00  0.00    -0.074 SA
ENDBRANCH  49  53
ENDBRANCH   1  47
TORSDOF 9
ENDMDL
MODEL 10
REMARK VINA RESULT:      -5.8      3.894      7.140
REMARK  9 active torsions:
REMARK  status: ('A' for Active; 'I' for Inactive)
REMARK    1  A    between atoms: C20_6  and  C17_7 
REMARK    2  A    between atoms: C4_11  and  C1_12 
REMARK    3  A    between atoms: N12_24  and  C19_25 
REMARK    4  A    between atoms: C19_25  and  C21_26 
REMARK    5  A    between atoms: C21_26  and  C23_27 
REMARK    6  A    between atoms: C23_27  and  N29_28 
REMARK    7  A    between atoms: N29_28  and  C32_29 
REMARK    8  A    between atoms: N29_28  and  C31_30 
REMARK    9  A    between atoms: N29_28  and  C30_31 
ROOT
ATOM      1  C1  Y5H d          -3.571  13.846  17.826  0.00  0.00     0.160 C 
ATOM      2  N3  Y5H d          -2.219  13.515  18.348  0.00  0.00    -0.055 N 
ATOM      3  C7  Y5H d          -1.747  14.797  18.899  0.00  0.00     0.117 C 
ATOM      4  C14 Y5H d          -1.253  15.600  17.683  0.00  0.00    -0.036 C 
ATOM      5  C15 Y5H d          -0.770  14.510  16.711  0.00  0.00    -0.040 C 
ATOM      6  C8  Y5H d          -1.247  13.161  17.282  0.00  0.00     0.085 C 
ATOM      7  C5  Y5H d          -2.935  15.423  19.623  0.00  0.00     0.066 A 
ATOM      8  C2  Y5H d          -4.163  14.733  18.972  0.00  0.00     0.071 A 
ATOM      9  C6  Y5H d          -4.791  13.993  20.145  0.00  0.00     0.234 A 
ATOM     10  O13 Y5H d          -5.811  13.325  20.156  0.00  0.00    -0.272 OA
ATOM     11  C11 Y5H d          -2.952  15.023  21.076  0.00  0.00     0.233 A 
ATOM     12  O18 Y5H d          -2.190  15.351  21.986  0.00  0.00    -0.272 OA
ATOM     13  N12 Y5H d          -4.022  14.137  21.312  0.00  0.00    -0.288 N 
ATOM     14  H4  Y5H d          -3.492  14.416  16.888  0.00  0.00     0.096 H 
ATOM     15  H5  Y5H d          -2.266  12.786  19.043  0.00  0.00     0.281 HD
ATOM     16  H6  Y5H d          -0.920  14.649  19.609  0.00  0.00     0.086 H 
ATOM     17  H7  Y5H d          -0.427  16.271  17.963  0.00  0.00     0.036 H 
ATOM     18  H8  Y5H d          -2.070  16.188  17.240  0.00  0.00     0.036 H 
ATOM     19  H9  Y5H d           0.327  14.524  16.641  0.00  0.00     0.035 H 
ATOM     20  H10 Y5H d          -1.204  14.674  15.713  0.00  0.00     0.035 H 
ATOM     21  H11 Y5H d          -1.734  12.561  16.500  0.00  0.00     0.076 H 
ATOM     22  H12 Y5H d          -0.401  12.598  17.702  0.00  0.00     0.076 H 
ATOM     23  H13 Y5H d          -2.950  16.516  19.510  0.00  0.00     0.059 H 
ATOM     24  H14 Y5H d          -4.879  15.455  18.552  0.00  0.00     0.059 H 
ENDROOT
BRANCH  13  25
ATOM     25  C19 Y5H d          -4.374  13.527  22.604  0.00  0.00     0.007 C 
ATOM     26  H15 Y5H d          -5.465  13.570  22.739  0.00  0.00     0.065 H 
ATOM     27  H16 Y5H d          -3.883  14.087  23.414  0.00  0.00     0.065 H 
BRANCH  25  28
ATOM     28  C21 Y5H d          -3.916  12.063  22.650  0.00  0.00    -0.027 C 
ATOM     29  H17 Y5H d          -3.972  11.607  21.650  0.00  0.00     0.037 H 
ATOM     30  H18 Y5H d          -4.533  11.484  23.352  0.00  0.00     0.037 H 
BRANCH  28  31
ATOM     31  C23 Y5H d          -2.455  12.130  23.136  0.00  0.00     0.086 C 
ATOM     32  H19 Y5H d          -2.424  11.805  24.186  0.00  0.00     0.076 H 
ATOM     33  H20 Y5H d          -2.113  13.173  23.064  0.00  0.00     0.076 H 
BRANCH  31  34
ATOM     34  N29 Y5H d          -1.504  11.259  22.338  0.00  0.00    -0.079 N 
BRANCH  34  35
ATOM     35  C32 Y5H d          -0.461  12.114  21.675  0.00  0.00     0.067 C 
ATOM     36  H21 Y5H d           0.540  11.773  21.977  0.00  0.00     0.068 H 
ATOM     37  H22 Y5H d          -0.598  13.163  21.981  0.00  0.00     0.068 H 
ATOM     38  H23 Y5H d          -0.562  12.034  20.583  0.00  0.00     0.068 H 
ENDBRANCH  34  35
BRANCH  34  39
ATOM     39  C31 Y5H d          -2.330  10.637  21.237  0.00  0.00     0.067 C 
ATOM     40  H24 Y5H d          -3.212  11.265  21.042  0.00  0.00     0.068 H 
ATOM     41  H25 Y5H d          -2.656   9.633  21.545  0.00  0.00     0.068 H 
ATOM     42  H26 Y5H d          -1.725  10.561  20.322  0.00  0.00     0.068 H 
ENDBRANCH  34  39
BRANCH  34  43
ATOM     43  C30 Y5H d          -0.837  10.211  23.163  0.00  0.00     0.067 C 
ATOM     44  H27 Y5H d          -0.655   9.319  22.545  0.00  0.00     0.068 H 
ATOM     45  H28 Y5H d          -1.485   9.944  24.010  0.00  0.00     0.068 H 
ATOM     46  H29 Y5H d           0.121  10.596  23.541  0.00  0.00     0.068 H 
ENDBRANCH  34  43
ENDBRANCH  31  34
ENDBRANCH  28  31
ENDBRANCH  25  28
ENDBRANCH  13  25
BRANCH   1  47
ATOM     47  C4  Y5H d          -4.434  12.634  17.586  0.00  0.00     0.091 A 
ATOM     48  N16 Y5H d          -4.210  11.409  18.172  0.00  0.00    -0.224 NA
ATOM     49  C17 Y5H d          -5.192  10.650  17.730  0.00  0.00     0.186 A 
ATOM     50  O10 Y5H d          -5.990  11.252  16.812  0.00  0.00    -0.301 OA
ATOM     51  C9  Y5H d          -5.489  12.543  16.772  0.00  0.00     0.047 A 
ATOM     52  H3  Y5H d          -5.893  13.357  16.172  0.00  0.00     0.126 H 
BRANCH  49  53
ATOM     53  C20 Y5H d          -5.373   9.220  17.928  0.00  0.00     0.059 A 
ATOM     54  C22 Y5H d          -4.961   8.459  19.017  0.00  0.00    -0.060 A 
ATOM     55  C24 Y5H d          -5.416   7.121  18.971  0.00  0.00    -0.054 A 
ATOM     56  H2  Y5H d          -4.349   8.855  19.826  0.00  0.00     0.085 H 
ATOM     57  C25 Y5H d          -6.222   6.916  17.881  0.00  0.00     0.075 A 
ATOM     58  H1  Y5H d          -5.160   6.357  19.703  0.00  0.00     0.086 H 
ATOM     59 CL1  Y5H d          -7.054   5.444  17.429  0.00  0.00    -0.076 Cl
ATOM     60  S1  Y5H d          -6.361   8.302  16.837  0.00  0.00    -0.074 SA
ENDBRANCH  49  53
ENDBRANCH   1  47
TORSDOF 9
ENDMDL
