MODEL 1
REMARK VINA RESULT:      -7.0      0.000      0.000
REMARK  2 active torsions:
REMARK  status: ('A' for Active; 'I' for Inactive)
REMARK    1  A    between atoms: N_9  and  C11_13 
REMARK    2  A    between atoms: C9_11  and  S_10 
ROOT
ATOM      1  C1  MOL d         121.492 134.575  65.086  0.00  0.00     0.045 A 
ATOM      2  C2  MOL d         120.715 135.681  65.568  0.00  0.00    -0.056 A 
ATOM      3  C3  MOL d         119.321 135.726  65.394  0.00  0.00    -0.080 A 
ATOM      4  C4  MOL d         118.651 134.680  64.747  0.00  0.00    -0.072 A 
ATOM      5  C5  MOL d         119.347 133.550  64.248  0.00  0.00    -0.022 A 
ATOM      6  C6  MOL d         118.633 132.502  63.600  0.00  0.00    -0.072 A 
ATOM      7  C7  MOL d         119.291 131.373  63.097  0.00  0.00    -0.081 A 
ATOM      8  C8  MOL d         120.683 131.256  63.223  0.00  0.00    -0.058 A 
ATOM      9  N   MOL d         122.791 134.573  65.272  0.00  0.00    -0.355 N 
ATOM     10  C9  MOL d         121.451 132.263  63.856  0.00  0.00     0.094 A 
ATOM     11  C10 MOL d         120.809 133.459  64.402  0.00  0.00     0.025 A 
ATOM     12  H1  MOL d         121.213 136.498  66.076  0.00  0.00     0.086 H 
ATOM     13  H2  MOL d         118.761 136.577  65.762  0.00  0.00     0.083 H 
ATOM     14  H3  MOL d         117.575 134.735  64.625  0.00  0.00     0.084 H 
ATOM     15  H4  MOL d         117.557 132.580  63.495  0.00  0.00     0.084 H 
ATOM     16  H5  MOL d         118.724 130.589  62.609  0.00  0.00     0.083 H 
ATOM     17  H6  MOL d         121.180 130.378  62.828  0.00  0.00     0.086 H 
ATOM     18  H7  MOL d         123.183 133.745  65.744  0.00  0.00     0.166 HD
ENDROOT
BRANCH   9  19
ATOM     19  C11 MOL d         123.656 135.512  64.922  0.00  0.00     0.032 A 
ATOM     20  C12 MOL d         123.451 136.417  63.813  0.00  0.00    -0.057 A 
ATOM     21  C13 MOL d         124.435 137.400  63.488  0.00  0.00    -0.081 A 
ATOM     22  H8  MOL d         122.545 136.348  63.224  0.00  0.00     0.086 H 
ATOM     23  C14 MOL d         125.628 137.489  64.263  0.00  0.00    -0.083 A 
ATOM     24  H9  MOL d         124.274 138.076  62.656  0.00  0.00     0.083 H 
ATOM     25  C15 MOL d         125.834 136.602  65.355  0.00  0.00    -0.081 A 
ATOM     26  H10 MOL d         126.379 138.231  64.019  0.00  0.00     0.083 H 
ATOM     27  C16 MOL d         124.856 135.620  65.680  0.00  0.00    -0.057 A 
ATOM     28  H11 MOL d         126.742 136.674  65.943  0.00  0.00     0.083 H 
ATOM     29  H12 MOL d         125.026 134.949  66.514  0.00  0.00     0.086 H 
ENDBRANCH   9  19
BRANCH  10  30
ATOM     30  S   MOL d         123.208 131.971  63.923  0.00  0.00     0.138 S 
ATOM     31  O1  MOL d         123.897 133.016  63.199  0.00  0.00    -0.591 OA
ATOM     32  O2  MOL d         123.452 130.661  63.347  0.00  0.00    -0.591 OA
ATOM     33  O3  MOL d         123.690 131.956  65.494  0.00  0.00    -0.591 OA
ENDBRANCH  10  30
TORSDOF 2
ENDMDL
MODEL 2
REMARK VINA RESULT:      -6.9      2.753      4.198
REMARK  2 active torsions:
REMARK  status: ('A' for Active; 'I' for Inactive)
REMARK    1  A    between atoms: N_9  and  C11_13 
REMARK    2  A    between atoms: C9_11  and  S_10 
ROOT
ATOM      1  C1  MOL d         122.309 133.272  64.157  0.00  0.00     0.045 A 
ATOM      2  C2  MOL d         122.129 131.974  63.574  0.00  0.00    -0.056 A 
ATOM      3  C3  MOL d         120.851 131.404  63.440  0.00  0.00    -0.080 A 
ATOM      4  C4  MOL d         119.713 132.100  63.871  0.00  0.00    -0.072 A 
ATOM      5  C5  MOL d         119.809 133.389  64.452  0.00  0.00    -0.022 A 
ATOM      6  C6  MOL d         118.632 134.069  64.874  0.00  0.00    -0.072 A 
ATOM      7  C7  MOL d         118.692 135.344  65.452  0.00  0.00    -0.081 A 
ATOM      8  C8  MOL d         119.930 135.977  65.628  0.00  0.00    -0.058 A 
ATOM      9  N   MOL d         123.521 133.768  64.261  0.00  0.00    -0.355 N 
ATOM     10  C9  MOL d         121.138 135.355  65.231  0.00  0.00     0.094 A 
ATOM     11  C10 MOL d         121.127 134.026  64.618  0.00  0.00     0.025 A 
ATOM     12  H1  MOL d         122.995 131.422  63.228  0.00  0.00     0.086 H 
ATOM     13  H2  MOL d         120.746 130.419  63.001  0.00  0.00     0.083 H 
ATOM     14  H3  MOL d         118.738 131.641  63.757  0.00  0.00     0.084 H 
ATOM     15  H4  MOL d         117.668 133.591  64.745  0.00  0.00     0.084 H 
ATOM     16  H5  MOL d         117.781 135.840  65.763  0.00  0.00     0.083 H 
ATOM     17  H6  MOL d         119.963 136.963  66.078  0.00  0.00     0.086 H 
ATOM     18  H7  MOL d         123.670 134.698  63.845  0.00  0.00     0.166 HD
ENDROOT
BRANCH   9  19
ATOM     19  C11 MOL d         124.573 133.208  64.839  0.00  0.00     0.032 A 
ATOM     20  C12 MOL d         124.481 132.124  65.790  0.00  0.00    -0.057 A 
ATOM     21  C13 MOL d         125.661 131.576  66.382  0.00  0.00    -0.081 A 
ATOM     22  H8  MOL d         123.511 131.723  66.057  0.00  0.00     0.086 H 
ATOM     23  C14 MOL d         126.938 132.105  66.031  0.00  0.00    -0.083 A 
ATOM     24  H9  MOL d         125.585 130.763  67.093  0.00  0.00     0.083 H 
ATOM     25  C15 MOL d         127.033 133.171  65.095  0.00  0.00    -0.081 A 
ATOM     26  H10 MOL d         127.835 131.695  66.478  0.00  0.00     0.083 H 
ATOM     27  C16 MOL d         125.858 133.719  64.505  0.00  0.00    -0.057 A 
ATOM     28  H11 MOL d         128.005 133.569  64.829  0.00  0.00     0.083 H 
ATOM     29  H12 MOL d         125.945 134.533  63.795  0.00  0.00     0.086 H 
ENDBRANCH   9  19
BRANCH  10  30
ATOM     30  S   MOL d         122.628 136.285  65.535  0.00  0.00     0.138 S 
ATOM     31  O1  MOL d         123.469 135.558  66.459  0.00  0.00    -0.591 OA
ATOM     32  O2  MOL d         122.231 137.577  66.065  0.00  0.00    -0.591 OA
ATOM     33  O3  MOL d         123.416 136.517  64.112  0.00  0.00    -0.591 OA
ENDBRANCH  10  30
TORSDOF 2
ENDMDL
MODEL 3
REMARK VINA RESULT:      -5.6      1.620      5.377
REMARK  2 active torsions:
REMARK  status: ('A' for Active; 'I' for Inactive)
REMARK    1  A    between atoms: N_9  and  C11_13 
REMARK    2  A    between atoms: C9_11  and  S_10 
ROOT
ATOM      1  C1  MOL d         123.743 134.996  64.210  0.00  0.00     0.045 A 
ATOM      2  C2  MOL d         123.636 136.413  64.017  0.00  0.00    -0.056 A 
ATOM      3  C3  MOL d         124.723 137.269  64.261  0.00  0.00    -0.080 A 
ATOM      4  C4  MOL d         125.951 136.752  64.695  0.00  0.00    -0.072 A 
ATOM      5  C5  MOL d         126.138 135.362  64.904  0.00  0.00    -0.022 A 
ATOM      6  C6  MOL d         127.400 134.870  65.341  0.00  0.00    -0.072 A 
ATOM      7  C7  MOL d         127.617 133.504  65.556  0.00  0.00    -0.081 A 
ATOM      8  C8  MOL d         126.579 132.586  65.343  0.00  0.00    -0.058 A 
ATOM      9  N   MOL d         122.702 134.234  63.968  0.00  0.00    -0.355 N 
ATOM     10  C9  MOL d         125.300 133.009  64.909  0.00  0.00     0.094 A 
ATOM     11  C10 MOL d         125.026 134.426  64.666  0.00  0.00     0.025 A 
ATOM     12  H1  MOL d         122.697 136.833  63.675  0.00  0.00     0.086 H 
ATOM     13  H2  MOL d         124.612 138.336  64.112  0.00  0.00     0.083 H 
ATOM     14  H3  MOL d         126.777 137.430  64.876  0.00  0.00     0.084 H 
ATOM     15  H4  MOL d         128.212 135.569  65.511  0.00  0.00     0.084 H 
ATOM     16  H5  MOL d         128.588 133.155  65.888  0.00  0.00     0.083 H 
ATOM     17  H6  MOL d         126.760 131.531  65.514  0.00  0.00     0.086 H 
ATOM     18  H7  MOL d         122.850 133.455  63.310  0.00  0.00     0.166 HD
ENDROOT
BRANCH   9  19
ATOM     19  C11 MOL d         121.483 134.351  64.473  0.00  0.00     0.032 A 
ATOM     20  C12 MOL d         121.137 135.282  65.522  0.00  0.00    -0.057 A 
ATOM     21  C13 MOL d         119.802 135.346  66.026  0.00  0.00    -0.081 A 
ATOM     22  H8  MOL d         121.897 135.938  65.931  0.00  0.00     0.086 H 
ATOM     23  C14 MOL d         118.803 134.481  65.489  0.00  0.00    -0.083 A 
ATOM     24  H9  MOL d         119.550 136.047  66.812  0.00  0.00     0.083 H 
ATOM     25  C15 MOL d         119.138 133.563  64.456  0.00  0.00    -0.081 A 
ATOM     26  H10 MOL d         117.789 134.523  65.868  0.00  0.00     0.083 H 
ATOM     27  C16 MOL d         120.469 133.498  63.953  0.00  0.00    -0.057 A 
ATOM     28  H11 MOL d         118.376 132.909  64.048  0.00  0.00     0.083 H 
ATOM     29  H12 MOL d         120.712 132.792  63.168  0.00  0.00     0.086 H 
ENDBRANCH   9  19
BRANCH  10  30
ATOM     30  S   MOL d         124.086 131.721  64.698  0.00  0.00     0.138 S 
ATOM     31  O1  MOL d         123.001 131.925  65.633  0.00  0.00    -0.591 OA
ATOM     32  O2  MOL d         124.758 130.453  64.916  0.00  0.00    -0.591 OA
ATOM     33  O3  MOL d         123.521 131.763  63.156  0.00  0.00    -0.591 OA
ENDBRANCH  10  30
TORSDOF 2
ENDMDL
MODEL 4
REMARK VINA RESULT:      -5.3      2.873      6.304
REMARK  2 active torsions:
REMARK  status: ('A' for Active; 'I' for Inactive)
REMARK    1  A    between atoms: N_9  and  C11_13 
REMARK    2  A    between atoms: C9_11  and  S_10 
ROOT
ATOM      1  C1  MOL d         124.275 132.929  65.281  0.00  0.00     0.045 A 
ATOM      2  C2  MOL d         124.401 131.520  65.521  0.00  0.00    -0.056 A 
ATOM      3  C3  MOL d         125.660 130.898  65.576  0.00  0.00    -0.080 A 
ATOM      4  C4  MOL d         126.832 131.647  65.404  0.00  0.00    -0.072 A 
ATOM      5  C5  MOL d         126.790 133.045  65.169  0.00  0.00    -0.022 A 
ATOM      6  C6  MOL d         128.000 133.776  65.004  0.00  0.00    -0.072 A 
ATOM      7  C7  MOL d         127.993 135.157  64.771  0.00  0.00    -0.081 A 
ATOM      8  C8  MOL d         126.777 135.850  64.694  0.00  0.00    -0.058 A 
ATOM      9  N   MOL d         123.079 133.469  65.240  0.00  0.00    -0.355 N 
ATOM     10  C9  MOL d         125.539 135.182  64.848  0.00  0.00     0.094 A 
ATOM     11  C10 MOL d         125.494 133.741  65.099  0.00  0.00     0.025 A 
ATOM     12  H1  MOL d         123.508 130.923  65.663  0.00  0.00     0.086 H 
ATOM     13  H2  MOL d         125.725 129.831  65.752  0.00  0.00     0.083 H 
ATOM     14  H3  MOL d         127.792 131.147  65.452  0.00  0.00     0.084 H 
ATOM     15  H4  MOL d         128.948 133.253  65.061  0.00  0.00     0.084 H 
ATOM     16  H5  MOL d         128.929 135.690  64.650  0.00  0.00     0.083 H 
ATOM     17  H6  MOL d         126.786 136.918  64.511  0.00  0.00     0.086 H 
ATOM     18  H7  MOL d         122.917 134.266  65.872  0.00  0.00     0.166 HD
ENDROOT
BRANCH   9  19
ATOM     19  C11 MOL d         122.058 133.107  64.478  0.00  0.00     0.032 A 
ATOM     20  C12 MOL d         122.091 131.975  63.580  0.00  0.00    -0.057 A 
ATOM     21  C13 MOL d         120.952 131.650  62.781  0.00  0.00    -0.081 A 
ATOM     22  H8  MOL d         122.986 131.369  63.512  0.00  0.00     0.086 H 
ATOM     23  C14 MOL d         119.775 132.450  62.869  0.00  0.00    -0.083 A 
ATOM     24  H9  MOL d         120.984 130.800  62.110  0.00  0.00     0.083 H 
ATOM     25  C15 MOL d         119.738 133.564  63.752  0.00  0.00    -0.081 A 
ATOM     26  H10 MOL d         118.910 132.209  62.264  0.00  0.00     0.083 H 
ATOM     27  C16 MOL d         120.872 133.890  64.549  0.00  0.00    -0.057 A 
ATOM     28  H11 MOL d         118.841 134.168  63.819  0.00  0.00     0.083 H 
ATOM     29  H12 MOL d         120.831 134.743  65.216  0.00  0.00     0.086 H 
ENDBRANCH   9  19
BRANCH  10  30
ATOM     30  S   MOL d         124.084 136.202  64.709  0.00  0.00     0.138 S 
ATOM     31  O1  MOL d         123.302 135.773  63.571  0.00  0.00    -0.591 OA
ATOM     32  O2  MOL d         124.530 137.577  64.572  0.00  0.00    -0.591 OA
ATOM     33  O3  MOL d         123.199 136.068  66.087  0.00  0.00    -0.591 OA
ENDBRANCH  10  30
TORSDOF 2
ENDMDL
MODEL 5
REMARK VINA RESULT:      -5.2      2.095      5.800
REMARK  2 active torsions:
REMARK  status: ('A' for Active; 'I' for Inactive)
REMARK    1  A    between atoms: N_9  and  C11_13 
REMARK    2  A    between atoms: C9_11  and  S_10 
ROOT
ATOM      1  C1  MOL d         124.148 134.741  64.481  0.00  0.00     0.045 A 
ATOM      2  C2  MOL d         123.505 135.654  63.580  0.00  0.00    -0.056 A 
ATOM      3  C3  MOL d         123.586 137.044  63.767  0.00  0.00    -0.080 A 
ATOM      4  C4  MOL d         124.310 137.577  64.843  0.00  0.00    -0.072 A 
ATOM      5  C5  MOL d         124.977 136.741  65.773  0.00  0.00    -0.022 A 
ATOM      6  C6  MOL d         125.708 137.315  66.851  0.00  0.00    -0.072 A 
ATOM      7  C7  MOL d         126.378 136.517  67.787  0.00  0.00    -0.081 A 
ATOM      8  C8  MOL d         126.338 135.120  67.675  0.00  0.00    -0.058 A 
ATOM      9  N   MOL d         124.048 133.450  64.268  0.00  0.00    -0.355 N 
ATOM     10  C9  MOL d         125.630 134.486  66.627  0.00  0.00     0.094 A 
ATOM     11  C10 MOL d         124.918 135.276  65.622  0.00  0.00     0.025 A 
ATOM     12  H1  MOL d         122.946 135.263  62.738  0.00  0.00     0.086 H 
ATOM     13  H2  MOL d         123.085 137.710  63.074  0.00  0.00     0.083 H 
ATOM     14  H3  MOL d         124.360 138.652  64.967  0.00  0.00     0.084 H 
ATOM     15  H4  MOL d         125.746 138.394  66.951  0.00  0.00     0.084 H 
ATOM     16  H5  MOL d         126.928 136.979  68.598  0.00  0.00     0.083 H 
ATOM     17  H6  MOL d         126.860 134.514  68.406  0.00  0.00     0.086 H 
ATOM     18  H7  MOL d         124.934 132.927  64.208  0.00  0.00     0.166 HD
ENDROOT
BRANCH   9  19
ATOM     19  C11 MOL d         122.938 132.742  64.121  0.00  0.00     0.032 A 
ATOM     20  C12 MOL d         121.613 133.278  64.328  0.00  0.00    -0.057 A 
ATOM     21  C13 MOL d         120.460 132.451  64.161  0.00  0.00    -0.081 A 
ATOM     22  H8  MOL d         121.492 134.317  64.612  0.00  0.00     0.086 H 
ATOM     23  C14 MOL d         120.621 131.083  63.789  0.00  0.00    -0.083 A 
ATOM     24  H9  MOL d         119.469 132.860  64.317  0.00  0.00     0.083 H 
ATOM     25  C15 MOL d         121.923 130.551  63.584  0.00  0.00    -0.081 A 
ATOM     26  H10 MOL d         119.751 130.450  63.663  0.00  0.00     0.083 H 
ATOM     27  C16 MOL d         123.073 131.374  63.751  0.00  0.00    -0.057 A 
ATOM     28  H11 MOL d         122.041 129.512  63.299  0.00  0.00     0.083 H 
ATOM     29  H12 MOL d         124.060 130.955  63.594  0.00  0.00     0.086 H 
ENDBRANCH   9  19
BRANCH  10  30
ATOM     30  S   MOL d         125.664 132.704  66.632  0.00  0.00     0.138 S 
ATOM     31  O1  MOL d         124.317 132.197  66.769  0.00  0.00    -0.591 OA
ATOM     32  O2  MOL d         126.513 132.291  67.736  0.00  0.00    -0.591 OA
ATOM     33  O3  MOL d         126.330 132.175  65.226  0.00  0.00    -0.591 OA
ENDBRANCH  10  30
TORSDOF 2
ENDMDL
MODEL 6
REMARK VINA RESULT:      -5.1      1.674      5.285
REMARK  2 active torsions:
REMARK  status: ('A' for Active; 'I' for Inactive)
REMARK    1  A    between atoms: N_9  and  C11_13 
REMARK    2  A    between atoms: C9_11  and  S_10 
ROOT
ATOM      1  C1  MOL d         122.837 134.652  64.924  0.00  0.00     0.045 A 
ATOM      2  C2  MOL d         122.371 136.007  64.995  0.00  0.00    -0.056 A 
ATOM      3  C3  MOL d         122.983 136.947  65.842  0.00  0.00    -0.080 A 
ATOM      4  C4  MOL d         124.077 136.582  66.637  0.00  0.00    -0.072 A 
ATOM      5  C5  MOL d         124.600 135.264  66.619  0.00  0.00    -0.022 A 
ATOM      6  C6  MOL d         125.716 134.929  67.436  0.00  0.00    -0.072 A 
ATOM      7  C7  MOL d         126.256 133.636  67.441  0.00  0.00    -0.081 A 
ATOM      8  C8  MOL d         125.697 132.639  66.630  0.00  0.00    -0.058 A 
ATOM      9  N   MOL d         122.237 133.807  64.118  0.00  0.00    -0.355 N 
ATOM     10  C9  MOL d         124.586 132.906  65.794  0.00  0.00     0.094 A 
ATOM     11  C10 MOL d         123.990 134.242  65.751  0.00  0.00     0.025 A 
ATOM     12  H1  MOL d         121.530 136.312  64.384  0.00  0.00     0.086 H 
ATOM     13  H2  MOL d         122.605 137.962  65.880  0.00  0.00     0.083 H 
ATOM     14  H3  MOL d         124.534 137.324  67.282  0.00  0.00     0.084 H 
ATOM     15  H4  MOL d         126.158 135.690  68.069  0.00  0.00     0.084 H 
ATOM     16  H5  MOL d         127.107 133.408  68.071  0.00  0.00     0.083 H 
ATOM     17  H6  MOL d         126.124 131.642  66.644  0.00  0.00     0.086 H 
ATOM     18  H7  MOL d         122.839 133.317  63.440  0.00  0.00     0.166 HD
ENDROOT
BRANCH   9  19
ATOM     19  C11 MOL d         120.947 133.512  64.077  0.00  0.00     0.032 A 
ATOM     20  C12 MOL d         119.945 134.188  64.869  0.00  0.00    -0.057 A 
ATOM     21  C13 MOL d         118.571 133.808  64.779  0.00  0.00    -0.081 A 
ATOM     22  H8  MOL d         120.239 134.989  65.537  0.00  0.00     0.086 H 
ATOM     23  C14 MOL d         118.186 132.752  63.902  0.00  0.00    -0.083 A 
ATOM     24  H9  MOL d         117.825 134.319  65.376  0.00  0.00     0.083 H 
ATOM     25  C15 MOL d         119.168 132.085  63.119  0.00  0.00    -0.081 A 
ATOM     26  H10 MOL d         117.146 132.458  63.831  0.00  0.00     0.083 H 
ATOM     27  C16 MOL d         120.538 132.461  63.208  0.00  0.00    -0.057 A 
ATOM     28  H11 MOL d         118.871 131.284  62.451  0.00  0.00     0.083 H 
ATOM     29  H12 MOL d         121.277 131.943  62.608  0.00  0.00     0.086 H 
ENDBRANCH   9  19
BRANCH  10  30
ATOM     30  S   MOL d         123.984 131.529  64.837  0.00  0.00     0.138 S 
ATOM     31  O1  MOL d         122.677 131.143  65.318  0.00  0.00    -0.591 OA
ATOM     32  O2  MOL d         124.950 130.453  64.971  0.00  0.00    -0.591 OA
ATOM     33  O3  MOL d         123.900 131.969  63.256  0.00  0.00    -0.591 OA
ENDBRANCH  10  30
TORSDOF 2
ENDMDL
MODEL 7
REMARK VINA RESULT:      -4.4      2.845      6.213
REMARK  2 active torsions:
REMARK  status: ('A' for Active; 'I' for Inactive)
REMARK    1  A    between atoms: N_9  and  C11_13 
REMARK    2  A    between atoms: C9_11  and  S_10 
ROOT
ATOM      1  C1  MOL d         121.933 133.504  64.589  0.00  0.00     0.045 A 
ATOM      2  C2  MOL d         122.671 132.436  63.979  0.00  0.00    -0.056 A 
ATOM      3  C3  MOL d         124.002 132.610  63.564  0.00  0.00    -0.080 A 
ATOM      4  C4  MOL d         124.648 133.841  63.745  0.00  0.00    -0.072 A 
ATOM      5  C5  MOL d         123.988 134.943  64.345  0.00  0.00    -0.022 A 
ATOM      6  C6  MOL d         124.676 136.177  64.518  0.00  0.00    -0.072 A 
ATOM      7  C7  MOL d         124.052 137.284  65.107  0.00  0.00    -0.081 A 
ATOM      8  C8  MOL d         122.722 137.194  65.540  0.00  0.00    -0.058 A 
ATOM      9  N   MOL d         120.692 133.297  64.963  0.00  0.00    -0.355 N 
ATOM     10  C9  MOL d         121.982 135.996  65.397  0.00  0.00     0.094 A 
ATOM     11  C10 MOL d         122.591 134.810  64.792  0.00  0.00     0.025 A 
ATOM     12  H1  MOL d         122.192 131.474  63.835  0.00  0.00     0.086 H 
ATOM     13  H2  MOL d         124.532 131.787  63.101  0.00  0.00     0.083 H 
ATOM     14  H3  MOL d         125.675 133.952  63.419  0.00  0.00     0.084 H 
ATOM     15  H4  MOL d         125.704 136.262  64.187  0.00  0.00     0.084 H 
ATOM     16  H5  MOL d         124.599 138.212  65.228  0.00  0.00     0.083 H 
ATOM     17  H6  MOL d         122.251 138.058  65.993  0.00  0.00     0.086 H 
ATOM     18  H7  MOL d         120.470 133.511  65.946  0.00  0.00     0.166 HD
ENDROOT
BRANCH   9  19
ATOM     19  C11 MOL d         119.692 132.843  64.222  0.00  0.00     0.032 A 
ATOM     20  C12 MOL d         118.555 133.646  63.833  0.00  0.00    -0.057 A 
ATOM     21  C13 MOL d         117.508 133.086  63.040  0.00  0.00    -0.081 A 
ATOM     22  H8  MOL d         118.496 134.682  64.147  0.00  0.00     0.086 H 
ATOM     23  C14 MOL d         117.586 131.722  62.629  0.00  0.00    -0.083 A 
ATOM     24  H9  MOL d         116.659 133.694  62.751  0.00  0.00     0.083 H 
ATOM     25  C15 MOL d         118.703 130.929  63.008  0.00  0.00    -0.081 A 
ATOM     26  H10 MOL d         116.794 131.291  62.029  0.00  0.00     0.083 H 
ATOM     27  C16 MOL d         119.747 131.485  63.800  0.00  0.00    -0.057 A 
ATOM     28  H11 MOL d         118.760 129.893  62.692  0.00  0.00     0.083 H 
ATOM     29  H12 MOL d         120.592 130.869  64.084  0.00  0.00     0.086 H 
ENDBRANCH   9  19
BRANCH  10  30
ATOM     30  S   MOL d         120.300 136.047  65.984  0.00  0.00     0.138 S 
ATOM     31  O1  MOL d         120.020 134.852  66.748  0.00  0.00    -0.591 OA
ATOM     32  O2  MOL d         119.438 136.161  64.821  0.00  0.00    -0.591 OA
ATOM     33  O3  MOL d         120.099 137.380  66.923  0.00  0.00    -0.591 OA
ENDBRANCH  10  30
TORSDOF 2
ENDMDL
