REMARK  2 active torsions:
REMARK  status: ('A' for Active; 'I' for Inactive)
REMARK    1  A    between atoms: C6_6  and  S11_10 
REMARK    2  A    between atoms: C7_14  and  N15_15 
ROOT
ATOM      1  C1  MOL d         -22.499   1.732 -27.050  0.00  0.00    -0.059 A 
ATOM      2  C2  MOL d         -22.931   2.100 -25.776  0.00  0.00    -0.081 A 
ATOM      3  C3  MOL d         -22.590   1.310 -24.681  0.00  0.00    -0.070 A 
ATOM      4  C4  MOL d         -21.813   0.154 -24.851  0.00  0.00     0.002 A 
ATOM      5  C5  MOL d         -21.374  -0.219 -26.140  0.00  0.00     0.001 A 
ATOM      6  C6  MOL d         -21.717   0.584 -27.248  0.00  0.00     0.091 A 
ATOM      7  C9  MOL d         -20.260  -2.153 -25.170  0.00  0.00    -0.080 A 
ATOM      8  C10 MOL d         -20.596  -1.379 -26.280  0.00  0.00    -0.070 A 
ATOM      9  C8  MOL d         -20.704  -1.780 -23.901  0.00  0.00    -0.057 A 
ATOM     10  C7  MOL d         -21.479  -0.630 -23.734  0.00  0.00     0.036 A 
ATOM     11  H1  MOL d         -22.772   2.344 -27.902  0.00  0.00     0.086 H 
ATOM     12  H2  MOL d         -23.528   2.994 -25.639  0.00  0.00     0.083 H 
ATOM     13  H3  MOL d         -22.927   1.590 -23.690  0.00  0.00     0.084 H 
ATOM     14  H4  MOL d         -19.654  -3.044 -25.293  0.00  0.00     0.083 H 
ATOM     15  H5  MOL d         -20.252  -1.677 -27.264  0.00  0.00     0.084 H 
ATOM     16  H6  MOL d         -20.446  -2.386 -23.040  0.00  0.00     0.086 H 
ENDROOT
BRANCH   6  17
ATOM     17  S11 MOL d         -21.266   0.244 -28.765  0.00  0.00     0.138 S 
ATOM     18  O14 MOL d         -20.737   1.480 -29.387  0.00  0.00    -0.591 OA
ATOM     19  O12 MOL d         -22.448  -0.275 -29.504  0.00  0.00    -0.591 OA
ATOM     20  O13 MOL d         -20.207  -0.797 -28.828  0.00  0.00    -0.591 OA
ENDBRANCH   6  17
BRANCH  10  21
ATOM     21  N15 MOL d         -21.894  -0.302 -22.475  0.00  0.00    -0.398 N 
ATOM     22  H7  MOL d         -22.466   0.541 -22.325  0.00  0.00     0.156 HD
ATOM     23  H8  MOL d         -21.634  -0.897 -21.676  0.00  0.00     0.156 HD
ENDBRANCH  10  21
TORSDOF 2
