MODEL 1
REMARK VINA RESULT:      -7.3      0.000      0.000
REMARK  2 active torsions:
REMARK  status: ('A' for Active; 'I' for Inactive)
REMARK    1  A    between atoms: C6_6  and  S11_10 
REMARK    2  A    between atoms: C7_14  and  N15_15 
ROOT
ATOM      1  C1  MOL d         -20.528  -2.151 -24.660  0.00  0.00    -0.059 A 
ATOM      2  C2  MOL d         -20.203  -2.102 -26.016  0.00  0.00    -0.081 A 
ATOM      3  C3  MOL d         -20.667  -1.046 -26.795  0.00  0.00    -0.070 A 
ATOM      4  C4  MOL d         -21.452  -0.031 -26.225  0.00  0.00     0.002 A 
ATOM      5  C5  MOL d         -21.781  -0.079 -24.853  0.00  0.00     0.001 A 
ATOM      6  C6  MOL d         -21.307  -1.148 -24.064  0.00  0.00     0.091 A 
ATOM      7  C9  MOL d         -23.015   2.003 -25.105  0.00  0.00    -0.080 A 
ATOM      8  C10 MOL d         -22.565   0.950 -24.309  0.00  0.00    -0.070 A 
ATOM      9  C8  MOL d         -22.690   2.038 -26.462  0.00  0.00    -0.057 A 
ATOM     10  C7  MOL d         -21.911   1.027 -27.028  0.00  0.00     0.036 A 
ATOM     11  H1  MOL d         -20.172  -2.979 -24.057  0.00  0.00     0.086 H 
ATOM     12  H2  MOL d         -19.594  -2.881 -26.459  0.00  0.00     0.083 H 
ATOM     13  H3  MOL d         -20.421  -1.006 -27.849  0.00  0.00     0.084 H 
ATOM     14  H4  MOL d         -23.616   2.794 -24.670  0.00  0.00     0.083 H 
ATOM     15  H5  MOL d         -22.825   0.926 -23.257  0.00  0.00     0.084 H 
ATOM     16  H6  MOL d         -23.045   2.855 -27.080  0.00  0.00     0.086 H 
ENDROOT
BRANCH   6  17
ATOM     17  S11 MOL d         -21.628  -1.297 -22.484  0.00  0.00     0.138 S 
ATOM     18  O14 MOL d         -20.882  -0.247 -21.752  0.00  0.00    -0.591 OA
ATOM     19  O12 MOL d         -21.223  -2.659 -22.046  0.00  0.00    -0.591 OA
ATOM     20  O13 MOL d         -23.073  -1.139 -22.176  0.00  0.00    -0.591 OA
ENDBRANCH   6  17
BRANCH  10  21
ATOM     21  N15 MOL d         -21.618   1.099 -28.359  0.00  0.00    -0.398 N 
ATOM     22  H7  MOL d         -21.685   0.256 -28.947  0.00  0.00     0.156 HD
ATOM     23  H8  MOL d         -21.329   1.995 -28.775  0.00  0.00     0.156 HD
ENDBRANCH  10  21
TORSDOF 2
ENDMDL
MODEL 2
REMARK VINA RESULT:      -7.3      1.414      3.442
REMARK  2 active torsions:
REMARK  status: ('A' for Active; 'I' for Inactive)
REMARK    1  A    between atoms: C6_6  and  S11_10 
REMARK    2  A    between atoms: C7_14  and  N15_15 
ROOT
ATOM      1  C1  MOL d         -22.430   2.158 -24.651  0.00  0.00    -0.059 A 
ATOM      2  C2  MOL d         -22.750   2.110 -26.008  0.00  0.00    -0.081 A 
ATOM      3  C3  MOL d         -22.285   1.052 -26.785  0.00  0.00    -0.070 A 
ATOM      4  C4  MOL d         -21.504   0.037 -26.213  0.00  0.00     0.002 A 
ATOM      5  C5  MOL d         -21.180   0.084 -24.840  0.00  0.00     0.001 A 
ATOM      6  C6  MOL d         -21.655   1.154 -24.052  0.00  0.00     0.091 A 
ATOM      7  C9  MOL d         -19.949  -2.001 -25.088  0.00  0.00    -0.080 A 
ATOM      8  C10 MOL d         -20.399  -0.947 -24.293  0.00  0.00    -0.070 A 
ATOM      9  C8  MOL d         -20.269  -2.035 -26.446  0.00  0.00    -0.057 A 
ATOM     10  C7  MOL d         -21.045  -1.022 -27.014  0.00  0.00     0.036 A 
ATOM     11  H1  MOL d         -22.786   2.986 -24.049  0.00  0.00     0.086 H 
ATOM     12  H2  MOL d         -23.356   2.890 -26.454  0.00  0.00     0.083 H 
ATOM     13  H3  MOL d         -22.529   1.013 -27.841  0.00  0.00     0.084 H 
ATOM     14  H4  MOL d         -19.351  -2.793 -24.651  0.00  0.00     0.083 H 
ATOM     15  H5  MOL d         -20.143  -0.924 -23.240  0.00  0.00     0.084 H 
ATOM     16  H6  MOL d         -19.913  -2.852 -27.063  0.00  0.00     0.086 H 
ENDROOT
BRANCH   6  17
ATOM     17  S11 MOL d         -21.339   1.301 -22.471  0.00  0.00     0.138 S 
ATOM     18  O14 MOL d         -22.088   0.252 -21.742  0.00  0.00    -0.591 OA
ATOM     19  O12 MOL d         -21.744   2.664 -22.034  0.00  0.00    -0.591 OA
ATOM     20  O13 MOL d         -19.895   1.142 -22.159  0.00  0.00    -0.591 OA
ENDBRANCH   6  17
BRANCH  10  21
ATOM     21  N15 MOL d         -21.333  -1.094 -28.347  0.00  0.00    -0.398 N 
ATOM     22  H7  MOL d         -20.966  -0.380 -28.992  0.00  0.00     0.156 HD
ATOM     23  H8  MOL d         -21.919  -1.860 -28.706  0.00  0.00     0.156 HD
ENDBRANCH  10  21
TORSDOF 2
ENDMDL
MODEL 3
REMARK VINA RESULT:      -7.1      3.876      5.032
REMARK  2 active torsions:
REMARK  status: ('A' for Active; 'I' for Inactive)
REMARK    1  A    between atoms: C6_6  and  S11_10 
REMARK    2  A    between atoms: C7_14  and  N15_15 
ROOT
ATOM      1  C1  MOL d         -22.612   1.612 -27.062  0.00  0.00    -0.059 A 
ATOM      2  C2  MOL d         -22.956   2.333 -25.918  0.00  0.00    -0.081 A 
ATOM      3  C3  MOL d         -22.562   1.864 -24.668  0.00  0.00    -0.070 A 
ATOM      4  C4  MOL d         -21.819   0.679 -24.553  0.00  0.00     0.002 A 
ATOM      5  C5  MOL d         -21.470  -0.051 -25.710  0.00  0.00     0.001 A 
ATOM      6  C6  MOL d         -21.867   0.427 -26.977  0.00  0.00     0.091 A 
ATOM      7  C9  MOL d         -20.335  -1.681 -24.304  0.00  0.00    -0.080 A 
ATOM      8  C10 MOL d         -20.725  -1.232 -25.565  0.00  0.00    -0.070 A 
ATOM      9  C8  MOL d         -20.690  -0.957 -23.166  0.00  0.00    -0.057 A 
ATOM     10  C7  MOL d         -21.431   0.222 -23.282  0.00  0.00     0.036 A 
ATOM     11  H1  MOL d         -22.927   1.975 -28.034  0.00  0.00     0.086 H 
ATOM     12  H2  MOL d         -23.525   3.251 -26.002  0.00  0.00     0.083 H 
ATOM     13  H3  MOL d         -22.830   2.419 -23.776  0.00  0.00     0.084 H 
ATOM     14  H4  MOL d         -19.755  -2.593 -24.209  0.00  0.00     0.083 H 
ATOM     15  H5  MOL d         -20.450  -1.802 -26.445  0.00  0.00     0.084 H 
ATOM     16  H6  MOL d         -20.390  -1.311 -22.187  0.00  0.00     0.086 H 
ENDROOT
BRANCH   6  17
ATOM     17  S11 MOL d         -21.519  -0.334 -28.362  0.00  0.00     0.138 S 
ATOM     18  O14 MOL d         -20.048  -0.353 -28.532  0.00  0.00    -0.591 OA
ATOM     19  O12 MOL d         -22.188   0.387 -29.478  0.00  0.00    -0.591 OA
ATOM     20  O13 MOL d         -22.007  -1.738 -28.382  0.00  0.00    -0.591 OA
ENDBRANCH   6  17
BRANCH  10  21
ATOM     21  N15 MOL d         -21.759   0.899 -22.143  0.00  0.00    -0.398 N 
ATOM     22  H7  MOL d         -21.463   0.537 -21.226  0.00  0.00     0.156 HD
ATOM     23  H8  MOL d         -22.303   1.771 -22.201  0.00  0.00     0.156 HD
ENDBRANCH  10  21
TORSDOF 2
ENDMDL
MODEL 4
REMARK VINA RESULT:      -7.1      3.952      4.443
REMARK  2 active torsions:
REMARK  status: ('A' for Active; 'I' for Inactive)
REMARK    1  A    between atoms: C6_6  and  S11_10 
REMARK    2  A    between atoms: C7_14  and  N15_15 
ROOT
ATOM      1  C1  MOL d         -20.290  -1.675 -27.001  0.00  0.00    -0.059 A 
ATOM      2  C2  MOL d         -19.986  -2.411 -25.857  0.00  0.00    -0.081 A 
ATOM      3  C3  MOL d         -20.412  -1.952 -24.612  0.00  0.00    -0.070 A 
ATOM      4  C4  MOL d         -21.145  -0.761 -24.505  0.00  0.00     0.002 A 
ATOM      5  C5  MOL d         -21.454  -0.015 -25.664  0.00  0.00     0.001 A 
ATOM      6  C6  MOL d         -21.026  -0.483 -26.924  0.00  0.00     0.091 A 
ATOM      7  C9  MOL d         -22.614   1.611 -24.273  0.00  0.00    -0.080 A 
ATOM      8  C10 MOL d         -22.192   1.172 -25.527  0.00  0.00    -0.070 A 
ATOM      9  C8  MOL d         -22.298   0.871 -23.133  0.00  0.00    -0.057 A 
ATOM     10  C7  MOL d         -21.565  -0.314 -23.241  0.00  0.00     0.036 A 
ATOM     11  H1  MOL d         -19.952  -2.030 -27.968  0.00  0.00     0.086 H 
ATOM     12  H2  MOL d         -19.423  -3.334 -25.934  0.00  0.00     0.083 H 
ATOM     13  H3  MOL d         -20.174  -2.519 -23.720  0.00  0.00     0.084 H 
ATOM     14  H4  MOL d         -23.187   2.527 -24.183  0.00  0.00     0.083 H 
ATOM     15  H5  MOL d         -22.436   1.754 -26.408  0.00  0.00     0.084 H 
ATOM     16  H6  MOL d         -22.622   1.217 -22.158  0.00  0.00     0.086 H 
ENDROOT
BRANCH   6  17
ATOM     17  S11 MOL d         -21.327   0.297 -28.310  0.00  0.00     0.138 S 
ATOM     18  O14 MOL d         -20.881  -0.555 -29.436  0.00  0.00    -0.591 OA
ATOM     19  O12 MOL d         -20.601   1.595 -28.288  0.00  0.00    -0.591 OA
ATOM     20  O13 MOL d         -22.771   0.595 -28.498  0.00  0.00    -0.591 OA
ENDBRANCH   6  17
BRANCH  10  21
ATOM     21  N15 MOL d         -21.276  -1.007 -22.101  0.00  0.00    -0.398 N 
ATOM     22  H7  MOL d         -20.319  -0.997 -21.722  0.00  0.00     0.156 HD
ATOM     23  H8  MOL d         -22.015  -1.540 -21.621  0.00  0.00     0.156 HD
ENDBRANCH  10  21
TORSDOF 2
ENDMDL
MODEL 5
REMARK VINA RESULT:      -6.7      1.089      2.961
REMARK  2 active torsions:
REMARK  status: ('A' for Active; 'I' for Inactive)
REMARK    1  A    between atoms: C6_6  and  S11_10 
REMARK    2  A    between atoms: C7_14  and  N15_15 
ROOT
ATOM      1  C1  MOL d         -22.845   1.841 -24.474  0.00  0.00    -0.059 A 
ATOM      2  C2  MOL d         -23.105   2.475 -25.688  0.00  0.00    -0.081 A 
ATOM      3  C3  MOL d         -22.638   1.909 -26.872  0.00  0.00    -0.070 A 
ATOM      4  C4  MOL d         -21.915   0.706 -26.850  0.00  0.00     0.002 A 
ATOM      5  C5  MOL d         -21.652   0.062 -25.621  0.00  0.00     0.001 A 
ATOM      6  C6  MOL d         -22.129   0.635 -24.423  0.00  0.00     0.091 A 
ATOM      7  C9  MOL d         -20.476  -1.695 -26.826  0.00  0.00    -0.080 A 
ATOM      8  C10 MOL d         -20.929  -1.141 -25.629  0.00  0.00    -0.070 A 
ATOM      9  C8  MOL d         -20.735  -1.048 -28.034  0.00  0.00    -0.057 A 
ATOM     10  C7  MOL d         -21.453   0.150 -28.054  0.00  0.00     0.036 A 
ATOM     11  H1  MOL d         -23.202   2.287 -23.553  0.00  0.00     0.086 H 
ATOM     12  H2  MOL d         -23.665   3.402 -25.711  0.00  0.00     0.083 H 
ATOM     13  H3  MOL d         -22.834   2.400 -27.817  0.00  0.00     0.084 H 
ATOM     14  H4  MOL d         -19.923  -2.628 -26.817  0.00  0.00     0.083 H 
ATOM     15  H5  MOL d         -20.721  -1.646 -24.693  0.00  0.00     0.084 H 
ATOM     16  H6  MOL d         -20.377  -1.478 -28.963  0.00  0.00     0.086 H 
ENDROOT
BRANCH   6  17
ATOM     17  S11 MOL d         -21.881  -0.022 -22.964  0.00  0.00     0.138 S 
ATOM     18  O14 MOL d         -22.190   0.994 -21.932  0.00  0.00    -0.591 OA
ATOM     19  O12 MOL d         -20.464  -0.468 -22.882  0.00  0.00    -0.591 OA
ATOM     20  O13 MOL d         -22.738  -1.210 -22.717  0.00  0.00    -0.591 OA
ENDBRANCH   6  17
BRANCH  10  21
ATOM     21  N15 MOL d         -21.683   0.751 -29.259  0.00  0.00    -0.398 N 
ATOM     22  H7  MOL d         -22.568   0.583 -29.757  0.00  0.00     0.156 HD
ATOM     23  H8  MOL d         -20.970   1.371 -29.669  0.00  0.00     0.156 HD
ENDBRANCH  10  21
TORSDOF 2
ENDMDL
MODEL 6
REMARK VINA RESULT:      -6.6      1.551      1.988
REMARK  2 active torsions:
REMARK  status: ('A' for Active; 'I' for Inactive)
REMARK    1  A    between atoms: C6_6  and  S11_10 
REMARK    2  A    between atoms: C7_14  and  N15_15 
ROOT
ATOM      1  C1  MOL d         -20.182  -1.195 -24.022  0.00  0.00    -0.059 A 
ATOM      2  C2  MOL d         -19.936  -2.080 -25.072  0.00  0.00    -0.081 A 
ATOM      3  C3  MOL d         -20.430  -1.793 -26.341  0.00  0.00    -0.070 A 
ATOM      4  C4  MOL d         -21.167  -0.621 -26.571  0.00  0.00     0.002 A 
ATOM      5  C5  MOL d         -21.416   0.276 -25.510  0.00  0.00     0.001 A 
ATOM      6  C6  MOL d         -20.911  -0.014 -24.225  0.00  0.00     0.091 A 
ATOM      7  C9  MOL d         -22.635   1.714 -27.049  0.00  0.00    -0.080 A 
ATOM      8  C10 MOL d         -22.154   1.442 -25.769  0.00  0.00    -0.070 A 
ATOM      9  C8  MOL d         -22.390   0.818 -28.090  0.00  0.00    -0.057 A 
ATOM     10  C7  MOL d         -21.658  -0.349 -27.859  0.00  0.00     0.036 A 
ATOM     11  H1  MOL d         -19.802  -1.424 -23.033  0.00  0.00     0.086 H 
ATOM     12  H2  MOL d         -19.364  -2.985 -24.900  0.00  0.00     0.083 H 
ATOM     13  H3  MOL d         -20.245  -2.480 -27.159  0.00  0.00     0.084 H 
ATOM     14  H4  MOL d         -23.199   2.621 -27.235  0.00  0.00     0.083 H 
ATOM     15  H5  MOL d         -22.352   2.140 -24.963  0.00  0.00     0.084 H 
ATOM     16  H6  MOL d         -22.769   1.029 -29.083  0.00  0.00     0.086 H 
ENDROOT
BRANCH   6  17
ATOM     17  S11 MOL d         -21.141   0.947 -22.942  0.00  0.00     0.138 S 
ATOM     18  O14 MOL d         -19.878   1.014 -22.172  0.00  0.00    -0.591 OA
ATOM     19  O12 MOL d         -22.249   0.385 -22.124  0.00  0.00    -0.591 OA
ATOM     20  O13 MOL d         -21.526   2.331 -23.325  0.00  0.00    -0.591 OA
ENDBRANCH   6  17
BRANCH  10  21
ATOM     21  N15 MOL d         -21.442  -1.200 -28.905  0.00  0.00    -0.398 N 
ATOM     22  H7  MOL d         -20.771  -0.947 -29.644  0.00  0.00     0.156 HD
ATOM     23  H8  MOL d         -21.951  -2.093 -28.956  0.00  0.00     0.156 HD
ENDBRANCH  10  21
TORSDOF 2
ENDMDL
MODEL 7
REMARK VINA RESULT:      -4.7      1.703      2.553
REMARK  2 active torsions:
REMARK  status: ('A' for Active; 'I' for Inactive)
REMARK    1  A    between atoms: C6_6  and  S11_10 
REMARK    2  A    between atoms: C7_14  and  N15_15 
ROOT
ATOM      1  C1  MOL d         -20.599   0.253 -23.180  0.00  0.00    -0.059 A 
ATOM      2  C2  MOL d         -19.807   1.230 -23.781  0.00  0.00    -0.081 A 
ATOM      3  C3  MOL d         -19.847   1.392 -25.164  0.00  0.00    -0.070 A 
ATOM      4  C4  MOL d         -20.682   0.585 -25.952  0.00  0.00     0.002 A 
ATOM      5  C5  MOL d         -21.486  -0.404 -25.344  0.00  0.00     0.001 A 
ATOM      6  C6  MOL d         -21.447  -0.565 -23.944  0.00  0.00     0.091 A 
ATOM      7  C9  MOL d         -22.344  -1.013 -27.539  0.00  0.00    -0.080 A 
ATOM      8  C10 MOL d         -22.313  -1.195 -26.157  0.00  0.00    -0.070 A 
ATOM      9  C8  MOL d         -21.541  -0.037 -28.130  0.00  0.00    -0.057 A 
ATOM     10  C7  MOL d         -20.709   0.764 -27.345  0.00  0.00     0.036 A 
ATOM     11  H1  MOL d         -20.561   0.123 -22.105  0.00  0.00     0.086 H 
ATOM     12  H2  MOL d         -19.163   1.859 -23.177  0.00  0.00     0.083 H 
ATOM     13  H3  MOL d         -19.230   2.148 -25.635  0.00  0.00     0.084 H 
ATOM     14  H4  MOL d         -22.992  -1.629 -28.153  0.00  0.00     0.083 H 
ATOM     15  H5  MOL d         -22.936  -1.958 -25.704  0.00  0.00     0.084 H 
ATOM     16  H6  MOL d         -21.563   0.099 -29.206  0.00  0.00     0.086 H 
ENDROOT
BRANCH   6  17
ATOM     17  S11 MOL d         -22.327  -1.669 -23.151  0.00  0.00     0.138 S 
ATOM     18  O14 MOL d         -23.636  -1.803 -23.831  0.00  0.00    -0.591 OA
ATOM     19  O12 MOL d         -22.487  -1.221 -21.742  0.00  0.00    -0.591 OA
ATOM     20  O13 MOL d         -21.679  -3.006 -23.125  0.00  0.00    -0.591 OA
ENDBRANCH   6  17
BRANCH  10  21
ATOM     21  N15 MOL d         -19.938   1.706 -27.964  0.00  0.00    -0.398 N 
ATOM     22  H7  MOL d         -20.371   2.565 -28.331  0.00  0.00     0.156 HD
ATOM     23  H8  MOL d         -18.925   1.556 -28.066  0.00  0.00     0.156 HD
ENDBRANCH  10  21
TORSDOF 2
ENDMDL
