MODEL 1
REMARK VINA RESULT:      -5.8      0.000      0.000
REMARK  5 active torsions:
REMARK  status: ('A' for Active; 'I' for Inactive)
REMARK    1  A    between atoms: C2_3  and  O1_2 
REMARK    2  A    between atoms: C4_7  and  O2_4 
REMARK    3  A    between atoms: C12_18  and  O5_10 
REMARK    4  A    between atoms: C13_19  and  O6_12 
REMARK    5  A    between atoms: C10_16  and  C9_15 
ROOT
ATOM      1  C1  LU2 d          20.627  40.650  41.479  0.00  0.00    -0.017 A 
ATOM      2  C2  LU2 d          21.135  40.960  42.717  0.00  0.00     0.071 A 
ATOM      3  C3  LU2 d          22.047  42.009  42.866  0.00  0.00    -0.018 A 
ATOM      4  O3  LU2 d          23.152  44.005  39.387  0.00  0.00    -0.287 OA
ATOM      5  C4  LU2 d          22.434  42.744  41.761  0.00  0.00     0.085 A 
ATOM      6  O4  LU2 d          20.502  41.032  39.215  0.00  0.00    -0.309 OA
ATOM      7  C5  LU2 d          21.921  42.431  40.498  0.00  0.00     0.081 A 
ATOM      8  C6  LU2 d          21.038  41.387  40.383  0.00  0.00     0.095 A 
ATOM      9  C7  LU2 d          22.298  43.118  39.368  0.00  0.00     0.190 A 
ATOM     10  C8  LU2 d          21.812  42.692  38.156  0.00  0.00    -0.000 A 
ATOM     11  C9  LU2 d          20.881  41.680  38.114  0.00  0.00     0.090 A 
ATOM     12  H1  LU2 d          19.916  39.840  41.363  0.00  0.00     0.092 H 
ATOM     13  H4  LU2 d          22.449  42.246  43.845  0.00  0.00     0.092 H 
ATOM     14  H7  LU2 d          22.162  43.152  37.232  0.00  0.00     0.094 H 
ENDROOT
BRANCH  11  15
ATOM     15  C10 LU2 d          20.354  41.237  36.945  0.00  0.00     0.001 A 
ATOM     16  C11 LU2 d          20.869  41.626  35.681  0.00  0.00    -0.036 A 
ATOM     17  C12 LU2 d          20.300  41.180  34.499  0.00  0.00     0.099 A 
ATOM     18  H8  LU2 d          21.727  42.287  35.641  0.00  0.00     0.089 H 
ATOM     19  C13 LU2 d          19.216  40.336  34.716  0.00  0.00     0.098 A 
ATOM     20  C14 LU2 d          18.698  39.944  35.939  0.00  0.00    -0.047 A 
ATOM     21  C15 LU2 d          19.266  40.399  37.079  0.00  0.00    -0.068 A 
ATOM     22  H9  LU2 d          17.843  39.279  35.983  0.00  0.00     0.087 H 
ATOM     23  H10 LU2 d          18.885  40.118  38.053  0.00  0.00     0.085 H 
BRANCH  17  24
ATOM     24  O5  LU2 d          20.709  41.525  33.162  0.00  0.00    -0.358 OA
ATOM     25  H5  LU2 d          19.995  41.351  32.559  0.00  0.00     0.217 HD
ENDBRANCH  17  24
BRANCH  19  26
ATOM     26  O6  LU2 d          18.604  39.850  33.655  0.00  0.00    -0.358 OA
ATOM     27  H6  LU2 d          17.754  40.264  33.564  0.00  0.00     0.217 HD
ENDBRANCH  19  26
ENDBRANCH  11  15
BRANCH   2  28
ATOM     28  O1  LU2 d          20.774  40.225  43.758  0.00  0.00    -0.361 OA
ATOM     29  H2  LU2 d          20.406  40.788  44.430  0.00  0.00     0.217 HD
ENDBRANCH   2  28
BRANCH   5  30
ATOM     30  O2  LU2 d          23.300  43.747  41.933  0.00  0.00    -0.360 OA
ATOM     31  H3  LU2 d          23.332  44.276  41.144  0.00  0.00     0.217 HD
ENDBRANCH   5  30
TORSDOF 5
ENDMDL
MODEL 2
REMARK VINA RESULT:      -4.0      2.011      3.735
REMARK  5 active torsions:
REMARK  status: ('A' for Active; 'I' for Inactive)
REMARK    1  A    between atoms: C2_3  and  O1_2 
REMARK    2  A    between atoms: C4_7  and  O2_4 
REMARK    3  A    between atoms: C12_18  and  O5_10 
REMARK    4  A    between atoms: C13_19  and  O6_12 
REMARK    5  A    between atoms: C10_16  and  C9_15 
ROOT
ATOM      1  C1  LU2 d          22.614  43.937  41.514  0.00  0.00    -0.017 A 
ATOM      2  C2  LU2 d          22.226  43.694  42.808  0.00  0.00     0.071 A 
ATOM      3  C3  LU2 d          21.292  42.694  43.092  0.00  0.00    -0.018 A 
ATOM      4  O3  LU2 d          19.750  40.628  39.826  0.00  0.00    -0.287 OA
ATOM      5  C4  LU2 d          20.763  41.939  42.061  0.00  0.00     0.085 A 
ATOM      6  O4  LU2 d          22.488  43.470  39.266  0.00  0.00    -0.309 OA
ATOM      7  C5  LU2 d          21.153  42.183  40.742  0.00  0.00     0.081 A 
ATOM      8  C6  LU2 d          22.062  43.181  40.496  0.00  0.00     0.095 A 
ATOM      9  C7  LU2 d          20.634  41.474  39.684  0.00  0.00     0.190 A 
ATOM     10  C8  LU2 d          21.008  41.835  38.413  0.00  0.00    -0.000 A 
ATOM     11  C9  LU2 d          21.970  42.802  38.236  0.00  0.00     0.090 A 
ATOM     12  H1  LU2 d          23.343  44.710  41.293  0.00  0.00     0.092 H 
ATOM     13  H4  LU2 d          20.984  42.510  44.115  0.00  0.00     0.092 H 
ATOM     14  H7  LU2 d          20.545  41.359  37.549  0.00  0.00     0.094 H 
ENDROOT
BRANCH  11  15
ATOM     15  C10 LU2 d          22.391  43.179  37.003  0.00  0.00     0.001 A 
ATOM     16  C11 LU2 d          21.858  42.620  35.812  0.00  0.00    -0.036 A 
ATOM     17  C12 LU2 d          22.320  43.003  34.562  0.00  0.00     0.099 A 
ATOM     18  H8  LU2 d          21.073  41.876  35.882  0.00  0.00     0.089 H 
ATOM     19  C13 LU2 d          23.319  43.967  34.638  0.00  0.00     0.098 A 
ATOM     20  C14 LU2 d          23.853  44.525  35.787  0.00  0.00    -0.047 A 
ATOM     21  C15 LU2 d          23.390  44.129  36.995  0.00  0.00    -0.068 A 
ATOM     22  H9  LU2 d          24.634  45.273  35.720  0.00  0.00     0.087 H 
ATOM     23  H10 LU2 d          23.788  44.540  37.915  0.00  0.00     0.085 H 
BRANCH  17  24
ATOM     24  O5  LU2 d          21.885  42.490  33.289  0.00  0.00    -0.358 OA
ATOM     25  H5  LU2 d          20.936  42.433  33.280  0.00  0.00     0.217 HD
ENDBRANCH  17  24
BRANCH  19  26
ATOM     26  O6  LU2 d          23.825  44.406  33.502  0.00  0.00    -0.358 OA
ATOM     27  H6  LU2 d          24.589  44.941  33.683  0.00  0.00     0.217 HD
ENDBRANCH  19  26
ENDBRANCH  11  15
BRANCH   2  28
ATOM     28  O1  LU2 d          22.723  44.449  43.777  0.00  0.00    -0.361 OA
ATOM     29  H2  LU2 d          23.370  45.043  43.415  0.00  0.00     0.217 HD
ENDBRANCH   2  28
BRANCH   5  30
ATOM     30  O2  LU2 d          19.878  40.982  42.361  0.00  0.00    -0.360 OA
ATOM     31  H3  LU2 d          20.285  40.130  42.254  0.00  0.00     0.217 HD
ENDBRANCH   5  30
TORSDOF 5
ENDMDL
