MODEL 1
REMARK VINA RESULT:      -5.8      0.000      0.000
REMARK  2 active torsions:
REMARK  status: ('A' for Active; 'I' for Inactive)
REMARK    1  A    between atoms: C4_4  and  S_7 
REMARK    2  A    between atoms: S_7  and  N2_8 
ROOT
ATOM      1  C1  FBV d          14.903   6.823  15.450  0.00  0.00    -0.080 A 
ATOM      2  C2  FBV d          14.303   5.836  16.227  0.00  0.00    -0.081 A 
ATOM      3  C3  FBV d          14.843   4.543  16.329  0.00  0.00    -0.057 A 
ATOM      4  C4  FBV d          16.015   4.219  15.586  0.00  0.00     0.117 A 
ATOM      5  C5  FBV d          16.569   5.300  14.819  0.00  0.00     0.139 A 
ATOM      6  C6  FBV d          16.042   6.559  14.749  0.00  0.00    -0.044 A 
ATOM      7  F   FBV d          17.717   5.008  14.169  0.00  0.00    -0.204 F 
ATOM      8  H1  FBV d          14.461   7.811  15.403  0.00  0.00     0.083 H 
ATOM      9  H2  FBV d          13.394   6.072  16.768  0.00  0.00     0.083 H 
ATOM     10  H3  FBV d          14.373   3.801  16.965  0.00  0.00     0.086 H 
ATOM     11  H4  FBV d          16.517   7.329  14.151  0.00  0.00     0.088 H 
ENDROOT
BRANCH   4  12
ATOM     12  S   FBV d          16.754   2.624  15.650  0.00  0.00     0.259 S 
ATOM     13  O1  FBV d          18.111   2.862  16.177  0.00  0.00    -0.201 OA
ATOM     14  O2  FBV d          15.840   1.838  16.405  0.00  0.00    -0.201 OA
BRANCH  12  15
ATOM     15  N2  FBV d          16.819   2.061  14.151  0.00  0.00    -0.324 N 
ATOM     16  H5  FBV d          17.639   1.587  13.830  0.00  0.00     0.169 HD
ATOM     17  H6  FBV d          16.039   2.183  13.537  0.00  0.00     0.169 HD
ENDBRANCH  12  15
ENDBRANCH   4  12
TORSDOF 2
ENDMDL
MODEL 2
REMARK VINA RESULT:      -5.7      1.695      2.254
REMARK  2 active torsions:
REMARK  status: ('A' for Active; 'I' for Inactive)
REMARK    1  A    between atoms: C4_4  and  S_7 
REMARK    2  A    between atoms: S_7  and  N2_8 
ROOT
ATOM      1  C1  FBV d          14.008   5.906  16.711  0.00  0.00    -0.080 A 
ATOM      2  C2  FBV d          14.696   6.119  15.521  0.00  0.00    -0.081 A 
ATOM      3  C3  FBV d          15.657   5.209  15.046  0.00  0.00    -0.057 A 
ATOM      4  C4  FBV d          15.965   4.057  15.826  0.00  0.00     0.117 A 
ATOM      5  C5  FBV d          15.202   3.915  17.034  0.00  0.00     0.139 A 
ATOM      6  C6  FBV d          14.255   4.799  17.469  0.00  0.00    -0.044 A 
ATOM      7  F   FBV d          15.449   2.786  17.736  0.00  0.00    -0.204 F 
ATOM      8  H1  FBV d          13.269   6.627  17.040  0.00  0.00     0.083 H 
ATOM      9  H2  FBV d          14.485   7.011  14.943  0.00  0.00     0.083 H 
ATOM     10  H3  FBV d          16.157   5.382  14.101  0.00  0.00     0.086 H 
ATOM     11  H4  FBV d          13.713   4.626  18.392  0.00  0.00     0.088 H 
ENDROOT
BRANCH   4  12
ATOM     12  S   FBV d          17.157   2.870  15.312  0.00  0.00     0.259 S 
ATOM     13  O1  FBV d          18.316   3.095  16.196  0.00  0.00    -0.201 OA
ATOM     14  O2  FBV d          16.468   1.626  15.368  0.00  0.00    -0.201 OA
BRANCH  12  15
ATOM     15  N2  FBV d          17.535   3.192  13.788  0.00  0.00    -0.324 N 
ATOM     16  H5  FBV d          16.813   3.288  13.104  0.00  0.00     0.169 HD
ATOM     17  H6  FBV d          18.493   3.298  13.522  0.00  0.00     0.169 HD
ENDBRANCH  12  15
ENDBRANCH   4  12
TORSDOF 2
ENDMDL
MODEL 3
REMARK VINA RESULT:      -5.7      2.304      3.144
REMARK  2 active torsions:
REMARK  status: ('A' for Active; 'I' for Inactive)
REMARK    1  A    between atoms: C4_4  and  S_7 
REMARK    2  A    between atoms: S_7  and  N2_8 
ROOT
ATOM      1  C1  FBV d          14.238   3.065  17.220  0.00  0.00    -0.080 A 
ATOM      2  C2  FBV d          14.068   4.323  16.652  0.00  0.00    -0.081 A 
ATOM      3  C3  FBV d          15.058   4.915  15.849  0.00  0.00    -0.057 A 
ATOM      4  C4  FBV d          16.288   4.225  15.644  0.00  0.00     0.117 A 
ATOM      5  C5  FBV d          16.373   2.931  16.261  0.00  0.00     0.139 A 
ATOM      6  C6  FBV d          15.389   2.362  17.021  0.00  0.00    -0.044 A 
ATOM      7  F   FBV d          17.514   2.252  16.009  0.00  0.00    -0.204 F 
ATOM      8  H1  FBV d          13.448   2.639  17.827  0.00  0.00     0.083 H 
ATOM      9  H2  FBV d          13.145   4.863  16.833  0.00  0.00     0.083 H 
ATOM     10  H3  FBV d          14.889   5.883  15.392  0.00  0.00     0.086 H 
ATOM     11  H4  FBV d          15.521   1.377  17.455  0.00  0.00     0.088 H 
ENDROOT
BRANCH   4  12
ATOM     12  S   FBV d          17.584   4.892  14.659  0.00  0.00     0.259 S 
ATOM     13  O1  FBV d          17.076   6.202  14.209  0.00  0.00    -0.201 OA
ATOM     14  O2  FBV d          18.732   4.840  15.498  0.00  0.00    -0.201 OA
BRANCH  12  15
ATOM     15  N2  FBV d          17.799   3.909  13.412  0.00  0.00    -0.324 N 
ATOM     16  H5  FBV d          18.696   3.497  13.249  0.00  0.00     0.169 HD
ATOM     17  H6  FBV d          17.037   3.707  12.797  0.00  0.00     0.169 HD
ENDBRANCH  12  15
ENDBRANCH   4  12
TORSDOF 2
ENDMDL
MODEL 4
REMARK VINA RESULT:      -5.7      1.748      2.032
REMARK  2 active torsions:
REMARK  status: ('A' for Active; 'I' for Inactive)
REMARK    1  A    between atoms: C4_4  and  S_7 
REMARK    2  A    between atoms: S_7  and  N2_8 
ROOT
ATOM      1  C1  FBV d          16.767   6.848  14.358  0.00  0.00    -0.080 A 
ATOM      2  C2  FBV d          15.421   6.565  14.572  0.00  0.00    -0.081 A 
ATOM      3  C3  FBV d          15.004   5.387  15.215  0.00  0.00    -0.057 A 
ATOM      4  C4  FBV d          15.984   4.436  15.624  0.00  0.00     0.117 A 
ATOM      5  C5  FBV d          17.346   4.815  15.369  0.00  0.00     0.139 A 
ATOM      6  C6  FBV d          17.733   5.976  14.762  0.00  0.00    -0.044 A 
ATOM      7  F   FBV d          18.274   3.941  15.819  0.00  0.00    -0.204 F 
ATOM      8  H1  FBV d          17.048   7.771  13.865  0.00  0.00     0.083 H 
ATOM      9  H2  FBV d          14.673   7.273  14.233  0.00  0.00     0.083 H 
ATOM     10  H3  FBV d          13.952   5.204  15.398  0.00  0.00     0.086 H 
ATOM     11  H4  FBV d          18.783   6.199  14.605  0.00  0.00     0.088 H 
ENDROOT
BRANCH   4  12
ATOM     12  S   FBV d          15.552   2.934  16.430  0.00  0.00     0.259 S 
ATOM     13  O1  FBV d          16.047   1.872  15.534  0.00  0.00    -0.201 OA
ATOM     14  O2  FBV d          16.104   3.059  17.735  0.00  0.00    -0.201 OA
BRANCH  12  15
ATOM     15  N2  FBV d          13.954   2.885  16.538  0.00  0.00    -0.324 N 
ATOM     16  H5  FBV d          13.465   2.034  16.343  0.00  0.00     0.169 HD
ATOM     17  H6  FBV d          13.445   3.705  16.799  0.00  0.00     0.169 HD
ENDBRANCH  12  15
ENDBRANCH   4  12
TORSDOF 2
ENDMDL
MODEL 5
REMARK VINA RESULT:      -5.6      1.535      2.109
REMARK  2 active torsions:
REMARK  status: ('A' for Active; 'I' for Inactive)
REMARK    1  A    between atoms: C4_4  and  S_7 
REMARK    2  A    between atoms: S_7  and  N2_8 
ROOT
ATOM      1  C1  FBV d          15.616   7.214  14.231  0.00  0.00    -0.080 A 
ATOM      2  C2  FBV d          16.972   6.902  14.269  0.00  0.00    -0.081 A 
ATOM      3  C3  FBV d          17.439   5.693  14.811  0.00  0.00    -0.057 A 
ATOM      4  C4  FBV d          16.504   4.778  15.376  0.00  0.00     0.117 A 
ATOM      5  C5  FBV d          15.128   5.180  15.287  0.00  0.00     0.139 A 
ATOM      6  C6  FBV d          14.690   6.351  14.735  0.00  0.00    -0.044 A 
ATOM      7  F   FBV d          14.239   4.280  15.764  0.00  0.00    -0.204 F 
ATOM      8  H1  FBV d          15.295   8.154  13.797  0.00  0.00     0.083 H 
ATOM      9  H2  FBV d          17.687   7.611  13.867  0.00  0.00     0.083 H 
ATOM     10  H3  FBV d          18.498   5.459  14.801  0.00  0.00     0.086 H 
ATOM     11  H4  FBV d          13.632   6.588  14.698  0.00  0.00     0.088 H 
ENDROOT
BRANCH   4  12
ATOM     12  S   FBV d          17.001   3.246  16.082  0.00  0.00     0.259 S 
ATOM     13  O1  FBV d          18.467   3.351  16.211  0.00  0.00    -0.201 OA
ATOM     14  O2  FBV d          16.205   3.119  17.255  0.00  0.00    -0.201 OA
BRANCH  12  15
ATOM     15  N2  FBV d          16.604   2.087  15.049  0.00  0.00    -0.324 N 
ATOM     16  H5  FBV d          16.729   1.127  15.303  0.00  0.00     0.169 HD
ATOM     17  H6  FBV d          16.232   2.322  14.152  0.00  0.00     0.169 HD
ENDBRANCH  12  15
ENDBRANCH   4  12
TORSDOF 2
ENDMDL
MODEL 6
REMARK VINA RESULT:      -5.4      2.635      3.450
REMARK  2 active torsions:
REMARK  status: ('A' for Active; 'I' for Inactive)
REMARK    1  A    between atoms: C4_4  and  S_7 
REMARK    2  A    between atoms: S_7  and  N2_8 
ROOT
ATOM      1  C1  FBV d          14.332   2.771  17.362  0.00  0.00    -0.080 A 
ATOM      2  C2  FBV d          15.469   2.168  16.832  0.00  0.00    -0.081 A 
ATOM      3  C3  FBV d          16.293   2.827  15.904  0.00  0.00    -0.057 A 
ATOM      4  C4  FBV d          15.934   4.134  15.463  0.00  0.00     0.117 A 
ATOM      5  C5  FBV d          14.751   4.679  16.068  0.00  0.00     0.139 A 
ATOM      6  C6  FBV d          13.973   4.031  16.987  0.00  0.00    -0.044 A 
ATOM      7  F   FBV d          14.452   5.944  15.698  0.00  0.00    -0.204 F 
ATOM      8  H1  FBV d          13.726   2.232  18.081  0.00  0.00     0.083 H 
ATOM      9  H2  FBV d          15.725   1.162  17.143  0.00  0.00     0.083 H 
ATOM     10  H3  FBV d          17.190   2.348  15.529  0.00  0.00     0.086 H 
ATOM     11  H4  FBV d          13.094   4.507  17.406  0.00  0.00     0.088 H 
ENDROOT
BRANCH   4  12
ATOM     12  S   FBV d          16.904   5.030  14.301  0.00  0.00     0.259 S 
ATOM     13  O1  FBV d          15.957   5.410  13.236  0.00  0.00    -0.201 OA
ATOM     14  O2  FBV d          17.533   6.048  15.071  0.00  0.00    -0.201 OA
BRANCH  12  15
ATOM     15  N2  FBV d          18.023   4.033  13.735  0.00  0.00    -0.324 N 
ATOM     16  H5  FBV d          18.339   3.266  14.294  0.00  0.00     0.169 HD
ATOM     17  H6  FBV d          18.406   4.176  12.822  0.00  0.00     0.169 HD
ENDBRANCH  12  15
ENDBRANCH   4  12
TORSDOF 2
ENDMDL
MODEL 7
REMARK VINA RESULT:      -5.2      2.995      3.592
REMARK  2 active torsions:
REMARK  status: ('A' for Active; 'I' for Inactive)
REMARK    1  A    between atoms: C4_4  and  S_7 
REMARK    2  A    between atoms: S_7  and  N2_8 
ROOT
ATOM      1  C1  FBV d          14.965   2.383  17.349  0.00  0.00    -0.080 A 
ATOM      2  C2  FBV d          14.166   3.521  17.400  0.00  0.00    -0.081 A 
ATOM      3  C3  FBV d          14.398   4.627  16.565  0.00  0.00    -0.057 A 
ATOM      4  C4  FBV d          15.507   4.601  15.671  0.00  0.00     0.117 A 
ATOM      5  C5  FBV d          16.272   3.386  15.682  0.00  0.00     0.139 A 
ATOM      6  C6  FBV d          16.017   2.310  16.486  0.00  0.00    -0.044 A 
ATOM      7  F   FBV d          17.282   3.339  14.785  0.00  0.00    -0.204 F 
ATOM      8  H1  FBV d          14.749   1.546  18.004  0.00  0.00     0.083 H 
ATOM      9  H2  FBV d          13.341   3.554  18.102  0.00  0.00     0.083 H 
ATOM     10  H3  FBV d          13.742   5.490  16.602  0.00  0.00     0.086 H 
ATOM     11  H4  FBV d          16.636   1.420  16.438  0.00  0.00     0.088 H 
ENDROOT
BRANCH   4  12
ATOM     12  S   FBV d          15.875   5.944  14.596  0.00  0.00     0.259 S 
ATOM     13  O1  FBV d          15.715   5.391  13.237  0.00  0.00    -0.201 OA
ATOM     14  O2  FBV d          15.015   6.992  15.027  0.00  0.00    -0.201 OA
BRANCH  12  15
ATOM     15  N2  FBV d          17.397   6.371  14.859  0.00  0.00    -0.324 N 
ATOM     16  H5  FBV d          18.132   5.706  14.730  0.00  0.00     0.169 HD
ATOM     17  H6  FBV d          17.612   7.302  15.153  0.00  0.00     0.169 HD
ENDBRANCH  12  15
ENDBRANCH   4  12
TORSDOF 2
ENDMDL
MODEL 8
REMARK VINA RESULT:      -4.4      3.420      4.121
REMARK  2 active torsions:
REMARK  status: ('A' for Active; 'I' for Inactive)
REMARK    1  A    between atoms: C4_4  and  S_7 
REMARK    2  A    between atoms: S_7  and  N2_8 
ROOT
ATOM      1  C1  FBV d          16.114   2.409  16.491  0.00  0.00    -0.080 A 
ATOM      2  C2  FBV d          17.257   2.818  15.811  0.00  0.00    -0.081 A 
ATOM      3  C3  FBV d          17.348   4.081  15.204  0.00  0.00    -0.057 A 
ATOM      4  C4  FBV d          16.223   4.955  15.250  0.00  0.00     0.117 A 
ATOM      5  C5  FBV d          15.090   4.454  15.978  0.00  0.00     0.139 A 
ATOM      6  C6  FBV d          15.029   3.229  16.582  0.00  0.00    -0.044 A 
ATOM      7  F   FBV d          14.051   5.312  16.076  0.00  0.00    -0.204 F 
ATOM      8  H1  FBV d          16.086   1.430  16.953  0.00  0.00     0.083 H 
ATOM      9  H2  FBV d          18.103   2.141  15.748  0.00  0.00     0.083 H 
ATOM     10  H3  FBV d          18.261   4.388  14.706  0.00  0.00     0.086 H 
ATOM     11  H4  FBV d          14.140   2.918  17.119  0.00  0.00     0.088 H 
ENDROOT
BRANCH   4  12
ATOM     12  S   FBV d          16.245   6.552  14.512  0.00  0.00     0.259 S 
ATOM     13  O1  FBV d          15.523   6.385  13.237  0.00  0.00    -0.201 OA
ATOM     14  O2  FBV d          15.709   7.413  15.510  0.00  0.00    -0.201 OA
BRANCH  12  15
ATOM     15  N2  FBV d          17.778   6.941  14.249  0.00  0.00    -0.324 N 
ATOM     16  H5  FBV d          18.333   6.390  13.627  0.00  0.00     0.169 HD
ATOM     17  H6  FBV d          18.178   7.734  14.708  0.00  0.00     0.169 HD
ENDBRANCH  12  15
ENDBRANCH   4  12
TORSDOF 2
ENDMDL
MODEL 9
REMARK VINA RESULT:      -3.9      3.292      3.818
REMARK  2 active torsions:
REMARK  status: ('A' for Active; 'I' for Inactive)
REMARK    1  A    between atoms: C4_4  and  S_7 
REMARK    2  A    between atoms: S_7  and  N2_8 
ROOT
ATOM      1  C1  FBV d          16.646   2.179  15.491  0.00  0.00    -0.080 A 
ATOM      2  C2  FBV d          15.763   2.888  16.299  0.00  0.00    -0.081 A 
ATOM      3  C3  FBV d          15.506   4.255  16.095  0.00  0.00    -0.057 A 
ATOM      4  C4  FBV d          16.199   4.944  15.058  0.00  0.00     0.117 A 
ATOM      5  C5  FBV d          17.084   4.131  14.271  0.00  0.00     0.139 A 
ATOM      6  C6  FBV d          17.304   2.797  14.470  0.00  0.00    -0.044 A 
ATOM      7  F   FBV d          17.688   4.774  13.246  0.00  0.00    -0.204 F 
ATOM      8  H1  FBV d          16.811   1.124  15.675  0.00  0.00     0.083 H 
ATOM      9  H2  FBV d          15.258   2.372  17.108  0.00  0.00     0.083 H 
ATOM     10  H3  FBV d          14.790   4.778  16.719  0.00  0.00     0.086 H 
ATOM     11  H4  FBV d          17.985   2.244  13.833  0.00  0.00     0.088 H 
ENDROOT
BRANCH   4  12
ATOM     12  S   FBV d          15.943   6.654  14.737  0.00  0.00     0.259 S 
ATOM     13  O1  FBV d          17.269   7.273  14.925  0.00  0.00    -0.201 OA
ATOM     14  O2  FBV d          15.335   6.688  13.451  0.00  0.00    -0.201 OA
BRANCH  12  15
ATOM     15  N2  FBV d          14.902   7.201  15.825  0.00  0.00    -0.324 N 
ATOM     16  H5  FBV d          15.217   7.799  16.562  0.00  0.00     0.169 HD
ATOM     17  H6  FBV d          13.938   6.943  15.769  0.00  0.00     0.169 HD
ENDBRANCH  12  15
ENDBRANCH   4  12
TORSDOF 2
ENDMDL
MODEL 10
REMARK VINA RESULT:      -3.7      3.490      4.206
REMARK  2 active torsions:
REMARK  status: ('A' for Active; 'I' for Inactive)
REMARK    1  A    between atoms: C4_4  and  S_7 
REMARK    2  A    between atoms: S_7  and  N2_8 
ROOT
ATOM      1  C1  FBV d          16.599   2.208  16.036  0.00  0.00    -0.080 A 
ATOM      2  C2  FBV d          17.304   2.719  14.951  0.00  0.00    -0.081 A 
ATOM      3  C3  FBV d          17.063   4.011  14.453  0.00  0.00    -0.057 A 
ATOM      4  C4  FBV d          16.041   4.805  15.049  0.00  0.00     0.117 A 
ATOM      5  C5  FBV d          15.372   4.200  16.166  0.00  0.00     0.139 A 
ATOM      6  C6  FBV d          15.635   2.950  16.651  0.00  0.00    -0.044 A 
ATOM      7  F   FBV d          14.450   4.983  16.771  0.00  0.00    -0.204 F 
ATOM      8  H1  FBV d          16.819   1.210  16.396  0.00  0.00     0.083 H 
ATOM      9  H2  FBV d          18.060   2.104  14.476  0.00  0.00     0.083 H 
ATOM     10  H3  FBV d          17.647   4.398  13.625  0.00  0.00     0.086 H 
ATOM     11  H4  FBV d          15.091   2.557  17.503  0.00  0.00     0.088 H 
ENDROOT
BRANCH   4  12
ATOM     12  S   FBV d          15.669   6.430  14.486  0.00  0.00     0.259 S 
ATOM     13  O1  FBV d          16.692   6.715  13.462  0.00  0.00    -0.201 OA
ATOM     14  O2  FBV d          14.300   6.369  14.105  0.00  0.00    -0.201 OA
BRANCH  12  15
ATOM     15  N2  FBV d          15.824   7.422  15.735  0.00  0.00    -0.324 N 
ATOM     16  H5  FBV d          15.601   8.391  15.634  0.00  0.00     0.169 HD
ATOM     17  H6  FBV d          16.144   7.071  16.615  0.00  0.00     0.169 HD
ENDBRANCH  12  15
ENDBRANCH   4  12
TORSDOF 2
ENDMDL
