MODEL 1
REMARK VINA RESULT:      -7.9      0.000      0.000
REMARK  17 active torsions:
REMARK  status: ('A' for Active; 'I' for Inactive)
REMARK    1  A    between atoms: C24_4  and  C22_7 
REMARK    2  A    between atoms: C22_7  and  O23_8 
REMARK    3  A    between atoms: O23_8  and  C21_9 
REMARK       I    between atoms: C21_9  and  N20_11 
REMARK    4  A    between atoms: N20_11  and  C19_12 
REMARK    5  A    between atoms: C19_12  and  C32_13 
REMARK    6  A    between atoms: C19_12  and  C17_20 
REMARK    7  A    between atoms: C32_13  and  C38_14 
REMARK    8  A    between atoms: C17_20  and  O18_21 
REMARK    9  A    between atoms: C17_20  and  C16_22 
REMARK   10  A    between atoms: C16_22  and  N11_23 
REMARK   11  A    between atoms: N11_23  and  C12_24 
REMARK   12  A    between atoms: N11_23  and  S8_29 
REMARK   13  A    between atoms: C12_24  and  C13_25 
REMARK   14  A    between atoms: C13_25  and  C14_26 
REMARK   15  A    between atoms: C13_25  and  C15_27 
REMARK   16  A    between atoms: C15_27  and  C18_28 
REMARK   17  A    between atoms: S8_29  and  C5_32 
ROOT
ATOM      1  C17 MOL d          19.091  31.887  16.215  0.00  0.00     0.067 C 
ATOM      2  H18 MOL d          19.578  31.014  16.674  0.00  0.00     0.088 H 
ENDROOT
BRANCH   1   3
ATOM      3  C19 MOL d          17.869  31.387  15.441  0.00  0.00     0.044 C 
ATOM      4  H10 MOL d          17.697  30.339  15.729  0.00  0.00     0.077 H 
BRANCH   3   5
ATOM      5  N20 MOL d          16.704  32.174  15.811  0.00  0.00    -0.329 N 
ATOM      6  C21 MOL d          16.441  33.414  15.410  0.00  0.00     0.361 C 
ATOM      7  O22 MOL d          17.106  34.067  14.623  0.00  0.00    -0.239 OA
ATOM      8  H9  MOL d          16.040  31.743  16.422  0.00  0.00     0.165 HD
BRANCH   6   9
ATOM      9  O23 MOL d          15.272  34.035  16.008  0.00  0.00    -0.302 OA
BRANCH   9  10
ATOM     10  C22 MOL d          14.983  33.822  17.391  0.00  0.00     0.049 C 
ATOM     11  H7  MOL d          13.904  33.664  17.534  0.00  0.00     0.078 H 
ATOM     12  H8  MOL d          15.536  32.947  17.765  0.00  0.00     0.078 H 
BRANCH  10  13
ATOM     13  C24 MOL d          15.431  35.076  18.122  0.00  0.00     0.034 C 
ATOM     14  N29 MOL d          16.857  35.047  18.306  0.00  0.00    -0.354 N 
ATOM     15  C27 MOL d          17.511  35.943  17.587  0.00  0.00     0.218 C 
ATOM     16  H1  MOL d          17.313  34.405  18.922  0.00  0.00     0.162 HD
ATOM     17  O28 MOL d          18.710  36.091  17.565  0.00  0.00    -0.274 OA
ATOM     18  C26 MOL d          16.553  36.798  16.797  0.00  0.00     0.011 C 
ATOM     19  C25 MOL d          15.194  36.350  17.311  0.00  0.00    -0.036 C 
ATOM     20  H5  MOL d          16.651  36.608  15.718  0.00  0.00     0.047 H 
ATOM     21  H6  MOL d          16.719  37.867  16.997  0.00  0.00     0.047 H 
ATOM     22  H3  MOL d          14.754  37.131  17.949  0.00  0.00     0.036 H 
ATOM     23  H4  MOL d          14.519  36.143  16.467  0.00  0.00     0.036 H 
ATOM     24  H2  MOL d          14.910  35.136  19.089  0.00  0.00     0.075 H 
ENDBRANCH  10  13
ENDBRANCH   9  10
ENDBRANCH   6   9
ENDBRANCH   3   5
BRANCH   3  25
ATOM     25  C32 MOL d          18.022  31.438  13.918  0.00  0.00    -0.020 C 
ATOM     26  H11 MOL d          18.999  31.879  13.671  0.00  0.00     0.043 H 
ATOM     27  H12 MOL d          17.221  32.063  13.498  0.00  0.00     0.043 H 
BRANCH  25  28
ATOM     28  C38 MOL d          17.939  30.047  13.306  0.00  0.00    -0.056 A 
ATOM     29  C37 MOL d          17.555  28.972  14.098  0.00  0.00    -0.077 A 
ATOM     30  C36 MOL d          17.469  27.693  13.550  0.00  0.00    -0.082 A 
ATOM     31  H13 MOL d          17.321  29.128  15.145  0.00  0.00     0.084 H 
ATOM     32  C35 MOL d          17.760  27.487  12.207  0.00  0.00    -0.083 A 
ATOM     33  H14 MOL d          17.174  26.857  14.173  0.00  0.00     0.083 H 
ATOM     34  C34 MOL d          18.142  28.562  11.413  0.00  0.00    -0.082 A 
ATOM     35  H15 MOL d          17.690  26.492  11.781  0.00  0.00     0.083 H 
ATOM     36  C33 MOL d          18.222  29.838  11.964  0.00  0.00    -0.077 A 
ATOM     37  H16 MOL d          18.376  28.407  10.366  0.00  0.00     0.083 H 
ATOM     38  H17 MOL d          18.508  30.676  11.339  0.00  0.00     0.084 H 
ENDBRANCH  25  28
ENDBRANCH   3  25
ENDBRANCH   1   3
BRANCH   1  39
ATOM     39  O18 MOL d          18.683  32.785  17.251  0.00  0.00    -0.392 OA
ATOM     40  H19 MOL d          18.347  32.287  17.986  0.00  0.00     0.210 HD
ENDBRANCH   1  39
BRANCH   1  41
ATOM     41  C16 MOL d          20.125  32.604  15.335  0.00  0.00     0.019 C 
ATOM     42  H20 MOL d          20.177  33.666  15.616  0.00  0.00     0.061 H 
ATOM     43  H21 MOL d          19.834  32.519  14.278  0.00  0.00     0.061 H 
BRANCH  41  44
ATOM     44  N11 MOL d          21.453  31.967  15.539  0.00  0.00    -0.204 NA
BRANCH  44  45
ATOM     45  C12 MOL d          22.221  32.618  16.625  0.00  0.00    -0.004 C 
ATOM     46  H22 MOL d          23.285  32.642  16.345  0.00  0.00     0.058 H 
ATOM     47  H23 MOL d          22.099  32.032  17.548  0.00  0.00     0.058 H 
BRANCH  45  48
ATOM     48  C13 MOL d          21.742  34.058  16.882  0.00  0.00    -0.046 C 
ATOM     49  H24 MOL d          20.726  34.148  16.470  0.00  0.00     0.041 H 
BRANCH  48  50
ATOM     50  C14 MOL d          21.671  34.443  18.360  0.00  0.00    -0.072 C 
ATOM     51  H25 MOL d          22.539  35.067  18.618  0.00  0.00     0.028 H 
ATOM     52  H26 MOL d          21.679  33.532  18.977  0.00  0.00     0.028 H 
ATOM     53  H27 MOL d          20.745  35.006  18.549  0.00  0.00     0.028 H 
ENDBRANCH  48  50
BRANCH  48  54
ATOM     54  C15 MOL d          22.658  35.029  16.129  0.00  0.00    -0.064 C 
ATOM     55  H28 MOL d          22.283  35.135  15.101  0.00  0.00     0.033 H 
ATOM     56  H29 MOL d          23.673  34.603  16.107  0.00  0.00     0.033 H 
BRANCH  54  57
ATOM     57  C18 MOL d          22.732  36.412  16.757  0.00  0.00    -0.076 C 
ATOM     58  H30 MOL d          23.485  36.410  17.560  0.00  0.00     0.027 H 
ATOM     59  H31 MOL d          21.750  36.677  17.177  0.00  0.00     0.027 H 
ATOM     60  H32 MOL d          23.015  37.149  15.991  0.00  0.00     0.027 H 
ENDBRANCH  54  57
ENDBRANCH  48  54
ENDBRANCH  45  48
ENDBRANCH  44  45
BRANCH  44  61
ATOM     61  S8  MOL d          22.315  31.734  14.176  0.00  0.00     0.243 S 
ATOM     62  O10 MOL d          23.689  31.962  14.503  0.00  0.00    -0.206 OA
ATOM     63  O9  MOL d          21.771  32.655  13.206  0.00  0.00    -0.206 OA
BRANCH  61  64
ATOM     64  C5  MOL d          22.112  30.208  13.597  0.00  0.00     0.076 A 
ATOM     65  C6  MOL d          21.272  29.345  14.303  0.00  0.00    -0.059 A 
ATOM     66  C7  MOL d          21.002  28.057  13.843  0.00  0.00    -0.052 A 
ATOM     67  H33 MOL d          20.820  29.683  15.228  0.00  0.00     0.086 H 
ATOM     68  C2  MOL d          21.573  27.587  12.678  0.00  0.00     0.074 A 
ATOM     69  H34 MOL d          20.335  27.416  14.408  0.00  0.00     0.087 H 
ATOM     70  C3  MOL d          22.431  28.416  11.953  0.00  0.00     0.036 A 
ATOM     71  N1  MOL d          21.447  26.382  12.073  0.00  0.00    -0.253 NA
ATOM     72  C4  MOL d          22.692  29.717  12.416  0.00  0.00    -0.042 A 
ATOM     73  S1  MOL d          23.083  27.717  10.533  0.00  0.00    -0.081 SA
ATOM     74  H35 MOL d          23.357  30.357  11.848  0.00  0.00     0.088 H 
ATOM     75  C1  MOL d          22.172  26.297  10.947  0.00  0.00     0.041 A 
ATOM     76  H36 MOL d          22.189  25.397  10.333  0.00  0.00     0.126 H 
ENDBRANCH  61  64
ENDBRANCH  44  61
ENDBRANCH  41  44
ENDBRANCH   1  41
TORSDOF 17
ENDMDL
MODEL 2
REMARK VINA RESULT:      -7.6      1.819      5.257
REMARK  17 active torsions:
REMARK  status: ('A' for Active; 'I' for Inactive)
REMARK    1  A    between atoms: C24_4  and  C22_7 
REMARK    2  A    between atoms: C22_7  and  O23_8 
REMARK    3  A    between atoms: O23_8  and  C21_9 
REMARK       I    between atoms: C21_9  and  N20_11 
REMARK    4  A    between atoms: N20_11  and  C19_12 
REMARK    5  A    between atoms: C19_12  and  C32_13 
REMARK    6  A    between atoms: C19_12  and  C17_20 
REMARK    7  A    between atoms: C32_13  and  C38_14 
REMARK    8  A    between atoms: C17_20  and  O18_21 
REMARK    9  A    between atoms: C17_20  and  C16_22 
REMARK   10  A    between atoms: C16_22  and  N11_23 
REMARK   11  A    between atoms: N11_23  and  C12_24 
REMARK   12  A    between atoms: N11_23  and  S8_29 
REMARK   13  A    between atoms: C12_24  and  C13_25 
REMARK   14  A    between atoms: C13_25  and  C14_26 
REMARK   15  A    between atoms: C13_25  and  C15_27 
REMARK   16  A    between atoms: C15_27  and  C18_28 
REMARK   17  A    between atoms: S8_29  and  C5_32 
ROOT
ATOM      1  C17 MOL d          19.312  30.464  15.587  0.00  0.00     0.067 C 
ATOM      2  H18 MOL d          20.024  29.642  15.424  0.00  0.00     0.088 H 
ENDROOT
BRANCH   1   3
ATOM      3  C19 MOL d          17.992  30.079  14.914  0.00  0.00     0.044 C 
ATOM      4  H10 MOL d          17.854  28.996  15.044  0.00  0.00     0.077 H 
BRANCH   3   5
ATOM      5  N20 MOL d          16.894  30.774  15.565  0.00  0.00    -0.329 N 
ATOM      6  C21 MOL d          16.406  31.961  15.216  0.00  0.00     0.361 C 
ATOM      7  O22 MOL d          16.764  32.628  14.259  0.00  0.00    -0.239 OA
ATOM      8  H9  MOL d          16.466  30.318  16.345  0.00  0.00     0.165 HD
BRANCH   6   9
ATOM      9  O23 MOL d          15.382  32.503  16.092  0.00  0.00    -0.302 OA
BRANCH   9  10
ATOM     10  C22 MOL d          15.759  33.254  17.247  0.00  0.00     0.049 C 
ATOM     11  H7  MOL d          14.877  33.741  17.687  0.00  0.00     0.078 H 
ATOM     12  H8  MOL d          16.225  32.594  17.993  0.00  0.00     0.078 H 
BRANCH  10  13
ATOM     13  C24 MOL d          16.755  34.298  16.775  0.00  0.00     0.034 C 
ATOM     14  N29 MOL d          16.309  35.607  17.172  0.00  0.00    -0.354 N 
ATOM     15  C27 MOL d          17.056  36.170  18.106  0.00  0.00     0.218 C 
ATOM     16  H1  MOL d          15.505  36.051  16.776  0.00  0.00     0.162 HD
ATOM     17  O28 MOL d          16.864  37.254  18.604  0.00  0.00    -0.274 OA
ATOM     18  C26 MOL d          18.222  35.284  18.466  0.00  0.00     0.011 C 
ATOM     19  C25 MOL d          18.122  34.160  17.447  0.00  0.00    -0.036 C 
ATOM     20  H5  MOL d          18.125  34.898  19.491  0.00  0.00     0.047 H 
ATOM     21  H6  MOL d          19.175  35.824  18.366  0.00  0.00     0.047 H 
ATOM     22  H3  MOL d          18.923  34.252  16.699  0.00  0.00     0.036 H 
ATOM     23  H4  MOL d          18.200  33.184  17.950  0.00  0.00     0.036 H 
ATOM     24  H2  MOL d          16.858  34.232  15.682  0.00  0.00     0.075 H 
ENDBRANCH  10  13
ENDBRANCH   9  10
ENDBRANCH   6   9
ENDBRANCH   3   5
BRANCH   3  25
ATOM     25  C32 MOL d          17.936  30.385  13.414  0.00  0.00    -0.020 C 
ATOM     26  H11 MOL d          18.855  30.915  13.122  0.00  0.00     0.043 H 
ATOM     27  H12 MOL d          17.064  31.023  13.211  0.00  0.00     0.043 H 
BRANCH  25  28
ATOM     28  C38 MOL d          17.819  29.109  12.593  0.00  0.00    -0.056 A 
ATOM     29  C37 MOL d          17.525  29.190  11.238  0.00  0.00    -0.077 A 
ATOM     30  C36 MOL d          17.419  28.030  10.472  0.00  0.00    -0.082 A 
ATOM     31  H13 MOL d          17.378  30.159  10.774  0.00  0.00     0.084 H 
ATOM     32  C35 MOL d          17.613  26.785  11.058  0.00  0.00    -0.083 A 
ATOM     33  H14 MOL d          17.185  28.100   9.416  0.00  0.00     0.083 H 
ATOM     34  C34 MOL d          17.909  26.702  12.414  0.00  0.00    -0.082 A 
ATOM     35  H15 MOL d          17.533  25.884  10.461  0.00  0.00     0.083 H 
ATOM     36  C33 MOL d          18.018  27.864  13.173  0.00  0.00    -0.077 A 
ATOM     37  H16 MOL d          18.056  25.734  12.879  0.00  0.00     0.083 H 
ATOM     38  H17 MOL d          18.262  27.796  14.227  0.00  0.00     0.084 H 
ENDBRANCH  25  28
ENDBRANCH   3  25
ENDBRANCH   1   3
BRANCH   1  39
ATOM     39  O18 MOL d          19.114  30.632  16.994  0.00  0.00    -0.392 OA
ATOM     40  H19 MOL d          18.475  31.317  17.143  0.00  0.00     0.210 HD
ENDBRANCH   1  39
BRANCH   1  41
ATOM     41  C16 MOL d          19.933  31.753  15.030  0.00  0.00     0.019 C 
ATOM     42  H20 MOL d          20.207  32.420  15.861  0.00  0.00     0.061 H 
ATOM     43  H21 MOL d          19.208  32.261  14.378  0.00  0.00     0.061 H 
BRANCH  41  44
ATOM     44  N11 MOL d          21.148  31.402  14.249  0.00  0.00    -0.204 NA
BRANCH  44  45
ATOM     45  C12 MOL d          21.468  29.959  14.337  0.00  0.00    -0.004 C 
ATOM     46  H22 MOL d          20.731  29.469  14.990  0.00  0.00     0.058 H 
ATOM     47  H23 MOL d          22.474  29.844  14.768  0.00  0.00     0.058 H 
BRANCH  45  48
ATOM     48  C13 MOL d          21.438  29.281  12.956  0.00  0.00    -0.046 C 
ATOM     49  H24 MOL d          20.605  28.562  12.956  0.00  0.00     0.041 H 
BRANCH  48  50
ATOM     50  C14 MOL d          21.211  30.242  11.789  0.00  0.00    -0.072 C 
ATOM     51  H25 MOL d          20.658  29.726  10.991  0.00  0.00     0.028 H 
ATOM     52  H26 MOL d          22.182  30.583  11.401  0.00  0.00     0.028 H 
ATOM     53  H27 MOL d          20.629  31.110  12.136  0.00  0.00     0.028 H 
ENDBRANCH  48  50
BRANCH  48  54
ATOM     54  C15 MOL d          22.746  28.507  12.753  0.00  0.00    -0.064 C 
ATOM     55  H28 MOL d          23.054  28.085  13.721  0.00  0.00     0.033 H 
ATOM     56  H29 MOL d          23.514  29.210  12.398  0.00  0.00     0.033 H 
BRANCH  54  57
ATOM     57  C18 MOL d          22.634  27.371  11.748  0.00  0.00    -0.076 C 
ATOM     58  H30 MOL d          22.127  27.733  10.841  0.00  0.00     0.027 H 
ATOM     59  H31 MOL d          22.054  26.547  12.188  0.00  0.00     0.027 H 
ATOM     60  H32 MOL d          23.641  27.012  11.487  0.00  0.00     0.027 H 
ENDBRANCH  54  57
ENDBRANCH  48  54
ENDBRANCH  45  48
ENDBRANCH  44  45
BRANCH  44  61
ATOM     61  S8  MOL d          22.429  32.375  14.506  0.00  0.00     0.243 S 
ATOM     62  O10 MOL d          22.643  33.116  13.301  0.00  0.00    -0.206 OA
ATOM     63  O9  MOL d          23.519  31.499  14.869  0.00  0.00    -0.206 OA
BRANCH  61  64
ATOM     64  C5  MOL d          22.158  33.397  15.765  0.00  0.00     0.076 A 
ATOM     65  C6  MOL d          22.276  32.888  17.060  0.00  0.00    -0.059 A 
ATOM     66  C7  MOL d          22.121  33.706  18.179  0.00  0.00    -0.052 A 
ATOM     67  H33 MOL d          22.493  31.836  17.199  0.00  0.00     0.086 H 
ATOM     68  C2  MOL d          21.828  35.047  18.040  0.00  0.00     0.074 A 
ATOM     69  H34 MOL d          22.232  33.282  19.170  0.00  0.00     0.087 H 
ATOM     70  C3  MOL d          21.686  35.588  16.761  0.00  0.00     0.036 A 
ATOM     71  N1  MOL d          21.634  35.996  18.986  0.00  0.00    -0.253 NA
ATOM     72  C4  MOL d          21.854  34.761  15.637  0.00  0.00    -0.042 A 
ATOM     73  S1  MOL d          21.314  37.259  16.720  0.00  0.00    -0.081 SA
ATOM     74  H35 MOL d          21.745  35.188  14.646  0.00  0.00     0.088 H 
ATOM     75  C1  MOL d          21.357  37.198  18.455  0.00  0.00     0.041 A 
ATOM     76  H36 MOL d          21.171  38.077  19.071  0.00  0.00     0.126 H 
ENDBRANCH  61  64
ENDBRANCH  44  61
ENDBRANCH  41  44
ENDBRANCH   1  41
TORSDOF 17
ENDMDL
MODEL 3
REMARK VINA RESULT:      -7.4      2.370      6.217
REMARK  17 active torsions:
REMARK  status: ('A' for Active; 'I' for Inactive)
REMARK    1  A    between atoms: C24_4  and  C22_7 
REMARK    2  A    between atoms: C22_7  and  O23_8 
REMARK    3  A    between atoms: O23_8  and  C21_9 
REMARK       I    between atoms: C21_9  and  N20_11 
REMARK    4  A    between atoms: N20_11  and  C19_12 
REMARK    5  A    between atoms: C19_12  and  C32_13 
REMARK    6  A    between atoms: C19_12  and  C17_20 
REMARK    7  A    between atoms: C32_13  and  C38_14 
REMARK    8  A    between atoms: C17_20  and  O18_21 
REMARK    9  A    between atoms: C17_20  and  C16_22 
REMARK   10  A    between atoms: C16_22  and  N11_23 
REMARK   11  A    between atoms: N11_23  and  C12_24 
REMARK   12  A    between atoms: N11_23  and  S8_29 
REMARK   13  A    between atoms: C12_24  and  C13_25 
REMARK   14  A    between atoms: C13_25  and  C14_26 
REMARK   15  A    between atoms: C13_25  and  C15_27 
REMARK   16  A    between atoms: C15_27  and  C18_28 
REMARK   17  A    between atoms: S8_29  and  C5_32 
ROOT
ATOM      1  C17 MOL d          18.801  31.846  15.416  0.00  0.00     0.067 C 
ATOM      2  H18 MOL d          19.425  30.964  15.212  0.00  0.00     0.088 H 
ENDROOT
BRANCH   1   3
ATOM      3  C19 MOL d          17.461  31.645  14.705  0.00  0.00     0.044 C 
ATOM      4  H10 MOL d          17.347  32.457  13.971  0.00  0.00     0.077 H 
BRANCH   3   5
ATOM      5  N20 MOL d          17.470  30.374  14.000  0.00  0.00    -0.329 N 
ATOM      6  C21 MOL d          18.082  30.126  12.846  0.00  0.00     0.361 C 
ATOM      7  O22 MOL d          18.782  30.909  12.225  0.00  0.00    -0.239 OA
ATOM      8  H9  MOL d          16.970  29.617  14.421  0.00  0.00     0.165 HD
BRANCH   6   9
ATOM      9  O23 MOL d          17.850  28.809  12.280  0.00  0.00    -0.302 OA
BRANCH   9  10
ATOM     10  C22 MOL d          17.744  28.652  10.864  0.00  0.00     0.049 C 
ATOM     11  H7  MOL d          17.096  29.435  10.443  0.00  0.00     0.078 H 
ATOM     12  H8  MOL d          18.739  28.710  10.400  0.00  0.00     0.078 H 
BRANCH  10  13
ATOM     13  C24 MOL d          17.133  27.282  10.627  0.00  0.00     0.034 C 
ATOM     14  N29 MOL d          17.632  26.736   9.393  0.00  0.00    -0.354 N 
ATOM     15  C27 MOL d          18.438  25.701   9.549  0.00  0.00     0.218 C 
ATOM     16  H1  MOL d          17.391  27.108   8.497  0.00  0.00     0.162 HD
ATOM     17  O28 MOL d          18.988  25.093   8.660  0.00  0.00    -0.274 OA
ATOM     18  C26 MOL d          18.571  25.340  11.007  0.00  0.00     0.011 C 
ATOM     19  C25 MOL d          17.558  26.255  11.677  0.00  0.00    -0.036 C 
ATOM     20  H5  MOL d          19.589  25.541  11.374  0.00  0.00     0.047 H 
ATOM     21  H6  MOL d          18.323  24.282  11.178  0.00  0.00     0.047 H 
ATOM     22  H3  MOL d          16.687  25.674  12.014  0.00  0.00     0.036 H 
ATOM     23  H4  MOL d          18.017  26.762  12.540  0.00  0.00     0.036 H 
ATOM     24  H2  MOL d          16.038  27.374  10.603  0.00  0.00     0.075 H 
ENDBRANCH  10  13
ENDBRANCH   9  10
ENDBRANCH   6   9
ENDBRANCH   3   5
BRANCH   3  25
ATOM     25  C32 MOL d          16.243  31.674  15.633  0.00  0.00    -0.020 C 
ATOM     26  H11 MOL d          16.463  31.078  16.531  0.00  0.00     0.043 H 
ATOM     27  H12 MOL d          15.381  31.241  15.106  0.00  0.00     0.043 H 
BRANCH  25  28
ATOM     28  C38 MOL d          15.902  33.096  16.055  0.00  0.00    -0.056 A 
ATOM     29  C37 MOL d          16.270  34.160  15.240  0.00  0.00    -0.077 A 
ATOM     30  C36 MOL d          15.960  35.467  15.611  0.00  0.00    -0.082 A 
ATOM     31  H13 MOL d          16.799  33.972  14.313  0.00  0.00     0.084 H 
ATOM     32  C35 MOL d          15.275  35.714  16.795  0.00  0.00    -0.083 A 
ATOM     33  H14 MOL d          16.253  36.293  14.975  0.00  0.00     0.083 H 
ATOM     34  C34 MOL d          14.904  34.651  17.609  0.00  0.00    -0.082 A 
ATOM     35  H15 MOL d          15.031  36.731  17.081  0.00  0.00     0.083 H 
ATOM     36  C33 MOL d          15.212  33.347  17.232  0.00  0.00    -0.077 A 
ATOM     37  H16 MOL d          14.375  34.837  18.537  0.00  0.00     0.083 H 
ATOM     38  H17 MOL d          14.910  32.520  17.864  0.00  0.00     0.084 H 
ENDBRANCH  25  28
ENDBRANCH   3  25
ENDBRANCH   1   3
BRANCH   1  39
ATOM     39  O18 MOL d          18.597  31.953  16.828  0.00  0.00    -0.392 OA
ATOM     40  H19 MOL d          19.435  32.055  17.261  0.00  0.00     0.210 HD
ENDBRANCH   1  39
BRANCH   1  41
ATOM     41  C16 MOL d          19.566  33.091  14.944  0.00  0.00     0.019 C 
ATOM     42  H20 MOL d          18.931  33.982  15.062  0.00  0.00     0.061 H 
ATOM     43  H21 MOL d          19.843  32.977  13.886  0.00  0.00     0.061 H 
BRANCH  41  44
ATOM     44  N11 MOL d          20.794  33.240  15.769  0.00  0.00    -0.204 NA
BRANCH  44  45
ATOM     45  C12 MOL d          20.963  34.624  16.271  0.00  0.00    -0.004 C 
ATOM     46  H22 MOL d          20.157  35.251  15.863  0.00  0.00     0.058 H 
ATOM     47  H23 MOL d          21.936  35.009  15.931  0.00  0.00     0.058 H 
BRANCH  45  48
ATOM     48  C13 MOL d          20.913  34.685  17.808  0.00  0.00    -0.046 C 
ATOM     49  H24 MOL d          20.645  33.683  18.172  0.00  0.00     0.041 H 
BRANCH  48  50
ATOM     50  C14 MOL d          22.238  35.071  18.465  0.00  0.00    -0.072 C 
ATOM     51  H25 MOL d          22.448  34.384  19.298  0.00  0.00     0.028 H 
ATOM     52  H26 MOL d          22.171  36.101  18.847  0.00  0.00     0.028 H 
ATOM     53  H27 MOL d          23.048  35.006  17.723  0.00  0.00     0.028 H 
ENDBRANCH  48  50
BRANCH  48  54
ATOM     54  C15 MOL d          19.811  35.664  18.230  0.00  0.00    -0.064 C 
ATOM     55  H28 MOL d          19.727  36.445  17.460  0.00  0.00     0.033 H 
ATOM     56  H29 MOL d          20.102  36.122  19.188  0.00  0.00     0.033 H 
BRANCH  54  57
ATOM     57  C18 MOL d          18.448  35.013  18.404  0.00  0.00    -0.076 C 
ATOM     58  H30 MOL d          18.555  33.920  18.353  0.00  0.00     0.027 H 
ATOM     59  H31 MOL d          17.774  35.354  17.604  0.00  0.00     0.027 H 
ATOM     60  H32 MOL d          18.029  35.295  19.382  0.00  0.00     0.027 H 
ENDBRANCH  54  57
ENDBRANCH  48  54
ENDBRANCH  45  48
ENDBRANCH  44  45
BRANCH  44  61
ATOM     61  S8  MOL d          22.144  32.616  15.103  0.00  0.00     0.243 S 
ATOM     62  O10 MOL d          23.126  32.535  16.141  0.00  0.00    -0.206 OA
ATOM     63  O9  MOL d          22.492  33.503  14.019  0.00  0.00    -0.206 OA
BRANCH  61  64
ATOM     64  C5  MOL d          21.860  31.125  14.469  0.00  0.00     0.076 A 
ATOM     65  C6  MOL d          21.248  30.171  15.284  0.00  0.00    -0.059 A 
ATOM     66  C7  MOL d          20.920  28.905  14.800  0.00  0.00    -0.052 A 
ATOM     67  H33 MOL d          21.023  30.420  16.314  0.00  0.00     0.086 H 
ATOM     68  C2  MOL d          21.207  28.548  13.498  0.00  0.00     0.074 A 
ATOM     69  H34 MOL d          20.434  28.192  15.455  0.00  0.00     0.087 H 
ATOM     70  C3  MOL d          21.834  29.471  12.658  0.00  0.00     0.036 A 
ATOM     71  N1  MOL d          20.981  27.384  12.847  0.00  0.00    -0.253 NA
ATOM     72  C4  MOL d          22.153  30.749  13.148  0.00  0.00    -0.042 A 
ATOM     73  S1  MOL d          22.145  28.908  11.071  0.00  0.00    -0.081 SA
ATOM     74  H35 MOL d          22.637  31.461  12.490  0.00  0.00     0.088 H 
ATOM     75  C1  MOL d          21.414  27.416  11.576  0.00  0.00     0.041 A 
ATOM     76  H36 MOL d          21.313  26.563  10.906  0.00  0.00     0.126 H 
ENDBRANCH  61  64
ENDBRANCH  44  61
ENDBRANCH  41  44
ENDBRANCH   1  41
TORSDOF 17
ENDMDL
MODEL 4
REMARK VINA RESULT:      -7.4      2.142      5.430
REMARK  17 active torsions:
REMARK  status: ('A' for Active; 'I' for Inactive)
REMARK    1  A    between atoms: C24_4  and  C22_7 
REMARK    2  A    between atoms: C22_7  and  O23_8 
REMARK    3  A    between atoms: O23_8  and  C21_9 
REMARK       I    between atoms: C21_9  and  N20_11 
REMARK    4  A    between atoms: N20_11  and  C19_12 
REMARK    5  A    between atoms: C19_12  and  C32_13 
REMARK    6  A    between atoms: C19_12  and  C17_20 
REMARK    7  A    between atoms: C32_13  and  C38_14 
REMARK    8  A    between atoms: C17_20  and  O18_21 
REMARK    9  A    between atoms: C17_20  and  C16_22 
REMARK   10  A    between atoms: C16_22  and  N11_23 
REMARK   11  A    between atoms: N11_23  and  C12_24 
REMARK   12  A    between atoms: N11_23  and  S8_29 
REMARK   13  A    between atoms: C12_24  and  C13_25 
REMARK   14  A    between atoms: C13_25  and  C14_26 
REMARK   15  A    between atoms: C13_25  and  C15_27 
REMARK   16  A    between atoms: C15_27  and  C18_28 
REMARK   17  A    between atoms: S8_29  and  C5_32 
ROOT
ATOM      1  C17 MOL d          19.436  30.300  16.033  0.00  0.00     0.067 C 
ATOM      2  H18 MOL d          18.517  29.810  15.680  0.00  0.00     0.088 H 
ENDROOT
BRANCH   1   3
ATOM      3  C19 MOL d          19.141  31.795  16.180  0.00  0.00     0.044 C 
ATOM      4  H10 MOL d          18.921  31.989  17.240  0.00  0.00     0.077 H 
BRANCH   3   5
ATOM      5  N20 MOL d          20.314  32.562  15.794  0.00  0.00    -0.329 N 
ATOM      6  C21 MOL d          21.451  32.645  16.478  0.00  0.00     0.361 C 
ATOM      7  O22 MOL d          21.712  32.043  17.507  0.00  0.00    -0.239 OA
ATOM      8  H9  MOL d          20.260  33.075  14.938  0.00  0.00     0.165 HD
BRANCH   6   9
ATOM      9  O23 MOL d          22.439  33.569  15.949  0.00  0.00    -0.302 OA
BRANCH   9  10
ATOM     10  C22 MOL d          22.014  34.751  15.269  0.00  0.00     0.049 C 
ATOM     11  H7  MOL d          22.623  34.911  14.367  0.00  0.00     0.078 H 
ATOM     12  H8  MOL d          20.954  34.667  14.986  0.00  0.00     0.078 H 
BRANCH  10  13
ATOM     13  C24 MOL d          22.207  35.900  16.243  0.00  0.00     0.034 C 
ATOM     14  N29 MOL d          21.029  36.725  16.259  0.00  0.00    -0.354 N 
ATOM     15  C27 MOL d          20.341  36.661  17.385  0.00  0.00     0.218 C 
ATOM     16  H1  MOL d          20.754  37.297  15.485  0.00  0.00     0.162 HD
ATOM     17  O28 MOL d          19.312  37.251  17.619  0.00  0.00    -0.274 OA
ATOM     18  C26 MOL d          21.027  35.760  18.381  0.00  0.00     0.011 C 
ATOM     19  C25 MOL d          22.342  35.431  17.692  0.00  0.00    -0.036 C 
ATOM     20  H5  MOL d          20.437  34.849  18.562  0.00  0.00     0.047 H 
ATOM     21  H6  MOL d          21.199  36.281  19.334  0.00  0.00     0.047 H 
ATOM     22  H3  MOL d          23.171  35.960  18.186  0.00  0.00     0.036 H 
ATOM     23  H4  MOL d          22.527  34.347  17.725  0.00  0.00     0.036 H 
ATOM     24  H2  MOL d          23.091  36.482  15.945  0.00  0.00     0.075 H 
ENDBRANCH  10  13
ENDBRANCH   9  10
ENDBRANCH   6   9
ENDBRANCH   3   5
BRANCH   3  25
ATOM     25  C32 MOL d          17.949  32.287  15.354  0.00  0.00    -0.020 C 
ATOM     26  H11 MOL d          17.193  31.489  15.306  0.00  0.00     0.043 H 
ATOM     27  H12 MOL d          18.292  32.529  14.338  0.00  0.00     0.043 H 
BRANCH  25  28
ATOM     28  C38 MOL d          17.321  33.527  15.972  0.00  0.00    -0.056 A 
ATOM     29  C37 MOL d          17.394  33.720  17.346  0.00  0.00    -0.077 A 
ATOM     30  C36 MOL d          16.828  34.854  17.927  0.00  0.00    -0.082 A 
ATOM     31  H13 MOL d          17.893  32.987  17.969  0.00  0.00     0.084 H 
ATOM     32  C35 MOL d          16.193  35.802  17.134  0.00  0.00    -0.083 A 
ATOM     33  H14 MOL d          16.883  34.997  18.999  0.00  0.00     0.083 H 
ATOM     34  C34 MOL d          16.121  35.612  15.759  0.00  0.00    -0.082 A 
ATOM     35  H15 MOL d          15.755  36.686  17.585  0.00  0.00     0.083 H 
ATOM     36  C33 MOL d          16.692  34.480  15.184  0.00  0.00    -0.077 A 
ATOM     37  H16 MOL d          15.621  36.345  15.135  0.00  0.00     0.083 H 
ATOM     38  H17 MOL d          16.644  34.342  14.110  0.00  0.00     0.084 H 
ENDBRANCH  25  28
ENDBRANCH   3  25
ENDBRANCH   1   3
BRANCH   1  39
ATOM     39  O18 MOL d          19.799  29.745  17.300  0.00  0.00    -0.392 OA
ATOM     40  H19 MOL d          19.822  28.798  17.235  0.00  0.00     0.210 HD
ENDBRANCH   1  39
BRANCH   1  41
ATOM     41  C16 MOL d          20.559  29.991  15.032  0.00  0.00     0.019 C 
ATOM     42  H20 MOL d          21.090  29.079  15.342  0.00  0.00     0.061 H 
ATOM     43  H21 MOL d          21.266  30.833  14.998  0.00  0.00     0.061 H 
BRANCH  41  44
ATOM     44  N11 MOL d          19.959  29.788  13.687  0.00  0.00    -0.204 NA
BRANCH  44  45
ATOM     45  C12 MOL d          19.228  28.503  13.591  0.00  0.00    -0.004 C 
ATOM     46  H22 MOL d          19.246  28.010  14.574  0.00  0.00     0.058 H 
ATOM     47  H23 MOL d          19.730  27.862  12.851  0.00  0.00     0.058 H 
BRANCH  45  48
ATOM     48  C13 MOL d          17.765  28.708  13.163  0.00  0.00    -0.046 C 
ATOM     49  H24 MOL d          17.124  28.325  13.971  0.00  0.00     0.041 H 
BRANCH  48  50
ATOM     50  C14 MOL d          17.378  30.168  12.927  0.00  0.00    -0.072 C 
ATOM     51  H25 MOL d          17.008  30.288  11.898  0.00  0.00     0.028 H 
ATOM     52  H26 MOL d          18.259  30.810  13.076  0.00  0.00     0.028 H 
ATOM     53  H27 MOL d          16.588  30.458  13.636  0.00  0.00     0.028 H 
ENDBRANCH  48  50
BRANCH  48  54
ATOM     54  C15 MOL d          17.496  27.882  11.899  0.00  0.00    -0.064 C 
ATOM     55  H28 MOL d          16.812  27.062  12.159  0.00  0.00     0.033 H 
ATOM     56  H29 MOL d          18.452  27.466  11.547  0.00  0.00     0.033 H 
BRANCH  54  57
ATOM     57  C18 MOL d          16.876  28.684  10.765  0.00  0.00    -0.076 C 
ATOM     58  H30 MOL d          17.410  28.467   9.828  0.00  0.00     0.027 H 
ATOM     59  H31 MOL d          16.953  29.758  10.991  0.00  0.00     0.027 H 
ATOM     60  H32 MOL d          15.817  28.407  10.657  0.00  0.00     0.027 H 
ENDBRANCH  54  57
ENDBRANCH  48  54
ENDBRANCH  45  48
ENDBRANCH  44  45
BRANCH  44  61
ATOM     61  S8  MOL d          20.972  30.059  12.440  0.00  0.00     0.243 S 
ATOM     62  O10 MOL d          21.970  30.975  12.901  0.00  0.00    -0.206 OA
ATOM     63  O9  MOL d          20.147  30.565  11.368  0.00  0.00    -0.206 OA
BRANCH  61  64
ATOM     64  C5  MOL d          21.673  28.663  11.926  0.00  0.00     0.076 A 
ATOM     65  C6  MOL d          22.988  28.407  12.317  0.00  0.00    -0.059 A 
ATOM     66  C7  MOL d          23.630  27.218  11.972  0.00  0.00    -0.052 A 
ATOM     67  H33 MOL d          23.522  29.148  12.901  0.00  0.00     0.086 H 
ATOM     68  C2  MOL d          22.987  26.260  11.215  0.00  0.00     0.074 A 
ATOM     69  H34 MOL d          24.648  27.045  12.303  0.00  0.00     0.087 H 
ATOM     70  C3  MOL d          21.676  26.489  10.792  0.00  0.00     0.036 A 
ATOM     71  N1  MOL d          23.431  25.060  10.774  0.00  0.00    -0.253 NA
ATOM     72  C4  MOL d          21.031  27.684  11.151  0.00  0.00    -0.042 A 
ATOM     73  S1  MOL d          20.991  25.232   9.853  0.00  0.00    -0.081 SA
ATOM     74  H35 MOL d          20.013  27.854  10.821  0.00  0.00     0.088 H 
ATOM     75  C1  MOL d          22.507  24.407  10.051  0.00  0.00     0.041 A 
ATOM     76  H36 MOL d          22.695  23.426   9.617  0.00  0.00     0.126 H 
ENDBRANCH  61  64
ENDBRANCH  44  61
ENDBRANCH  41  44
ENDBRANCH   1  41
TORSDOF 17
ENDMDL
MODEL 5
REMARK VINA RESULT:      -7.2      2.550      7.797
REMARK  17 active torsions:
REMARK  status: ('A' for Active; 'I' for Inactive)
REMARK    1  A    between atoms: C24_4  and  C22_7 
REMARK    2  A    between atoms: C22_7  and  O23_8 
REMARK    3  A    between atoms: O23_8  and  C21_9 
REMARK       I    between atoms: C21_9  and  N20_11 
REMARK    4  A    between atoms: N20_11  and  C19_12 
REMARK    5  A    between atoms: C19_12  and  C32_13 
REMARK    6  A    between atoms: C19_12  and  C17_20 
REMARK    7  A    between atoms: C32_13  and  C38_14 
REMARK    8  A    between atoms: C17_20  and  O18_21 
REMARK    9  A    between atoms: C17_20  and  C16_22 
REMARK   10  A    between atoms: C16_22  and  N11_23 
REMARK   11  A    between atoms: N11_23  and  C12_24 
REMARK   12  A    between atoms: N11_23  and  S8_29 
REMARK   13  A    between atoms: C12_24  and  C13_25 
REMARK   14  A    between atoms: C13_25  and  C14_26 
REMARK   15  A    between atoms: C13_25  and  C15_27 
REMARK   16  A    between atoms: C15_27  and  C18_28 
REMARK   17  A    between atoms: S8_29  and  C5_32 
ROOT
ATOM      1  C17 MOL d          18.917  31.202  15.113  0.00  0.00     0.067 C 
ATOM      2  H18 MOL d          19.373  30.250  14.807  0.00  0.00     0.088 H 
ENDROOT
BRANCH   1   3
ATOM      3  C19 MOL d          17.500  31.250  14.536  0.00  0.00     0.044 C 
ATOM      4  H10 MOL d          17.440  32.123  13.869  0.00  0.00     0.077 H 
BRANCH   3   5
ATOM      5  N20 MOL d          17.252  30.047  13.758  0.00  0.00    -0.329 N 
ATOM      6  C21 MOL d          17.731  29.790  12.545  0.00  0.00     0.361 C 
ATOM      7  O22 MOL d          18.503  30.496  11.917  0.00  0.00    -0.239 OA
ATOM      8  H9  MOL d          16.667  29.350  14.173  0.00  0.00     0.165 HD
BRANCH   6   9
ATOM      9  O23 MOL d          17.248  28.570  11.922  0.00  0.00    -0.302 OA
BRANCH   9  10
ATOM     10  C22 MOL d          16.645  28.624  10.628  0.00  0.00     0.049 C 
ATOM     11  H7  MOL d          15.645  28.167  10.655  0.00  0.00     0.078 H 
ATOM     12  H8  MOL d          16.563  29.667  10.290  0.00  0.00     0.078 H 
BRANCH  10  13
ATOM     13  C24 MOL d          17.555  27.841   9.697  0.00  0.00     0.034 C 
ATOM     14  N29 MOL d          18.821  27.610  10.339  0.00  0.00    -0.354 N 
ATOM     15  C27 MOL d          19.041  26.347  10.659  0.00  0.00     0.218 C 
ATOM     16  H1  MOL d          19.478  28.342  10.526  0.00  0.00     0.162 HD
ATOM     17  O28 MOL d          20.024  25.921  11.219  0.00  0.00    -0.274 OA
ATOM     18  C26 MOL d          17.898  25.474  10.206  0.00  0.00     0.011 C 
ATOM     19  C25 MOL d          17.033  26.434   9.405  0.00  0.00    -0.036 C 
ATOM     20  H5  MOL d          17.346  25.066  11.066  0.00  0.00     0.047 H 
ATOM     21  H6  MOL d          18.258  24.646   9.577  0.00  0.00     0.047 H 
ATOM     22  H3  MOL d          17.117  26.213   8.330  0.00  0.00     0.036 H 
ATOM     23  H4  MOL d          15.981  26.347   9.717  0.00  0.00     0.036 H 
ATOM     24  H2  MOL d          17.684  28.403   8.761  0.00  0.00     0.075 H 
ENDBRANCH  10  13
ENDBRANCH   9  10
ENDBRANCH   6   9
ENDBRANCH   3   5
BRANCH   3  25
ATOM     25  C32 MOL d          16.394  31.383  15.587  0.00  0.00    -0.020 C 
ATOM     26  H11 MOL d          16.719  30.884  16.512  0.00  0.00     0.043 H 
ATOM     27  H12 MOL d          15.482  30.898  15.210  0.00  0.00     0.043 H 
BRANCH  25  28
ATOM     28  C38 MOL d          16.091  32.842  15.890  0.00  0.00    -0.056 A 
ATOM     29  C37 MOL d          15.366  33.170  17.029  0.00  0.00    -0.077 A 
ATOM     30  C36 MOL d          15.084  34.503  17.323  0.00  0.00    -0.082 A 
ATOM     31  H13 MOL d          15.018  32.385  17.692  0.00  0.00     0.084 H 
ATOM     32  C35 MOL d          15.533  35.514  16.481  0.00  0.00    -0.083 A 
ATOM     33  H14 MOL d          14.514  34.752  18.210  0.00  0.00     0.083 H 
ATOM     34  C34 MOL d          16.260  35.188  15.343  0.00  0.00    -0.082 A 
ATOM     35  H15 MOL d          15.316  36.551  16.712  0.00  0.00     0.083 H 
ATOM     36  C33 MOL d          16.542  33.855  15.057  0.00  0.00    -0.077 A 
ATOM     37  H16 MOL d          16.608  35.971  14.679  0.00  0.00     0.083 H 
ATOM     38  H17 MOL d          17.120  33.606  14.174  0.00  0.00     0.084 H 
ENDBRANCH  25  28
ENDBRANCH   3  25
ENDBRANCH   1   3
BRANCH   1  39
ATOM     39  O18 MOL d          18.866  31.253  16.542  0.00  0.00    -0.392 OA
ATOM     40  H19 MOL d          18.326  30.542  16.864  0.00  0.00     0.210 HD
ENDBRANCH   1  39
BRANCH   1  41
ATOM     41  C16 MOL d          19.819  32.344  14.622  0.00  0.00     0.019 C 
ATOM     42  H20 MOL d          19.849  33.142  15.378  0.00  0.00     0.061 H 
ATOM     43  H21 MOL d          19.424  32.748  13.679  0.00  0.00     0.061 H 
BRANCH  41  44
ATOM     44  N11 MOL d          21.190  31.812  14.402  0.00  0.00    -0.204 NA
BRANCH  44  45
ATOM     45  C12 MOL d          21.233  30.333  14.486  0.00  0.00    -0.004 C 
ATOM     46  H22 MOL d          20.219  29.938  14.325  0.00  0.00     0.058 H 
ATOM     47  H23 MOL d          21.584  30.045  15.488  0.00  0.00     0.058 H 
BRANCH  45  48
ATOM     48  C13 MOL d          22.177  29.728  13.433  0.00  0.00    -0.046 C 
ATOM     49  H24 MOL d          23.165  30.191  13.566  0.00  0.00     0.041 H 
BRANCH  48  50
ATOM     50  C14 MOL d          22.363  28.214  13.552  0.00  0.00    -0.072 C 
ATOM     51  H25 MOL d          23.017  27.861  12.742  0.00  0.00     0.028 H 
ATOM     52  H26 MOL d          21.385  27.718  13.477  0.00  0.00     0.028 H 
ATOM     53  H27 MOL d          22.822  27.977  14.524  0.00  0.00     0.028 H 
ENDBRANCH  48  50
BRANCH  48  54
ATOM     54  C15 MOL d          21.658  30.085  12.036  0.00  0.00    -0.064 C 
ATOM     55  H28 MOL d          22.153  31.010  11.707  0.00  0.00     0.033 H 
ATOM     56  H29 MOL d          20.572  30.252  12.101  0.00  0.00     0.033 H 
BRANCH  54  57
ATOM     57  C18 MOL d          21.915  29.007  10.994  0.00  0.00    -0.076 C 
ATOM     58  H30 MOL d          22.304  29.471  10.075  0.00  0.00     0.027 H 
ATOM     59  H31 MOL d          20.975  28.481  10.770  0.00  0.00     0.027 H 
ATOM     60  H32 MOL d          22.653  28.289  11.383  0.00  0.00     0.027 H 
ENDBRANCH  54  57
ENDBRANCH  48  54
ENDBRANCH  45  48
ENDBRANCH  44  45
BRANCH  44  61
ATOM     61  S8  MOL d          22.356  32.551  15.266  0.00  0.00     0.243 S 
ATOM     62  O10 MOL d          23.378  32.943  14.343  0.00  0.00    -0.206 OA
ATOM     63  O9  MOL d          22.782  31.589  16.254  0.00  0.00    -0.206 OA
BRANCH  61  64
ATOM     64  C5  MOL d          21.768  33.867  16.058  0.00  0.00     0.076 A 
ATOM     65  C6  MOL d          22.432  35.084  15.892  0.00  0.00    -0.059 A 
ATOM     66  C7  MOL d          21.960  36.255  16.482  0.00  0.00    -0.052 A 
ATOM     67  H33 MOL d          23.334  35.118  15.292  0.00  0.00     0.086 H 
ATOM     68  C2  MOL d          20.825  36.245  17.267  0.00  0.00     0.074 A 
ATOM     69  H34 MOL d          22.492  37.186  16.323  0.00  0.00     0.087 H 
ATOM     70  C3  MOL d          20.143  35.043  17.468  0.00  0.00     0.036 A 
ATOM     71  N1  MOL d          20.215  37.258  17.925  0.00  0.00    -0.253 NA
ATOM     72  C4  MOL d          20.618  33.868  16.863  0.00  0.00    -0.042 A 
ATOM     73  S1  MOL d          18.756  35.158  18.466  0.00  0.00    -0.081 SA
ATOM     74  H35 MOL d          20.083  32.938  17.022  0.00  0.00     0.088 H 
ATOM     75  C1  MOL d          19.126  36.850  18.596  0.00  0.00     0.041 A 
ATOM     76  H36 MOL d          18.514  37.535  19.182  0.00  0.00     0.126 H 
ENDBRANCH  61  64
ENDBRANCH  44  61
ENDBRANCH  41  44
ENDBRANCH   1  41
TORSDOF 17
ENDMDL
MODEL 6
REMARK VINA RESULT:      -7.1      2.656      5.874
REMARK  17 active torsions:
REMARK  status: ('A' for Active; 'I' for Inactive)
REMARK    1  A    between atoms: C24_4  and  C22_7 
REMARK    2  A    between atoms: C22_7  and  O23_8 
REMARK    3  A    between atoms: O23_8  and  C21_9 
REMARK       I    between atoms: C21_9  and  N20_11 
REMARK    4  A    between atoms: N20_11  and  C19_12 
REMARK    5  A    between atoms: C19_12  and  C32_13 
REMARK    6  A    between atoms: C19_12  and  C17_20 
REMARK    7  A    between atoms: C32_13  and  C38_14 
REMARK    8  A    between atoms: C17_20  and  O18_21 
REMARK    9  A    between atoms: C17_20  and  C16_22 
REMARK   10  A    between atoms: C16_22  and  N11_23 
REMARK   11  A    between atoms: N11_23  and  C12_24 
REMARK   12  A    between atoms: N11_23  and  S8_29 
REMARK   13  A    between atoms: C12_24  and  C13_25 
REMARK   14  A    between atoms: C13_25  and  C14_26 
REMARK   15  A    between atoms: C13_25  and  C15_27 
REMARK   16  A    between atoms: C15_27  and  C18_28 
REMARK   17  A    between atoms: S8_29  and  C5_32 
ROOT
ATOM      1  C17 MOL d          20.512  31.066  13.474  0.00  0.00     0.067 C 
ATOM      2  H18 MOL d          21.514  30.698  13.210  0.00  0.00     0.088 H 
ENDROOT
BRANCH   1   3
ATOM      3  C19 MOL d          20.685  32.244  14.436  0.00  0.00     0.044 C 
ATOM      4  H10 MOL d          20.637  33.170  13.843  0.00  0.00     0.077 H 
BRANCH   3   5
ATOM      5  N20 MOL d          19.598  32.247  15.402  0.00  0.00    -0.329 N 
ATOM      6  C21 MOL d          18.424  32.851  15.252  0.00  0.00     0.361 C 
ATOM      7  O22 MOL d          18.050  33.450  14.257  0.00  0.00    -0.239 OA
ATOM      8  H9  MOL d          19.748  31.750  16.256  0.00  0.00     0.165 HD
BRANCH   6   9
ATOM      9  O23 MOL d          17.543  32.810  16.406  0.00  0.00    -0.302 OA
BRANCH   9  10
ATOM     10  C22 MOL d          16.233  33.374  16.320  0.00  0.00     0.049 C 
ATOM     11  H7  MOL d          16.178  34.082  15.480  0.00  0.00     0.078 H 
ATOM     12  H8  MOL d          15.485  32.580  16.181  0.00  0.00     0.078 H 
BRANCH  10  13
ATOM     13  C24 MOL d          15.991  34.099  17.633  0.00  0.00     0.034 C 
ATOM     14  N29 MOL d          17.144  34.889  17.970  0.00  0.00    -0.354 N 
ATOM     15  C27 MOL d          16.944  36.193  17.892  0.00  0.00     0.218 C 
ATOM     16  H1  MOL d          18.019  34.488  18.239  0.00  0.00     0.162 HD
ATOM     17  O28 MOL d          17.770  37.049  18.111  0.00  0.00    -0.274 OA
ATOM     18  C26 MOL d          15.516  36.495  17.512  0.00  0.00     0.011 C 
ATOM     19  C25 MOL d          14.860  35.124  17.543  0.00  0.00    -0.036 C 
ATOM     20  H5  MOL d          15.459  36.939  16.507  0.00  0.00     0.047 H 
ATOM     21  H6  MOL d          15.048  37.174  18.240  0.00  0.00     0.047 H 
ATOM     22  H3  MOL d          14.200  35.039  18.420  0.00  0.00     0.036 H 
ATOM     23  H4  MOL d          14.274  34.963  16.626  0.00  0.00     0.036 H 
ATOM     24  H2  MOL d          15.776  33.360  18.419  0.00  0.00     0.075 H 
ENDBRANCH  10  13
ENDBRANCH   9  10
ENDBRANCH   6   9
ENDBRANCH   3   5
BRANCH   3  25
ATOM     25  C32 MOL d          22.012  32.244  15.202  0.00  0.00    -0.020 C 
ATOM     26  H11 MOL d          22.842  32.231  14.480  0.00  0.00     0.043 H 
ATOM     27  H12 MOL d          22.061  31.346  15.834  0.00  0.00     0.043 H 
BRANCH  25  28
ATOM     28  C38 MOL d          22.142  33.478  16.083  0.00  0.00    -0.056 A 
ATOM     29  C37 MOL d          21.791  33.403  17.425  0.00  0.00    -0.077 A 
ATOM     30  C36 MOL d          21.910  34.523  18.245  0.00  0.00    -0.082 A 
ATOM     31  H13 MOL d          21.423  32.469  17.835  0.00  0.00     0.084 H 
ATOM     32  C35 MOL d          22.387  35.722  17.727  0.00  0.00    -0.083 A 
ATOM     33  H14 MOL d          21.630  34.460  19.290  0.00  0.00     0.083 H 
ATOM     34  C34 MOL d          22.742  35.798  16.385  0.00  0.00    -0.082 A 
ATOM     35  H15 MOL d          22.482  36.592  18.366  0.00  0.00     0.083 H 
ATOM     36  C33 MOL d          22.625  34.674  15.572  0.00  0.00    -0.077 A 
ATOM     37  H16 MOL d          23.109  36.731  15.973  0.00  0.00     0.083 H 
ATOM     38  H17 MOL d          22.914  34.735  14.529  0.00  0.00     0.084 H 
ENDBRANCH  25  28
ENDBRANCH   3  25
ENDBRANCH   1   3
BRANCH   1  39
ATOM     39  O18 MOL d          19.850  31.499  12.282  0.00  0.00    -0.392 OA
ATOM     40  H19 MOL d          19.585  32.406  12.380  0.00  0.00     0.210 HD
ENDBRANCH   1  39
BRANCH   1  41
ATOM     41  C16 MOL d          19.715  29.898  14.071  0.00  0.00     0.019 C 
ATOM     42  H20 MOL d          18.721  30.250  14.384  0.00  0.00     0.061 H 
ATOM     43  H21 MOL d          20.250  29.491  14.941  0.00  0.00     0.061 H 
BRANCH  41  44
ATOM     44  N11 MOL d          19.567  28.840  13.037  0.00  0.00    -0.204 NA
BRANCH  44  45
ATOM     45  C12 MOL d          20.616  28.930  11.995  0.00  0.00    -0.004 C 
ATOM     46  H22 MOL d          21.175  29.867  12.132  0.00  0.00     0.058 H 
ATOM     47  H23 MOL d          20.135  28.931  11.005  0.00  0.00     0.058 H 
BRANCH  45  48
ATOM     48  C13 MOL d          21.599  27.748  12.070  0.00  0.00    -0.046 C 
ATOM     49  H24 MOL d          21.354  27.168  12.971  0.00  0.00     0.041 H 
BRANCH  48  50
ATOM     50  C14 MOL d          21.526  26.793  10.877  0.00  0.00    -0.072 C 
ATOM     51  H25 MOL d          22.538  26.620  10.484  0.00  0.00     0.028 H 
ATOM     52  H26 MOL d          20.897  27.237  10.091  0.00  0.00     0.028 H 
ATOM     53  H27 MOL d          21.090  25.836  11.200  0.00  0.00     0.028 H 
ENDBRANCH  48  50
BRANCH  48  54
ATOM     54  C15 MOL d          23.024  28.296  12.218  0.00  0.00    -0.064 C 
ATOM     55  H28 MOL d          23.287  28.295  13.286  0.00  0.00     0.033 H 
ATOM     56  H29 MOL d          23.041  29.327  11.836  0.00  0.00     0.033 H 
BRANCH  54  57
ATOM     57  C18 MOL d          24.070  27.488  11.465  0.00  0.00    -0.076 C 
ATOM     58  H30 MOL d          24.297  27.983  10.510  0.00  0.00     0.027 H 
ATOM     59  H31 MOL d          23.683  26.476  11.271  0.00  0.00     0.027 H 
ATOM     60  H32 MOL d          24.986  27.420  12.071  0.00  0.00     0.027 H 
ENDBRANCH  54  57
ENDBRANCH  48  54
ENDBRANCH  45  48
ENDBRANCH  44  45
BRANCH  44  61
ATOM     61  S8  MOL d          18.061  28.677  12.438  0.00  0.00     0.243 S 
ATOM     62  O10 MOL d          17.737  29.903  11.774  0.00  0.00    -0.206 OA
ATOM     63  O9  MOL d          17.219  28.372  13.571  0.00  0.00    -0.206 OA
BRANCH  61  64
ATOM     64  C5  MOL d          17.971  27.417  11.385  0.00  0.00     0.076 A 
ATOM     65  C6  MOL d          18.096  27.691  10.021  0.00  0.00    -0.059 A 
ATOM     66  C7  MOL d          18.090  26.670   9.072  0.00  0.00    -0.052 A 
ATOM     67  H33 MOL d          18.199  28.719   9.695  0.00  0.00     0.086 H 
ATOM     68  C2  MOL d          17.944  25.351   9.451  0.00  0.00     0.074 A 
ATOM     69  H34 MOL d          18.202  26.916   8.022  0.00  0.00     0.087 H 
ATOM     70  C3  MOL d          17.800  25.040  10.805  0.00  0.00     0.036 A 
ATOM     71  N1  MOL d          17.906  24.229   8.695  0.00  0.00    -0.253 NA
ATOM     72  C4  MOL d          17.817  26.072  11.758  0.00  0.00    -0.042 A 
ATOM     73  S1  MOL d          17.618  23.372  11.147  0.00  0.00    -0.081 SA
ATOM     74  H35 MOL d          17.707  25.824  12.807  0.00  0.00     0.088 H 
ATOM     75  C1  MOL d          17.741  23.120   9.433  0.00  0.00     0.041 A 
ATOM     76  H36 MOL d          17.687  22.128   8.987  0.00  0.00     0.126 H 
ENDBRANCH  61  64
ENDBRANCH  44  61
ENDBRANCH  41  44
ENDBRANCH   1  41
TORSDOF 17
ENDMDL
MODEL 7
REMARK VINA RESULT:      -7.0      2.993      8.399
REMARK  17 active torsions:
REMARK  status: ('A' for Active; 'I' for Inactive)
REMARK    1  A    between atoms: C24_4  and  C22_7 
REMARK    2  A    between atoms: C22_7  and  O23_8 
REMARK    3  A    between atoms: O23_8  and  C21_9 
REMARK       I    between atoms: C21_9  and  N20_11 
REMARK    4  A    between atoms: N20_11  and  C19_12 
REMARK    5  A    between atoms: C19_12  and  C32_13 
REMARK    6  A    between atoms: C19_12  and  C17_20 
REMARK    7  A    between atoms: C32_13  and  C38_14 
REMARK    8  A    between atoms: C17_20  and  O18_21 
REMARK    9  A    between atoms: C17_20  and  C16_22 
REMARK   10  A    between atoms: C16_22  and  N11_23 
REMARK   11  A    between atoms: N11_23  and  C12_24 
REMARK   12  A    between atoms: N11_23  and  S8_29 
REMARK   13  A    between atoms: C12_24  and  C13_25 
REMARK   14  A    between atoms: C13_25  and  C14_26 
REMARK   15  A    between atoms: C13_25  and  C15_27 
REMARK   16  A    between atoms: C15_27  and  C18_28 
REMARK   17  A    between atoms: S8_29  and  C5_32 
ROOT
ATOM      1  C17 MOL d          19.065  29.173  13.776  0.00  0.00     0.067 C 
ATOM      2  H18 MOL d          20.119  29.460  13.904  0.00  0.00     0.088 H 
ENDROOT
BRANCH   1   3
ATOM      3  C19 MOL d          18.815  28.973  12.280  0.00  0.00     0.044 C 
ATOM      4  H10 MOL d          18.910  29.954  11.790  0.00  0.00     0.077 H 
BRANCH   3   5
ATOM      5  N20 MOL d          19.821  28.076  11.734  0.00  0.00    -0.329 N 
ATOM      6  C21 MOL d          21.077  28.399  11.441  0.00  0.00     0.361 C 
ATOM      7  O22 MOL d          21.600  29.484  11.638  0.00  0.00    -0.239 OA
ATOM      8  H9  MOL d          19.543  27.131  11.563  0.00  0.00     0.165 HD
BRANCH   6   9
ATOM      9  O23 MOL d          21.860  27.360  10.796  0.00  0.00    -0.302 OA
BRANCH   9  10
ATOM     10  C22 MOL d          23.224  27.162  11.173  0.00  0.00     0.049 C 
ATOM     11  H7  MOL d          23.894  27.577  10.405  0.00  0.00     0.078 H 
ATOM     12  H8  MOL d          23.426  27.646  12.139  0.00  0.00     0.078 H 
BRANCH  10  13
ATOM     13  C24 MOL d          23.424  25.661  11.287  0.00  0.00     0.034 C 
ATOM     14  N29 MOL d          22.154  24.993  11.190  0.00  0.00    -0.354 N 
ATOM     15  C27 MOL d          21.996  24.295  10.080  0.00  0.00     0.218 C 
ATOM     16  H1  MOL d          21.452  25.054  11.900  0.00  0.00     0.162 HD
ATOM     17  O28 MOL d          21.008  23.669   9.774  0.00  0.00    -0.274 OA
ATOM     18  C26 MOL d          23.239  24.352   9.229  0.00  0.00     0.011 C 
ATOM     19  C25 MOL d          24.230  25.080  10.123  0.00  0.00    -0.036 C 
ATOM     20  H5  MOL d          23.059  24.912   8.300  0.00  0.00     0.047 H 
ATOM     21  H6  MOL d          23.598  23.341   8.983  0.00  0.00     0.047 H 
ATOM     22  H3  MOL d          24.989  24.379  10.500  0.00  0.00     0.036 H 
ATOM     23  H4  MOL d          24.723  25.889   9.563  0.00  0.00     0.036 H 
ATOM     24  H2  MOL d          23.917  25.433  12.243  0.00  0.00     0.075 H 
ENDBRANCH  10  13
ENDBRANCH   9  10
ENDBRANCH   6   9
ENDBRANCH   3   5
BRANCH   3  25
ATOM     25  C32 MOL d          17.431  28.409  11.941  0.00  0.00    -0.020 C 
ATOM     26  H11 MOL d          16.885  29.145  11.332  0.00  0.00     0.043 H 
ATOM     27  H12 MOL d          16.881  28.225  12.875  0.00  0.00     0.043 H 
BRANCH  25  28
ATOM     28  C38 MOL d          17.539  27.106  11.164  0.00  0.00    -0.056 A 
ATOM     29  C37 MOL d          17.767  25.917  11.846  0.00  0.00    -0.077 A 
ATOM     30  C36 MOL d          17.864  24.715  11.148  0.00  0.00    -0.082 A 
ATOM     31  H13 MOL d          17.870  25.925  12.925  0.00  0.00     0.084 H 
ATOM     32  C35 MOL d          17.725  24.696   9.765  0.00  0.00    -0.083 A 
ATOM     33  H14 MOL d          18.047  23.792  11.685  0.00  0.00     0.083 H 
ATOM     34  C34 MOL d          17.495  25.884   9.081  0.00  0.00    -0.082 A 
ATOM     35  H15 MOL d          17.798  23.760   9.223  0.00  0.00     0.083 H 
ATOM     36  C33 MOL d          17.395  27.081   9.784  0.00  0.00    -0.077 A 
ATOM     37  H16 MOL d          17.392  25.877   8.002  0.00  0.00     0.083 H 
ATOM     38  H17 MOL d          17.203  28.004   9.248  0.00  0.00     0.084 H 
ENDBRANCH  25  28
ENDBRANCH   3  25
ENDBRANCH   1   3
BRANCH   1  39
ATOM     39  O18 MOL d          18.829  27.951  14.481  0.00  0.00    -0.392 OA
ATOM     40  H19 MOL d          19.527  27.809  15.109  0.00  0.00     0.210 HD
ENDBRANCH   1  39
BRANCH   1  41
ATOM     41  C16 MOL d          18.192  30.269  14.404  0.00  0.00     0.019 C 
ATOM     42  H20 MOL d          17.308  29.813  14.875  0.00  0.00     0.061 H 
ATOM     43  H21 MOL d          17.868  30.975  13.626  0.00  0.00     0.061 H 
BRANCH  41  44
ATOM     44  N11 MOL d          18.990  30.989  15.431  0.00  0.00    -0.204 NA
BRANCH  44  45
ATOM     45  C12 MOL d          18.135  31.772  16.353  0.00  0.00    -0.004 C 
ATOM     46  H22 MOL d          18.743  32.560  16.820  0.00  0.00     0.058 H 
ATOM     47  H23 MOL d          17.743  31.100  17.131  0.00  0.00     0.058 H 
BRANCH  45  48
ATOM     48  C13 MOL d          16.951  32.426  15.618  0.00  0.00    -0.046 C 
ATOM     49  H24 MOL d          17.015  32.136  14.559  0.00  0.00     0.041 H 
BRANCH  48  50
ATOM     50  C14 MOL d          15.577  31.993  16.129  0.00  0.00    -0.072 C 
ATOM     51  H25 MOL d          14.834  32.110  15.326  0.00  0.00     0.028 H 
ATOM     52  H26 MOL d          15.291  32.618  16.988  0.00  0.00     0.028 H 
ATOM     53  H27 MOL d          15.617  30.938  16.439  0.00  0.00     0.028 H 
ENDBRANCH  48  50
BRANCH  48  54
ATOM     54  C15 MOL d          17.090  33.950  15.711  0.00  0.00    -0.064 C 
ATOM     55  H28 MOL d          18.156  34.208  15.628  0.00  0.00     0.033 H 
ATOM     56  H29 MOL d          16.709  34.275  16.691  0.00  0.00     0.033 H 
BRANCH  54  57
ATOM     57  C18 MOL d          16.329  34.700  14.628  0.00  0.00    -0.076 C 
ATOM     58  H30 MOL d          16.879  35.615  14.362  0.00  0.00     0.027 H 
ATOM     59  H31 MOL d          15.329  34.969  15.001  0.00  0.00     0.027 H 
ATOM     60  H32 MOL d          16.229  34.060  13.739  0.00  0.00     0.027 H 
ENDBRANCH  54  57
ENDBRANCH  48  54
ENDBRANCH  45  48
ENDBRANCH  44  45
BRANCH  44  61
ATOM     61  S8  MOL d          20.260  31.826  14.846  0.00  0.00     0.243 S 
ATOM     62  O10 MOL d          19.810  32.505  13.669  0.00  0.00    -0.206 OA
ATOM     63  O9  MOL d          21.298  30.850  14.611  0.00  0.00    -0.206 OA
BRANCH  61  64
ATOM     64  C5  MOL d          20.820  32.908  15.950  0.00  0.00     0.076 A 
ATOM     65  C6  MOL d          21.870  32.512  16.781  0.00  0.00    -0.059 A 
ATOM     66  C7  MOL d          22.440  33.391  17.701  0.00  0.00    -0.052 A 
ATOM     67  H33 MOL d          22.250  31.500  16.710  0.00  0.00     0.086 H 
ATOM     68  C2  MOL d          21.970  34.683  17.830  0.00  0.00     0.074 A 
ATOM     69  H34 MOL d          23.263  33.057  18.322  0.00  0.00     0.087 H 
ATOM     70  C3  MOL d          20.910  35.109  17.027  0.00  0.00     0.036 A 
ATOM     71  N1  MOL d          22.375  35.676  18.656  0.00  0.00    -0.253 NA
ATOM     72  C4  MOL d          20.347  34.221  16.095  0.00  0.00    -0.042 A 
ATOM     73  S1  MOL d          20.412  36.727  17.287  0.00  0.00    -0.081 SA
ATOM     74  H35 MOL d          19.526  34.559  15.473  0.00  0.00     0.088 H 
ATOM     75  C1  MOL d          21.660  36.801  18.492  0.00  0.00     0.041 A 
ATOM     76  H36 MOL d          21.851  37.700  19.076  0.00  0.00     0.126 H 
ENDBRANCH  61  64
ENDBRANCH  44  61
ENDBRANCH  41  44
ENDBRANCH   1  41
TORSDOF 17
ENDMDL
MODEL 8
REMARK VINA RESULT:      -6.8      2.319      7.256
REMARK  17 active torsions:
REMARK  status: ('A' for Active; 'I' for Inactive)
REMARK    1  A    between atoms: C24_4  and  C22_7 
REMARK    2  A    between atoms: C22_7  and  O23_8 
REMARK    3  A    between atoms: O23_8  and  C21_9 
REMARK       I    between atoms: C21_9  and  N20_11 
REMARK    4  A    between atoms: N20_11  and  C19_12 
REMARK    5  A    between atoms: C19_12  and  C32_13 
REMARK    6  A    between atoms: C19_12  and  C17_20 
REMARK    7  A    between atoms: C32_13  and  C38_14 
REMARK    8  A    between atoms: C17_20  and  O18_21 
REMARK    9  A    between atoms: C17_20  and  C16_22 
REMARK   10  A    between atoms: C16_22  and  N11_23 
REMARK   11  A    between atoms: N11_23  and  C12_24 
REMARK   12  A    between atoms: N11_23  and  S8_29 
REMARK   13  A    between atoms: C12_24  and  C13_25 
REMARK   14  A    between atoms: C13_25  and  C14_26 
REMARK   15  A    between atoms: C13_25  and  C15_27 
REMARK   16  A    between atoms: C15_27  and  C18_28 
REMARK   17  A    between atoms: S8_29  and  C5_32 
ROOT
ATOM      1  C17 MOL d          20.498  29.221  14.297  0.00  0.00     0.067 C 
ATOM      2  H18 MOL d          20.442  30.160  14.867  0.00  0.00     0.088 H 
ENDROOT
BRANCH   1   3
ATOM      3  C19 MOL d          21.402  29.462  13.086  0.00  0.00     0.044 C 
ATOM      4  H10 MOL d          20.820  29.225  12.183  0.00  0.00     0.077 H 
BRANCH   3   5
ATOM      5  N20 MOL d          21.791  30.862  13.040  0.00  0.00    -0.329 N 
ATOM      6  C21 MOL d          22.578  31.481  13.914  0.00  0.00     0.361 C 
ATOM      7  O22 MOL d          23.146  30.960  14.860  0.00  0.00    -0.239 OA
ATOM      8  H9  MOL d          21.434  31.408  12.283  0.00  0.00     0.165 HD
BRANCH   6   9
ATOM      9  O23 MOL d          22.728  32.913  13.722  0.00  0.00    -0.302 OA
BRANCH   9  10
ATOM     10  C22 MOL d          22.022  33.822  14.568  0.00  0.00     0.049 C 
ATOM     11  H7  MOL d          21.870  34.781  14.053  0.00  0.00     0.078 H 
ATOM     12  H8  MOL d          21.047  33.398  14.850  0.00  0.00     0.078 H 
BRANCH  10  13
ATOM     13  C24 MOL d          22.884  34.020  15.802  0.00  0.00     0.034 C 
ATOM     14  N29 MOL d          22.957  35.420  16.123  0.00  0.00    -0.354 N 
ATOM     15  C27 MOL d          22.323  35.752  17.234  0.00  0.00     0.218 C 
ATOM     16  H1  MOL d          23.443  36.084  15.555  0.00  0.00     0.162 HD
ATOM     17  O28 MOL d          22.233  36.868  17.690  0.00  0.00    -0.274 OA
ATOM     18  C26 MOL d          21.731  34.534  17.897  0.00  0.00     0.011 C 
ATOM     19  C25 MOL d          22.277  33.390  17.057  0.00  0.00    -0.036 C 
ATOM     20  H5  MOL d          20.632  34.559  17.865  0.00  0.00     0.047 H 
ATOM     21  H6  MOL d          22.065  34.450  18.942  0.00  0.00     0.047 H 
ATOM     22  H3  MOL d          23.049  32.842  17.617  0.00  0.00     0.036 H 
ATOM     23  H4  MOL d          21.465  32.701  16.780  0.00  0.00     0.036 H 
ATOM     24  H2  MOL d          23.886  33.607  15.614  0.00  0.00     0.075 H 
ENDBRANCH  10  13
ENDBRANCH   9  10
ENDBRANCH   6   9
ENDBRANCH   3   5
BRANCH   3  25
ATOM     25  C32 MOL d          22.672  28.607  13.066  0.00  0.00    -0.020 C 
ATOM     26  H11 MOL d          22.822  28.165  14.062  0.00  0.00     0.043 H 
ATOM     27  H12 MOL d          23.531  29.246  12.815  0.00  0.00     0.043 H 
BRANCH  25  28
ATOM     28  C38 MOL d          22.571  27.489  12.039  0.00  0.00    -0.056 A 
ATOM     29  C37 MOL d          23.731  26.920  11.528  0.00  0.00    -0.077 A 
ATOM     30  C36 MOL d          23.654  25.892  10.590  0.00  0.00    -0.082 A 
ATOM     31  H13 MOL d          24.700  27.277  11.860  0.00  0.00     0.084 H 
ATOM     32  C35 MOL d          22.416  25.424  10.165  0.00  0.00    -0.083 A 
ATOM     33  H14 MOL d          24.562  25.455  10.191  0.00  0.00     0.083 H 
ATOM     34  C34 MOL d          21.255  25.990  10.677  0.00  0.00    -0.082 A 
ATOM     35  H15 MOL d          22.357  24.622   9.438  0.00  0.00     0.083 H 
ATOM     36  C33 MOL d          21.338  27.014  11.617  0.00  0.00    -0.077 A 
ATOM     37  H16 MOL d          20.286  25.635  10.346  0.00  0.00     0.083 H 
ATOM     38  H17 MOL d          20.430  27.445  12.023  0.00  0.00     0.084 H 
ENDBRANCH  25  28
ENDBRANCH   3  25
ENDBRANCH   1   3
BRANCH   1  39
ATOM     39  O18 MOL d          21.060  28.206  15.134  0.00  0.00    -0.392 OA
ATOM     40  H19 MOL d          21.997  28.340  15.208  0.00  0.00     0.210 HD
ENDBRANCH   1  39
BRANCH   1  41
ATOM     41  C16 MOL d          19.069  28.802  13.924  0.00  0.00     0.019 C 
ATOM     42  H20 MOL d          18.658  28.149  14.708  0.00  0.00     0.061 H 
ATOM     43  H21 MOL d          19.080  28.261  12.966  0.00  0.00     0.061 H 
BRANCH  41  44
ATOM     44  N11 MOL d          18.228  30.022  13.799  0.00  0.00    -0.204 NA
BRANCH  44  45
ATOM     45  C12 MOL d          17.749  30.228  12.413  0.00  0.00    -0.004 C 
ATOM     46  H22 MOL d          18.567  30.651  11.812  0.00  0.00     0.058 H 
ATOM     47  H23 MOL d          16.904  30.932  12.430  0.00  0.00     0.058 H 
BRANCH  45  48
ATOM     48  C13 MOL d          17.286  28.910  11.766  0.00  0.00    -0.046 C 
ATOM     49  H24 MOL d          17.155  28.173  12.571  0.00  0.00     0.041 H 
BRANCH  48  50
ATOM     50  C14 MOL d          15.957  29.011  11.017  0.00  0.00    -0.072 C 
ATOM     51  H25 MOL d          15.362  29.836  11.435  0.00  0.00     0.028 H 
ATOM     52  H26 MOL d          15.403  28.067  11.126  0.00  0.00     0.028 H 
ATOM     53  H27 MOL d          16.150  29.202   9.951  0.00  0.00     0.028 H 
ENDBRANCH  48  50
BRANCH  48  54
ATOM     54  C15 MOL d          18.385  28.407  10.822  0.00  0.00    -0.064 C 
ATOM     55  H28 MOL d          19.044  27.731  11.385  0.00  0.00     0.033 H 
ATOM     56  H29 MOL d          18.963  29.274  10.469  0.00  0.00     0.033 H 
BRANCH  54  57
ATOM     57  C18 MOL d          17.853  27.660   9.609  0.00  0.00    -0.076 C 
ATOM     58  H30 MOL d          17.023  28.227   9.164  0.00  0.00     0.027 H 
ATOM     59  H31 MOL d          17.494  26.667   9.918  0.00  0.00     0.027 H 
ATOM     60  H32 MOL d          18.658  27.544   8.868  0.00  0.00     0.027 H 
ENDBRANCH  54  57
ENDBRANCH  48  54
ENDBRANCH  45  48
ENDBRANCH  44  45
BRANCH  44  61
ATOM     61  S8  MOL d          18.862  31.360  14.479  0.00  0.00     0.243 S 
ATOM     62  O10 MOL d          19.360  32.177  13.415  0.00  0.00    -0.206 OA
ATOM     63  O9  MOL d          19.875  30.891  15.396  0.00  0.00    -0.206 OA
BRANCH  61  64
ATOM     64  C5  MOL d          17.732  32.180  15.347  0.00  0.00     0.076 A 
ATOM     65  C6  MOL d          16.443  31.646  15.415  0.00  0.00    -0.059 A 
ATOM     66  C7  MOL d          15.446  32.251  16.180  0.00  0.00    -0.052 A 
ATOM     67  H33 MOL d          16.213  30.744  14.862  0.00  0.00     0.086 H 
ATOM     68  C2  MOL d          15.699  33.411  16.884  0.00  0.00     0.074 A 
ATOM     69  H34 MOL d          14.460  31.804  16.222  0.00  0.00     0.087 H 
ATOM     70  C3  MOL d          16.972  33.982  16.826  0.00  0.00     0.036 A 
ATOM     71  N1  MOL d          14.878  34.148  17.668  0.00  0.00    -0.253 NA
ATOM     72  C4  MOL d          17.975  33.363  16.062  0.00  0.00    -0.042 A 
ATOM     73  S1  MOL d          17.159  35.423  17.733  0.00  0.00    -0.081 SA
ATOM     74  H35 MOL d          18.962  33.811  16.023  0.00  0.00     0.088 H 
ATOM     75  C1  MOL d          15.492  35.226  18.181  0.00  0.00     0.041 A 
ATOM     76  H36 MOL d          14.979  35.930  18.834  0.00  0.00     0.126 H 
ENDBRANCH  61  64
ENDBRANCH  44  61
ENDBRANCH  41  44
ENDBRANCH   1  41
TORSDOF 17
ENDMDL
MODEL 9
REMARK VINA RESULT:      -6.8      3.454      8.781
REMARK  17 active torsions:
REMARK  status: ('A' for Active; 'I' for Inactive)
REMARK    1  A    between atoms: C24_4  and  C22_7 
REMARK    2  A    between atoms: C22_7  and  O23_8 
REMARK    3  A    between atoms: O23_8  and  C21_9 
REMARK       I    between atoms: C21_9  and  N20_11 
REMARK    4  A    between atoms: N20_11  and  C19_12 
REMARK    5  A    between atoms: C19_12  and  C32_13 
REMARK    6  A    between atoms: C19_12  and  C17_20 
REMARK    7  A    between atoms: C32_13  and  C38_14 
REMARK    8  A    between atoms: C17_20  and  O18_21 
REMARK    9  A    between atoms: C17_20  and  C16_22 
REMARK   10  A    between atoms: C16_22  and  N11_23 
REMARK   11  A    between atoms: N11_23  and  C12_24 
REMARK   12  A    between atoms: N11_23  and  S8_29 
REMARK   13  A    between atoms: C12_24  and  C13_25 
REMARK   14  A    between atoms: C13_25  and  C14_26 
REMARK   15  A    between atoms: C13_25  and  C15_27 
REMARK   16  A    between atoms: C15_27  and  C18_28 
REMARK   17  A    between atoms: S8_29  and  C5_32 
ROOT
ATOM      1  C17 MOL d          19.376  29.597  13.144  0.00  0.00     0.067 C 
ATOM      2  H18 MOL d          18.458  29.167  13.571  0.00  0.00     0.088 H 
ENDROOT
BRANCH   1   3
ATOM      3  C19 MOL d          20.255  28.439  12.667  0.00  0.00     0.044 C 
ATOM      4  H10 MOL d          20.994  28.233  13.456  0.00  0.00     0.077 H 
BRANCH   3   5
ATOM      5  N20 MOL d          19.435  27.254  12.471  0.00  0.00    -0.329 N 
ATOM      6  C21 MOL d          18.559  27.066  11.489  0.00  0.00     0.361 C 
ATOM      7  O22 MOL d          18.345  27.834  10.565  0.00  0.00    -0.239 OA
ATOM      8  H9  MOL d          19.541  26.513  13.134  0.00  0.00     0.165 HD
BRANCH   6   9
ATOM      9  O23 MOL d          17.773  25.847  11.571  0.00  0.00    -0.302 OA
BRANCH   9  10
ATOM     10  C22 MOL d          17.294  25.229  10.376  0.00  0.00     0.049 C 
ATOM     11  H7  MOL d          16.194  25.214  10.371  0.00  0.00     0.078 H 
ATOM     12  H8  MOL d          17.657  25.776   9.493  0.00  0.00     0.078 H 
BRANCH  10  13
ATOM     13  C24 MOL d          17.839  23.812  10.376  0.00  0.00     0.034 C 
ATOM     14  N29 MOL d          18.796  23.661   9.313  0.00  0.00    -0.354 N 
ATOM     15  C27 MOL d          20.042  23.512   9.728  0.00  0.00     0.218 C 
ATOM     16  H1  MOL d          18.541  23.669   8.346  0.00  0.00     0.162 HD
ATOM     17  O28 MOL d          21.012  23.386   9.018  0.00  0.00    -0.274 OA
ATOM     18  C26 MOL d          20.106  23.489  11.234  0.00  0.00     0.011 C 
ATOM     19  C25 MOL d          18.640  23.486  11.637  0.00  0.00    -0.036 C 
ATOM     20  H5  MOL d          20.621  24.381  11.622  0.00  0.00     0.047 H 
ATOM     21  H6  MOL d          20.618  22.585  11.595  0.00  0.00     0.047 H 
ATOM     22  H3  MOL d          18.355  22.495  12.022  0.00  0.00     0.036 H 
ATOM     23  H4  MOL d          18.457  24.247  12.410  0.00  0.00     0.036 H 
ATOM     24  H2  MOL d          17.005  23.104  10.259  0.00  0.00     0.075 H 
ENDBRANCH  10  13
ENDBRANCH   9  10
ENDBRANCH   6   9
ENDBRANCH   3   5
BRANCH   3  25
ATOM     25  C32 MOL d          21.018  28.718  11.369  0.00  0.00    -0.020 C 
ATOM     26  H11 MOL d          21.446  29.731  11.416  0.00  0.00     0.043 H 
ATOM     27  H12 MOL d          20.320  28.654  10.522  0.00  0.00     0.043 H 
BRANCH  25  28
ATOM     28  C38 MOL d          22.143  27.715  11.160  0.00  0.00    -0.056 A 
ATOM     29  C37 MOL d          23.175  27.639  12.086  0.00  0.00    -0.077 A 
ATOM     30  C36 MOL d          24.209  26.721  11.911  0.00  0.00    -0.082 A 
ATOM     31  H13 MOL d          23.177  28.296  12.949  0.00  0.00     0.084 H 
ATOM     32  C35 MOL d          24.211  25.871  10.812  0.00  0.00    -0.083 A 
ATOM     33  H14 MOL d          25.015  26.670  12.634  0.00  0.00     0.083 H 
ATOM     34  C34 MOL d          23.177  25.943   9.885  0.00  0.00    -0.082 A 
ATOM     35  H15 MOL d          25.014  25.155  10.677  0.00  0.00     0.083 H 
ATOM     36  C33 MOL d          22.145  26.859  10.068  0.00  0.00    -0.077 A 
ATOM     37  H16 MOL d          23.175  25.287   9.022  0.00  0.00     0.083 H 
ATOM     38  H17 MOL d          21.334  26.904   9.350  0.00  0.00     0.084 H 
ENDBRANCH  25  28
ENDBRANCH   3  25
ENDBRANCH   1   3
BRANCH   1  39
ATOM     39  O18 MOL d          19.024  30.434  12.038  0.00  0.00    -0.392 OA
ATOM     40  H19 MOL d          18.204  30.874  12.224  0.00  0.00     0.210 HD
ENDBRANCH   1  39
BRANCH   1  41
ATOM     41  C16 MOL d          20.040  30.470  14.218  0.00  0.00     0.019 C 
ATOM     42  H20 MOL d          21.001  30.851  13.843  0.00  0.00     0.061 H 
ATOM     43  H21 MOL d          20.211  29.874  15.126  0.00  0.00     0.061 H 
BRANCH  41  44
ATOM     44  N11 MOL d          19.139  31.611  14.533  0.00  0.00    -0.204 NA
BRANCH  44  45
ATOM     45  C12 MOL d          19.882  32.884  14.674  0.00  0.00    -0.004 C 
ATOM     46  H22 MOL d          19.356  33.526  15.396  0.00  0.00     0.058 H 
ATOM     47  H23 MOL d          19.918  33.386  13.696  0.00  0.00     0.058 H 
BRANCH  45  48
ATOM     48  C13 MOL d          21.321  32.655  15.169  0.00  0.00    -0.046 C 
ATOM     49  H24 MOL d          21.498  31.570  15.187  0.00  0.00     0.041 H 
BRANCH  48  50
ATOM     50  C14 MOL d          22.398  33.278  14.281  0.00  0.00    -0.072 C 
ATOM     51  H25 MOL d          22.147  34.330  14.083  0.00  0.00     0.028 H 
ATOM     52  H26 MOL d          22.452  32.729  13.329  0.00  0.00     0.028 H 
ATOM     53  H27 MOL d          23.372  33.224  14.791  0.00  0.00     0.028 H 
ENDBRANCH  48  50
BRANCH  48  54
ATOM     54  C15 MOL d          21.446  33.190  16.601  0.00  0.00    -0.064 C 
ATOM     55  H28 MOL d          20.603  32.802  17.191  0.00  0.00     0.033 H 
ATOM     56  H29 MOL d          21.395  34.289  16.566  0.00  0.00     0.033 H 
BRANCH  54  57
ATOM     57  C18 MOL d          22.740  32.791  17.292  0.00  0.00    -0.076 C 
ATOM     58  H30 MOL d          22.632  31.783  17.720  0.00  0.00     0.027 H 
ATOM     59  H31 MOL d          22.963  33.508  18.096  0.00  0.00     0.027 H 
ATOM     60  H32 MOL d          23.562  32.792  16.561  0.00  0.00     0.027 H 
ENDBRANCH  54  57
ENDBRANCH  48  54
ENDBRANCH  45  48
ENDBRANCH  44  45
BRANCH  44  61
ATOM     61  S8  MOL d          18.081  31.332  15.740  0.00  0.00     0.243 S 
ATOM     62  O10 MOL d          18.831  30.822  16.847  0.00  0.00    -0.206 OA
ATOM     63  O9  MOL d          17.108  30.411  15.203  0.00  0.00    -0.206 OA
BRANCH  61  64
ATOM     64  C5  MOL d          17.292  32.709  16.171  0.00  0.00     0.076 A 
ATOM     65  C6  MOL d          15.991  32.895  15.699  0.00  0.00    -0.059 A 
ATOM     66  C7  MOL d          15.236  34.007  16.069  0.00  0.00    -0.052 A 
ATOM     67  H33 MOL d          15.559  32.159  15.032  0.00  0.00     0.086 H 
ATOM     68  C2  MOL d          15.760  34.973  16.904  0.00  0.00     0.074 A 
ATOM     69  H34 MOL d          14.224  34.114  15.696  0.00  0.00     0.087 H 
ATOM     70  C3  MOL d          17.064  34.829  17.383  0.00  0.00     0.036 A 
ATOM     71  N1  MOL d          15.202  36.114  17.370  0.00  0.00    -0.253 NA
ATOM     72  C4  MOL d          17.817  33.701  17.014  0.00  0.00    -0.042 A 
ATOM     73  S1  MOL d          17.604  36.095  18.401  0.00  0.00    -0.081 SA
ATOM     74  H35 MOL d          18.828  33.595  17.391  0.00  0.00     0.088 H 
ATOM     75  C1  MOL d          16.037  36.807  18.161  0.00  0.00     0.041 A 
ATOM     76  H36 MOL d          15.752  37.751  18.622  0.00  0.00     0.126 H 
ENDBRANCH  61  64
ENDBRANCH  44  61
ENDBRANCH  41  44
ENDBRANCH   1  41
TORSDOF 17
ENDMDL
MODEL 10
REMARK VINA RESULT:      -6.6      1.991      5.289
REMARK  17 active torsions:
REMARK  status: ('A' for Active; 'I' for Inactive)
REMARK    1  A    between atoms: C24_4  and  C22_7 
REMARK    2  A    between atoms: C22_7  and  O23_8 
REMARK    3  A    between atoms: O23_8  and  C21_9 
REMARK       I    between atoms: C21_9  and  N20_11 
REMARK    4  A    between atoms: N20_11  and  C19_12 
REMARK    5  A    between atoms: C19_12  and  C32_13 
REMARK    6  A    between atoms: C19_12  and  C17_20 
REMARK    7  A    between atoms: C32_13  and  C38_14 
REMARK    8  A    between atoms: C17_20  and  O18_21 
REMARK    9  A    between atoms: C17_20  and  C16_22 
REMARK   10  A    between atoms: C16_22  and  N11_23 
REMARK   11  A    between atoms: N11_23  and  C12_24 
REMARK   12  A    between atoms: N11_23  and  S8_29 
REMARK   13  A    between atoms: C12_24  and  C13_25 
REMARK   14  A    between atoms: C13_25  and  C14_26 
REMARK   15  A    between atoms: C13_25  and  C15_27 
REMARK   16  A    between atoms: C15_27  and  C18_28 
REMARK   17  A    between atoms: S8_29  and  C5_32 
ROOT
ATOM      1  C17 MOL d          19.138  29.427  13.454  0.00  0.00     0.067 C 
ATOM      2  H18 MOL d          19.506  28.718  12.699  0.00  0.00     0.088 H 
ENDROOT
BRANCH   1   3
ATOM      3  C19 MOL d          17.640  29.629  13.214  0.00  0.00     0.044 C 
ATOM      4  H10 MOL d          17.100  28.904  13.841  0.00  0.00     0.077 H 
BRANCH   3   5
ATOM      5  N20 MOL d          17.260  30.974  13.617  0.00  0.00    -0.329 N 
ATOM      6  C21 MOL d          16.984  31.367  14.856  0.00  0.00     0.361 C 
ATOM      7  O22 MOL d          17.061  30.677  15.860  0.00  0.00    -0.239 OA
ATOM      8  H9  MOL d          17.202  31.665  12.897  0.00  0.00     0.165 HD
BRANCH   6   9
ATOM      9  O23 MOL d          16.514  32.735  14.993  0.00  0.00    -0.302 OA
BRANCH   9  10
ATOM     10  C22 MOL d          15.530  33.054  15.978  0.00  0.00     0.049 C 
ATOM     11  H7  MOL d          14.699  33.610  15.519  0.00  0.00     0.078 H 
ATOM     12  H8  MOL d          15.145  32.134  16.442  0.00  0.00     0.078 H 
BRANCH  10  13
ATOM     13  C24 MOL d          16.226  33.914  17.018  0.00  0.00     0.034 C 
ATOM     14  N29 MOL d          16.883  35.019  16.373  0.00  0.00    -0.354 N 
ATOM     15  C27 MOL d          16.333  36.194  16.624  0.00  0.00     0.218 C 
ATOM     16  H1  MOL d          17.684  34.907  15.785  0.00  0.00     0.162 HD
ATOM     17  O28 MOL d          16.701  37.256  16.180  0.00  0.00    -0.274 OA
ATOM     18  C26 MOL d          15.176  36.050  17.581  0.00  0.00     0.011 C 
ATOM     19  C25 MOL d          15.247  34.585  17.982  0.00  0.00    -0.036 C 
ATOM     20  H5  MOL d          14.221  36.279  17.085  0.00  0.00     0.047 H 
ATOM     21  H6  MOL d          15.301  36.706  18.455  0.00  0.00     0.047 H 
ATOM     22  H3  MOL d          15.609  34.492  19.017  0.00  0.00     0.036 H 
ATOM     23  H4  MOL d          14.253  34.121  17.898  0.00  0.00     0.036 H 
ATOM     24  H2  MOL d          16.947  33.297  17.574  0.00  0.00     0.075 H 
ENDBRANCH  10  13
ENDBRANCH   9  10
ENDBRANCH   6   9
ENDBRANCH   3   5
BRANCH   3  25
ATOM     25  C32 MOL d          17.199  29.418  11.763  0.00  0.00    -0.020 C 
ATOM     26  H11 MOL d          17.736  30.128  11.118  0.00  0.00     0.043 H 
ATOM     27  H12 MOL d          16.117  29.599  11.687  0.00  0.00     0.043 H 
BRANCH  25  28
ATOM     28  C38 MOL d          17.497  28.001  11.294  0.00  0.00    -0.056 A 
ATOM     29  C37 MOL d          17.515  26.963  12.218  0.00  0.00    -0.077 A 
ATOM     30  C36 MOL d          17.782  25.660  11.803  0.00  0.00    -0.082 A 
ATOM     31  H13 MOL d          17.321  27.168  13.265  0.00  0.00     0.084 H 
ATOM     32  C35 MOL d          18.025  25.388  10.462  0.00  0.00    -0.083 A 
ATOM     33  H14 MOL d          17.800  24.855  12.528  0.00  0.00     0.083 H 
ATOM     34  C34 MOL d          18.004  26.425   9.536  0.00  0.00    -0.082 A 
ATOM     35  H15 MOL d          18.229  24.374  10.139  0.00  0.00     0.083 H 
ATOM     36  C33 MOL d          17.733  27.725   9.955  0.00  0.00    -0.077 A 
ATOM     37  H16 MOL d          18.199  26.222   8.489  0.00  0.00     0.083 H 
ATOM     38  H17 MOL d          17.706  28.528   9.229  0.00  0.00     0.084 H 
ENDBRANCH  25  28
ENDBRANCH   3  25
ENDBRANCH   1   3
BRANCH   1  39
ATOM     39  O18 MOL d          19.357  28.873  14.755  0.00  0.00    -0.392 OA
ATOM     40  H19 MOL d          20.090  29.314  15.166  0.00  0.00     0.210 HD
ENDBRANCH   1  39
BRANCH   1  41
ATOM     41  C16 MOL d          19.959  30.720  13.336  0.00  0.00     0.019 C 
ATOM     42  H20 MOL d          19.817  31.331  14.240  0.00  0.00     0.061 H 
ATOM     43  H21 MOL d          19.630  31.288  12.454  0.00  0.00     0.061 H 
BRANCH  41  44
ATOM     44  N11 MOL d          21.396  30.364  13.194  0.00  0.00    -0.204 NA
BRANCH  44  45
ATOM     45  C12 MOL d          21.596  28.903  13.052  0.00  0.00    -0.004 C 
ATOM     46  H22 MOL d          20.617  28.404  13.097  0.00  0.00     0.058 H 
ATOM     47  H23 MOL d          22.226  28.549  13.881  0.00  0.00     0.058 H 
BRANCH  45  48
ATOM     48  C13 MOL d          22.278  28.546  11.720  0.00  0.00    -0.046 C 
ATOM     49  H24 MOL d          22.420  29.480  11.157  0.00  0.00     0.041 H 
BRANCH  48  50
ATOM     50  C14 MOL d          23.651  27.891  11.872  0.00  0.00    -0.072 C 
ATOM     51  H25 MOL d          24.373  28.396  11.213  0.00  0.00     0.028 H 
ATOM     52  H26 MOL d          23.583  26.828  11.596  0.00  0.00     0.028 H 
ATOM     53  H27 MOL d          23.985  27.979  12.917  0.00  0.00     0.028 H 
ENDBRANCH  48  50
BRANCH  48  54
ATOM     54  C15 MOL d          21.346  27.632  10.914  0.00  0.00    -0.064 C 
ATOM     55  H28 MOL d          21.606  27.723   9.850  0.00  0.00     0.033 H 
ATOM     56  H29 MOL d          20.310  27.969  11.069  0.00  0.00     0.033 H 
BRANCH  54  57
ATOM     57  C18 MOL d          21.438  26.166  11.308  0.00  0.00    -0.076 C 
ATOM     58  H30 MOL d          21.991  25.613  10.534  0.00  0.00     0.027 H 
ATOM     59  H31 MOL d          20.425  25.748  11.405  0.00  0.00     0.027 H 
ATOM     60  H32 MOL d          21.966  26.077  12.269  0.00  0.00     0.027 H 
ENDBRANCH  54  57
ENDBRANCH  48  54
ENDBRANCH  45  48
ENDBRANCH  44  45
BRANCH  44  61
ATOM     61  S8  MOL d          22.382  31.058  14.289  0.00  0.00     0.243 S 
ATOM     62  O10 MOL d          23.468  31.644  13.564  0.00  0.00    -0.206 OA
ATOM     63  O9  MOL d          22.770  30.000  15.193  0.00  0.00    -0.206 OA
BRANCH  61  64
ATOM     64  C5  MOL d          21.591  32.206  15.161  0.00  0.00     0.076 A 
ATOM     65  C6  MOL d          20.504  31.805  15.940  0.00  0.00    -0.059 A 
ATOM     66  C7  MOL d          19.821  32.708  16.753  0.00  0.00    -0.052 A 
ATOM     67  H33 MOL d          20.186  30.770  15.912  0.00  0.00     0.086 H 
ATOM     68  C2  MOL d          20.188  34.037  16.800  0.00  0.00     0.074 A 
ATOM     69  H34 MOL d          18.989  32.361  17.356  0.00  0.00     0.087 H 
ATOM     70  C3  MOL d          21.261  34.479  16.021  0.00  0.00     0.036 A 
ATOM     71  N1  MOL d          19.657  35.061  17.508  0.00  0.00    -0.253 NA
ATOM     72  C4  MOL d          21.952  33.562  15.212  0.00  0.00    -0.042 A 
ATOM     73  S1  MOL d          21.614  36.148  16.159  0.00  0.00    -0.081 SA
ATOM     74  H35 MOL d          22.785  33.910  14.611  0.00  0.00     0.088 H 
ATOM     75  C1  MOL d          20.290  36.223  17.280  0.00  0.00     0.041 A 
ATOM     76  H36 MOL d          19.993  37.151  17.767  0.00  0.00     0.126 H 
ENDBRANCH  61  64
ENDBRANCH  44  61
ENDBRANCH  41  44
ENDBRANCH   1  41
TORSDOF 17
ENDMDL
