MODEL 1
REMARK VINA RESULT:      -8.2      0.000      0.000
REMARK  7 active torsions:
REMARK  status: ('A' for Active; 'I' for Inactive)
REMARK    1  A    between atoms: C8_6  and  C7_7 
REMARK       I    between atoms: C7_7  and  N1_9 
REMARK    2  A    between atoms: N1_9  and  C1_10 
REMARK    3  A    between atoms: C5_12  and  C6_13 
REMARK    4  A    between atoms: C6_13  and  O6_14 
REMARK    5  A    between atoms: C4_15  and  O4_16 
REMARK    6  A    between atoms: C3_17  and  O3_18 
REMARK    7  A    between atoms: C2_19  and  O2_20 
ROOT
ATOM      1  C1  OAK d          33.244  23.270  28.541  0.00  0.00     0.134 C 
ATOM      2  O5  OAK d          33.376  22.051  27.731  0.00  0.00    -0.354 OA
ATOM      3  C5  OAK d          32.133  21.630  27.163  0.00  0.00     0.088 C 
ATOM      4  C4  OAK d          31.592  22.752  26.242  0.00  0.00     0.089 C 
ATOM      5  C3  OAK d          31.434  24.082  26.997  0.00  0.00     0.091 C 
ATOM      6  C2  OAK d          32.744  24.462  27.708  0.00  0.00     0.104 C 
ATOM      7  H7  OAK d          32.522  23.078  29.348  0.00  0.00     0.122 H 
ATOM      8  H8  OAK d          31.397  21.443  27.959  0.00  0.00     0.090 H 
ATOM      9  H12 OAK d          32.300  22.899  25.412  0.00  0.00     0.091 H 
ATOM     10  H14 OAK d          30.641  23.970  27.750  0.00  0.00     0.091 H 
ATOM     11  H16 OAK d          33.499  24.699  26.944  0.00  0.00     0.093 H 
ENDROOT
BRANCH   1  12
ATOM     12  N1  OAK d          34.561  23.612  29.140  0.00  0.00    -0.328 N 
ATOM     13  C7  OAK d          34.609  24.185  30.340  0.00  0.00     0.253 C 
ATOM     14  O7  OAK d          33.616  24.456  31.012  0.00  0.00    -0.268 OA
ATOM     15  H6  OAK d          35.406  23.413  28.643  0.00  0.00     0.165 HD
BRANCH  13  16
ATOM     16  C8  OAK d          36.013  24.493  30.873  0.00  0.00     0.032 A 
ATOM     17  C9  OAK d          37.055  23.595  30.664  0.00  0.00    -0.068 A 
ATOM     18  C10 OAK d          38.331  23.870  31.153  0.00  0.00    -0.082 A 
ATOM     19  H1  OAK d          36.874  22.677  30.117  0.00  0.00     0.085 H 
ATOM     20  C11 OAK d          38.572  25.047  31.856  0.00  0.00    -0.083 A 
ATOM     21  H2  OAK d          39.137  23.165  30.986  0.00  0.00     0.083 H 
ATOM     22  C12 OAK d          37.529  25.951  32.070  0.00  0.00    -0.082 A 
ATOM     23  H3  OAK d          39.565  25.261  32.235  0.00  0.00     0.083 H 
ATOM     24  C13 OAK d          36.248  25.674  31.578  0.00  0.00    -0.068 A 
ATOM     25  H4  OAK d          37.712  26.868  32.618  0.00  0.00     0.083 H 
ATOM     26  H5  OAK d          35.439  26.376  31.744  0.00  0.00     0.085 H 
ENDBRANCH  13  16
ENDBRANCH   1  12
BRANCH   6  27
ATOM     27  O2  OAK d          32.564  25.619  28.542  0.00  0.00    -0.389 OA
ATOM     28  H17 OAK d          32.126  25.364  29.345  0.00  0.00     0.210 HD
ENDBRANCH   6  27
BRANCH   3  29
ATOM     29  C6  OAK d          32.421  20.310  26.422  0.00  0.00     0.043 C 
ATOM     30  H9  OAK d          31.602  19.601  26.607  0.00  0.00     0.078 H 
ATOM     31  H10 OAK d          33.366  19.883  26.790  0.00  0.00     0.078 H 
BRANCH  29  32
ATOM     32  O6  OAK d          32.527  20.558  25.018  0.00  0.00    -0.398 OA
ATOM     33  H11 OAK d          31.658  20.668  24.651  0.00  0.00     0.209 HD
ENDBRANCH  29  32
ENDBRANCH   3  29
BRANCH   5  34
ATOM     34  O3  OAK d          31.067  25.115  26.082  0.00  0.00    -0.390 OA
ATOM     35  H15 OAK d          30.968  24.746  25.213  0.00  0.00     0.210 HD
ENDBRANCH   5  34
BRANCH   4  36
ATOM     36  O4  OAK d          30.333  22.358  25.716  0.00  0.00    -0.390 OA
ATOM     37  H13 OAK d          30.459  21.953  24.866  0.00  0.00     0.210 HD
ENDBRANCH   4  36
TORSDOF 7
ENDMDL
MODEL 2
REMARK VINA RESULT:      -7.7      2.073      6.892
REMARK  7 active torsions:
REMARK  status: ('A' for Active; 'I' for Inactive)
REMARK    1  A    between atoms: C8_6  and  C7_7 
REMARK       I    between atoms: C7_7  and  N1_9 
REMARK    2  A    between atoms: N1_9  and  C1_10 
REMARK    3  A    between atoms: C5_12  and  C6_13 
REMARK    4  A    between atoms: C6_13  and  O6_14 
REMARK    5  A    between atoms: C4_15  and  O4_16 
REMARK    6  A    between atoms: C3_17  and  O3_18 
REMARK    7  A    between atoms: C2_19  and  O2_20 
ROOT
ATOM      1  C1  OAK d          35.149  24.079  29.601  0.00  0.00     0.134 C 
ATOM      2  O5  OAK d          36.377  23.453  30.109  0.00  0.00    -0.354 OA
ATOM      3  C5  OAK d          37.335  24.410  30.569  0.00  0.00     0.088 C 
ATOM      4  C4  OAK d          36.712  25.233  31.725  0.00  0.00     0.089 C 
ATOM      5  C3  OAK d          35.404  25.918  31.297  0.00  0.00     0.091 C 
ATOM      6  C2  OAK d          34.429  24.896  30.688  0.00  0.00     0.104 C 
ATOM      7  H7  OAK d          35.416  24.753  28.775  0.00  0.00     0.122 H 
ATOM      8  H8  OAK d          37.604  25.098  29.754  0.00  0.00     0.090 H 
ATOM      9  H12 OAK d          36.497  24.554  32.564  0.00  0.00     0.091 H 
ATOM     10  H14 OAK d          35.635  26.682  30.541  0.00  0.00     0.091 H 
ATOM     11  H16 OAK d          34.101  24.211  31.484  0.00  0.00     0.093 H 
ENDROOT
BRANCH   1  12
ATOM     12  N1  OAK d          34.229  23.027  29.094  0.00  0.00    -0.328 N 
ATOM     13  C7  OAK d          33.526  23.248  27.986  0.00  0.00     0.253 C 
ATOM     14  O7  OAK d          33.585  24.286  27.330  0.00  0.00    -0.268 OA
ATOM     15  H6  OAK d          34.140  22.159  29.582  0.00  0.00     0.165 HD
BRANCH  13  16
ATOM     16  C8  OAK d          32.611  22.100  27.541  0.00  0.00     0.032 A 
ATOM     17  C9  OAK d          31.537  22.349  26.693  0.00  0.00    -0.068 A 
ATOM     18  C10 OAK d          30.700  21.309  26.293  0.00  0.00    -0.082 A 
ATOM     19  H1  OAK d          31.349  23.357  26.342  0.00  0.00     0.085 H 
ATOM     20  C11 OAK d          30.935  20.011  26.738  0.00  0.00    -0.083 A 
ATOM     21  H2  OAK d          29.864  21.510  25.633  0.00  0.00     0.083 H 
ATOM     22  C12 OAK d          32.012  19.756  27.591  0.00  0.00    -0.082 A 
ATOM     23  H3  OAK d          30.285  19.201  26.426  0.00  0.00     0.083 H 
ATOM     24  C13 OAK d          32.852  20.802  27.992  0.00  0.00    -0.068 A 
ATOM     25  H4  OAK d          32.198  18.748  27.941  0.00  0.00     0.083 H 
ATOM     26  H5  OAK d          33.687  20.604  28.653  0.00  0.00     0.085 H 
ENDBRANCH  13  16
ENDBRANCH   1  12
BRANCH   6  27
ATOM     27  O2  OAK d          33.269  25.547  30.143  0.00  0.00    -0.389 OA
ATOM     28  H17 OAK d          32.573  25.544  30.789  0.00  0.00     0.210 HD
ENDBRANCH   6  27
BRANCH   3  29
ATOM     29  C6  OAK d          38.582  23.609  30.986  0.00  0.00     0.043 C 
ATOM     30  H9  OAK d          39.485  24.201  30.774  0.00  0.00     0.078 H 
ATOM     31  H10 OAK d          38.620  22.668  30.416  0.00  0.00     0.078 H 
BRANCH  29  32
ATOM     32  O6  OAK d          38.523  23.316  32.383  0.00  0.00    -0.398 OA
ATOM     33  H11 OAK d          37.673  22.946  32.593  0.00  0.00     0.209 HD
ENDBRANCH  29  32
ENDBRANCH   3  29
BRANCH   5  34
ATOM     34  O3  OAK d          34.798  26.548  32.425  0.00  0.00    -0.390 OA
ATOM     35  H15 OAK d          33.907  26.796  32.207  0.00  0.00     0.210 HD
ENDBRANCH   5  34
BRANCH   4  36
ATOM     36  O4  OAK d          37.642  26.219  32.151  0.00  0.00    -0.390 OA
ATOM     37  H13 OAK d          37.257  27.081  32.046  0.00  0.00     0.210 HD
ENDBRANCH   4  36
TORSDOF 7
ENDMDL
MODEL 3
REMARK VINA RESULT:      -6.9      1.192      3.005
REMARK  7 active torsions:
REMARK  status: ('A' for Active; 'I' for Inactive)
REMARK    1  A    between atoms: C8_6  and  C7_7 
REMARK       I    between atoms: C7_7  and  N1_9 
REMARK    2  A    between atoms: N1_9  and  C1_10 
REMARK    3  A    between atoms: C5_12  and  C6_13 
REMARK    4  A    between atoms: C6_13  and  O6_14 
REMARK    5  A    between atoms: C4_15  and  O4_16 
REMARK    6  A    between atoms: C3_17  and  O3_18 
REMARK    7  A    between atoms: C2_19  and  O2_20 
ROOT
ATOM      1  C1  OAK d          34.160  23.785  27.314  0.00  0.00     0.134 C 
ATOM      2  O5  OAK d          33.053  24.612  27.814  0.00  0.00    -0.354 OA
ATOM      3  C5  OAK d          31.942  24.650  26.914  0.00  0.00     0.088 C 
ATOM      4  C4  OAK d          31.403  23.211  26.716  0.00  0.00     0.089 C 
ATOM      5  C3  OAK d          32.498  22.258  26.207  0.00  0.00     0.091 C 
ATOM      6  C2  OAK d          33.737  22.319  27.115  0.00  0.00     0.104 C 
ATOM      7  H7  OAK d          34.489  24.189  26.346  0.00  0.00     0.122 H 
ATOM      8  H8  OAK d          32.260  25.044  25.937  0.00  0.00     0.090 H 
ATOM      9  H12 OAK d          31.031  22.837  27.682  0.00  0.00     0.091 H 
ATOM     10  H14 OAK d          32.787  22.560  25.191  0.00  0.00     0.091 H 
ATOM     11  H16 OAK d          33.474  21.893  28.095  0.00  0.00     0.093 H 
ENDROOT
BRANCH   1  12
ATOM     12  N1  OAK d          35.293  23.840  28.275  0.00  0.00    -0.328 N 
ATOM     13  C7  OAK d          35.114  24.393  29.472  0.00  0.00     0.253 C 
ATOM     14  O7  OAK d          34.048  24.872  29.854  0.00  0.00    -0.268 OA
ATOM     15  H6  OAK d          36.184  23.463  28.023  0.00  0.00     0.165 HD
BRANCH  13  16
ATOM     16  C8  OAK d          36.340  24.395  30.393  0.00  0.00     0.032 A 
ATOM     17  C9  OAK d          36.630  25.511  31.171  0.00  0.00    -0.068 A 
ATOM     18  C10 OAK d          37.747  25.518  32.003  0.00  0.00    -0.082 A 
ATOM     19  H1  OAK d          35.983  26.380  31.130  0.00  0.00     0.085 H 
ATOM     20  C11 OAK d          38.583  24.406  32.062  0.00  0.00    -0.083 A 
ATOM     21  H2  OAK d          37.967  26.392  32.606  0.00  0.00     0.083 H 
ATOM     22  C12 OAK d          38.297  23.284  31.282  0.00  0.00    -0.082 A 
ATOM     23  H3  OAK d          39.451  24.411  32.711  0.00  0.00     0.083 H 
ATOM     24  C13 OAK d          37.174  23.278  30.446  0.00  0.00    -0.068 A 
ATOM     25  H4  OAK d          38.945  22.417  31.324  0.00  0.00     0.083 H 
ATOM     26  H5  OAK d          36.952  22.406  29.841  0.00  0.00     0.085 H 
ENDBRANCH  13  16
ENDBRANCH   1  12
BRANCH   6  27
ATOM     27  O2  OAK d          34.822  21.553  26.566  0.00  0.00    -0.389 OA
ATOM     28  H17 OAK d          34.547  20.650  26.457  0.00  0.00     0.210 HD
ENDBRANCH   6  27
BRANCH   3  29
ATOM     29  C6  OAK d          30.914  25.612  27.536  0.00  0.00     0.043 C 
ATOM     30  H9  OAK d          29.925  25.131  27.552  0.00  0.00     0.078 H 
ATOM     31  H10 OAK d          30.863  26.533  26.935  0.00  0.00     0.078 H 
BRANCH  29  32
ATOM     32  O6  OAK d          31.304  25.939  28.872  0.00  0.00    -0.398 OA
ATOM     33  H11 OAK d          32.171  25.589  29.042  0.00  0.00     0.209 HD
ENDBRANCH  29  32
ENDBRANCH   3  29
BRANCH   5  34
ATOM     34  O3  OAK d          31.995  20.922  26.171  0.00  0.00    -0.390 OA
ATOM     35  H15 OAK d          32.412  20.409  26.852  0.00  0.00     0.210 HD
ENDBRANCH   5  34
BRANCH   4  36
ATOM     36  O4  OAK d          30.333  23.237  25.783  0.00  0.00    -0.390 OA
ATOM     37  H13 OAK d          30.675  23.107  24.906  0.00  0.00     0.210 HD
ENDBRANCH   4  36
TORSDOF 7
ENDMDL
MODEL 4
REMARK VINA RESULT:      -6.5      1.507      3.099
REMARK  7 active torsions:
REMARK  status: ('A' for Active; 'I' for Inactive)
REMARK    1  A    between atoms: C8_6  and  C7_7 
REMARK       I    between atoms: C7_7  and  N1_9 
REMARK    2  A    between atoms: N1_9  and  C1_10 
REMARK    3  A    between atoms: C5_12  and  C6_13 
REMARK    4  A    between atoms: C6_13  and  O6_14 
REMARK    5  A    between atoms: C4_15  and  O4_16 
REMARK    6  A    between atoms: C3_17  and  O3_18 
REMARK    7  A    between atoms: C2_19  and  O2_20 
ROOT
ATOM      1  C1  OAK d          33.705  22.207  27.671  0.00  0.00     0.134 C 
ATOM      2  O5  OAK d          32.793  23.327  27.399  0.00  0.00    -0.354 OA
ATOM      3  C5  OAK d          31.974  23.104  26.248  0.00  0.00     0.088 C 
ATOM      4  C4  OAK d          31.111  21.839  26.479  0.00  0.00     0.089 C 
ATOM      5  C3  OAK d          31.977  20.607  26.790  0.00  0.00     0.091 C 
ATOM      6  C2  OAK d          32.942  20.901  27.951  0.00  0.00     0.104 C 
ATOM      7  H7  OAK d          34.346  22.057  26.791  0.00  0.00     0.122 H 
ATOM      8  H8  OAK d          32.604  22.942  25.361  0.00  0.00     0.090 H 
ATOM      9  H12 OAK d          30.438  22.021  27.331  0.00  0.00     0.091 H 
ATOM     10  H14 OAK d          32.564  20.351  25.897  0.00  0.00     0.091 H 
ATOM     11  H16 OAK d          32.353  21.028  28.871  0.00  0.00     0.093 H 
ENDROOT
BRANCH   1  12
ATOM     12  N1  OAK d          34.557  22.535  28.844  0.00  0.00    -0.328 N 
ATOM     13  C7  OAK d          35.284  23.650  28.837  0.00  0.00     0.253 C 
ATOM     14  O7  OAK d          35.301  24.453  27.907  0.00  0.00    -0.268 OA
ATOM     15  H6  OAK d          34.583  21.922  29.634  0.00  0.00     0.165 HD
BRANCH  13  16
ATOM     16  C8  OAK d          36.124  23.902  30.094  0.00  0.00     0.032 A 
ATOM     17  C9  OAK d          35.619  24.682  31.130  0.00  0.00    -0.068 A 
ATOM     18  C10 OAK d          36.384  24.918  32.271  0.00  0.00    -0.082 A 
ATOM     19  H1  OAK d          34.626  25.108  31.049  0.00  0.00     0.085 H 
ATOM     20  C11 OAK d          37.660  24.374  32.383  0.00  0.00    -0.083 A 
ATOM     21  H2  OAK d          35.983  25.528  33.073  0.00  0.00     0.083 H 
ATOM     22  C12 OAK d          38.172  23.592  31.345  0.00  0.00    -0.082 A 
ATOM     23  H3  OAK d          38.254  24.557  33.271  0.00  0.00     0.083 H 
ATOM     24  C13 OAK d          37.403  23.355  30.200  0.00  0.00    -0.068 A 
ATOM     25  H4  OAK d          39.166  23.168  31.428  0.00  0.00     0.083 H 
ATOM     26  H5  OAK d          37.802  22.747  29.395  0.00  0.00     0.085 H 
ENDBRANCH  13  16
ENDBRANCH   1  12
BRANCH   6  27
ATOM     27  O2  OAK d          33.862  19.814  28.148  0.00  0.00    -0.389 OA
ATOM     28  H17 OAK d          34.173  19.823  29.045  0.00  0.00     0.210 HD
ENDBRANCH   6  27
BRANCH   3  29
ATOM     29  C6  OAK d          31.145  24.387  26.052  0.00  0.00     0.043 C 
ATOM     30  H9  OAK d          30.199  24.300  26.606  0.00  0.00     0.078 H 
ATOM     31  H10 OAK d          30.931  24.525  24.982  0.00  0.00     0.078 H 
BRANCH  29  32
ATOM     32  O6  OAK d          31.878  25.514  26.538  0.00  0.00    -0.398 OA
ATOM     33  H11 OAK d          32.805  25.378  26.384  0.00  0.00     0.209 HD
ENDBRANCH  29  32
ENDBRANCH   3  29
BRANCH   5  34
ATOM     34  O3  OAK d          31.140  19.501  27.130  0.00  0.00    -0.390 OA
ATOM     35  H15 OAK d          31.632  18.883  27.657  0.00  0.00     0.210 HD
ENDBRANCH   5  34
BRANCH   4  36
ATOM     36  O4  OAK d          30.333  21.584  25.318  0.00  0.00    -0.390 OA
ATOM     37  H13 OAK d          29.688  20.914  25.511  0.00  0.00     0.210 HD
ENDBRANCH   4  36
TORSDOF 7
ENDMDL
MODEL 5
REMARK VINA RESULT:      -5.7      2.197      6.723
REMARK  7 active torsions:
REMARK  status: ('A' for Active; 'I' for Inactive)
REMARK    1  A    between atoms: C8_6  and  C7_7 
REMARK       I    between atoms: C7_7  and  N1_9 
REMARK    2  A    between atoms: N1_9  and  C1_10 
REMARK    3  A    between atoms: C5_12  and  C6_13 
REMARK    4  A    between atoms: C6_13  and  O6_14 
REMARK    5  A    between atoms: C4_15  and  O4_16 
REMARK    6  A    between atoms: C3_17  and  O3_18 
REMARK    7  A    between atoms: C2_19  and  O2_20 
ROOT
ATOM      1  C1  OAK d          35.202  23.330  30.122  0.00  0.00     0.134 C 
ATOM      2  O5  OAK d          34.137  24.165  30.693  0.00  0.00    -0.354 OA
ATOM      3  C5  OAK d          34.588  24.953  31.799  0.00  0.00     0.088 C 
ATOM      4  C4  OAK d          35.721  25.895  31.320  0.00  0.00     0.089 C 
ATOM      5  C3  OAK d          36.883  25.113  30.686  0.00  0.00     0.091 C 
ATOM      6  C2  OAK d          36.368  24.176  29.581  0.00  0.00     0.104 C 
ATOM      7  H7  OAK d          35.587  22.666  30.909  0.00  0.00     0.122 H 
ATOM      8  H8  OAK d          34.985  24.301  32.591  0.00  0.00     0.090 H 
ATOM      9  H12 OAK d          35.310  26.587  30.569  0.00  0.00     0.091 H 
ATOM     10  H14 OAK d          37.370  24.509  31.464  0.00  0.00     0.091 H 
ATOM     11  H16 OAK d          35.999  24.790  28.746  0.00  0.00     0.093 H 
ENDROOT
BRANCH   1  12
ATOM     12  N1  OAK d          34.646  22.504  29.018  0.00  0.00    -0.328 N 
ATOM     13  C7  OAK d          33.415  22.744  28.574  0.00  0.00     0.253 C 
ATOM     14  O7  OAK d          32.684  23.626  29.019  0.00  0.00    -0.268 OA
ATOM     15  H6  OAK d          35.193  21.772  28.612  0.00  0.00     0.165 HD
BRANCH  13  16
ATOM     16  C8  OAK d          32.934  21.843  27.430  0.00  0.00     0.032 A 
ATOM     17  C9  OAK d          33.850  21.105  26.687  0.00  0.00    -0.068 A 
ATOM     18  C10 OAK d          33.416  20.291  25.642  0.00  0.00    -0.082 A 
ATOM     19  H1  OAK d          34.906  21.164  26.921  0.00  0.00     0.085 H 
ATOM     20  C11 OAK d          32.060  20.210  25.335  0.00  0.00    -0.083 A 
ATOM     21  H2  OAK d          34.136  19.720  25.067  0.00  0.00     0.083 H 
ATOM     22  C12 OAK d          31.137  20.950  26.077  0.00  0.00    -0.082 A 
ATOM     23  H3  OAK d          31.723  19.576  24.523  0.00  0.00     0.083 H 
ATOM     24  C13 OAK d          31.574  21.767  27.126  0.00  0.00    -0.068 A 
ATOM     25  H4  OAK d          30.081  20.891  25.840  0.00  0.00     0.083 H 
ATOM     26  H5  OAK d          30.857  22.341  27.702  0.00  0.00     0.085 H 
ENDBRANCH  13  16
ENDBRANCH   1  12
BRANCH   6  27
ATOM     27  O2  OAK d          37.419  23.327  29.088  0.00  0.00    -0.389 OA
ATOM     28  H17 OAK d          38.184  23.855  28.891  0.00  0.00     0.210 HD
ENDBRANCH   6  27
BRANCH   3  29
ATOM     29  C6  OAK d          33.350  25.699  32.331  0.00  0.00     0.043 C 
ATOM     30  H9  OAK d          33.312  26.705  31.890  0.00  0.00     0.078 H 
ATOM     31  H10 OAK d          33.416  25.781  33.427  0.00  0.00     0.078 H 
BRANCH  29  32
ATOM     32  O6  OAK d          32.165  24.981  31.980  0.00  0.00    -0.398 OA
ATOM     33  H11 OAK d          31.746  25.406  31.241  0.00  0.00     0.209 HD
ENDBRANCH  29  32
ENDBRANCH   3  29
BRANCH   5  34
ATOM     34  O3  OAK d          37.835  26.024  30.138  0.00  0.00    -0.390 OA
ATOM     35  H15 OAK d          38.645  25.562  29.955  0.00  0.00     0.210 HD
ENDBRANCH   5  34
BRANCH   4  36
ATOM     36  O4  OAK d          36.206  26.643  32.425  0.00  0.00    -0.390 OA
ATOM     37  H13 OAK d          36.403  26.053  33.144  0.00  0.00     0.210 HD
ENDBRANCH   4  36
TORSDOF 7
ENDMDL
