MODEL 1
REMARK VINA RESULT:      -9.8      0.000      0.000
REMARK  7 active torsions:
REMARK  status: ('A' for Active; 'I' for Inactive)
REMARK    1  A    between atoms: C8_9  and  C4_10 
REMARK    2  A    between atoms: C1_11  and  C7_12 
REMARK    3  A    between atoms: C2_16  and  C6_18 
REMARK    4  A    between atoms: C14_20  and  C26_21 
REMARK    5  A    between atoms: C26_21  and  C27_22 
REMARK    6  A    between atoms: C13_23  and  O25_24 
REMARK    7  A    between atoms: C9_26  and  O24_27 
ROOT
ATOM      1  C4  MOL d           0.151  34.341  -4.834  0.00  0.00     0.041 A 
ATOM      2  C1  MOL d           0.167  34.351  -6.223  0.00  0.00     0.140 A 
ATOM      3  N5  MOL d          -0.554  33.312  -6.646  0.00  0.00    -0.270 N 
ATOM      4  C2  MOL d          -0.610  33.221  -4.514  0.00  0.00     0.103 A 
ATOM      5  N3  MOL d          -0.992  32.682  -5.675  0.00  0.00    -0.173 NA
ATOM      6  H6  MOL d          -0.721  33.071  -7.633  0.00  0.00     0.189 HD
ENDROOT
BRANCH   4   7
ATOM      7  C6  MOL d          -0.773  32.718  -3.224  0.00  0.00     0.029 A 
ATOM      8  C10 MOL d           0.317  32.265  -2.479  0.00  0.00    -0.059 A 
ATOM      9  C14 MOL d           0.158  31.826  -1.166  0.00  0.00    -0.024 A 
ATOM     10  H7  MOL d           1.304  32.255  -2.928  0.00  0.00     0.086 H 
ATOM     11  C13 MOL d          -1.100  31.867  -0.574  0.00  0.00     0.074 A 
ATOM     12  C11 MOL d          -2.200  32.287  -1.318  0.00  0.00    -0.018 A 
ATOM     13  C9  MOL d          -2.034  32.701  -2.640  0.00  0.00     0.081 A 
ATOM     14  H14 MOL d          -3.186  32.292  -0.869  0.00  0.00     0.092 H 
BRANCH   9  15
ATOM     15  C26 MOL d           1.354  31.205  -0.438  0.00  0.00    -0.042 C 
ATOM     16  H8  MOL d           1.018  30.789   0.524  0.00  0.00     0.039 H 
ATOM     17  H9  MOL d           2.113  31.981  -0.258  0.00  0.00     0.039 H 
BRANCH  15  18
ATOM     18  C27 MOL d           1.965  30.087  -1.289  0.00  0.00    -0.073 C 
ATOM     19  H10 MOL d           1.202  29.320  -1.490  0.00  0.00     0.028 H 
ATOM     20  H11 MOL d           2.807  29.632  -0.748  0.00  0.00     0.028 H 
ATOM     21  H12 MOL d           2.324  30.505  -2.241  0.00  0.00     0.028 H 
ENDBRANCH  15  18
ENDBRANCH   9  15
BRANCH  11  22
ATOM     22  O25 MOL d          -1.204  31.654   0.768  0.00  0.00    -0.360 OA
ATOM     23  H13 MOL d          -1.184  30.720   0.943  0.00  0.00     0.217 HD
ENDBRANCH  11  22
BRANCH  13  24
ATOM     24  O24 MOL d          -3.113  33.082  -3.371  0.00  0.00    -0.360 OA
ATOM     25  H15 MOL d          -2.927  33.909  -3.801  0.00  0.00     0.217 HD
ENDBRANCH  13  24
ENDBRANCH   4   7
BRANCH   1  26
ATOM     26  C8  MOL d           0.724  35.255  -3.951  0.00  0.00    -0.018 A 
ATOM     27  C15 MOL d           2.024  35.032  -3.507  0.00  0.00    -0.037 A 
ATOM     28  C12 MOL d           2.576  35.907  -2.577  0.00  0.00     0.105 A 
ATOM     29  H1  MOL d           2.598  34.191  -3.881  0.00  0.00     0.089 H 
ATOM     30  O17 MOL d           3.798  35.922  -1.969  0.00  0.00    -0.323 OA
ATOM     31  C16 MOL d           1.842  36.996  -2.107  0.00  0.00     0.105 A 
ATOM     32  C19 MOL d           3.824  37.020  -1.143  0.00  0.00     0.115 A 
ATOM     33  O18 MOL d           2.626  37.684  -1.225  0.00  0.00    -0.323 OA
ATOM     34  H2  MOL d           4.637  37.693  -1.453  0.00  0.00     0.118 H 
ATOM     35  H3  MOL d           3.993  36.694  -0.105  0.00  0.00     0.118 H 
ATOM     36  C22 MOL d           0.544  37.227  -2.550  0.00  0.00    -0.047 A 
ATOM     37  C20 MOL d          -0.005  36.344  -3.474  0.00  0.00    -0.069 A 
ATOM     38  H4  MOL d          -0.026  38.075  -2.185  0.00  0.00     0.087 H 
ATOM     39  H5  MOL d          -1.017  36.504  -3.830  0.00  0.00     0.085 H 
ENDBRANCH   1  26
BRANCH   2  40
ATOM     40  C7  MOL d           0.817  35.372  -7.159  0.00  0.00     0.229 C 
ATOM     41  O21 MOL d           1.922  35.108  -7.632  0.00  0.00    -0.643 OA
ATOM     42  O23 MOL d           0.257  36.434  -7.435  0.00  0.00    -0.643 OA
ENDBRANCH   2  40
TORSDOF 7
ENDMDL
MODEL 2
REMARK VINA RESULT:      -7.3      1.785      5.488
REMARK  7 active torsions:
REMARK  status: ('A' for Active; 'I' for Inactive)
REMARK    1  A    between atoms: C8_9  and  C4_10 
REMARK    2  A    between atoms: C1_11  and  C7_12 
REMARK    3  A    between atoms: C2_16  and  C6_18 
REMARK    4  A    between atoms: C14_20  and  C26_21 
REMARK    5  A    between atoms: C26_21  and  C27_22 
REMARK    6  A    between atoms: C13_23  and  O25_24 
REMARK    7  A    between atoms: C9_26  and  O24_27 
ROOT
ATOM      1  C4  MOL d          -0.339  33.060  -2.559  0.00  0.00     0.041 A 
ATOM      2  C1  MOL d          -1.140  32.345  -1.678  0.00  0.00     0.140 A 
ATOM      3  N5  MOL d          -2.329  32.176  -2.257  0.00  0.00    -0.270 N 
ATOM      4  C2  MOL d          -1.164  33.292  -3.654  0.00  0.00     0.103 A 
ATOM      5  N3  MOL d          -2.333  32.710  -3.373  0.00  0.00    -0.173 NA
ATOM      6  H6  MOL d          -3.125  31.675  -1.836  0.00  0.00     0.189 HD
ENDROOT
BRANCH   4   7
ATOM      7  C6  MOL d          -0.836  34.113  -4.733  0.00  0.00     0.029 A 
ATOM      8  C10 MOL d          -0.627  35.482  -4.565  0.00  0.00    -0.059 A 
ATOM      9  C14 MOL d          -0.234  36.286  -5.633  0.00  0.00    -0.024 A 
ATOM     10  H7  MOL d          -0.772  35.928  -3.587  0.00  0.00     0.086 H 
ATOM     11  C13 MOL d          -0.014  35.712  -6.881  0.00  0.00     0.074 A 
ATOM     12  C11 MOL d          -0.250  34.353  -7.068  0.00  0.00    -0.018 A 
ATOM     13  C9  MOL d          -0.668  33.561  -5.998  0.00  0.00     0.081 A 
ATOM     14  H14 MOL d          -0.109  33.909  -8.047  0.00  0.00     0.092 H 
BRANCH   9  15
ATOM     15  C26 MOL d          -0.156  37.802  -5.435  0.00  0.00    -0.042 C 
ATOM     16  H8  MOL d          -1.130  38.174  -5.082  0.00  0.00     0.039 H 
ATOM     17  H9  MOL d           0.094  38.282  -6.393  0.00  0.00     0.039 H 
BRANCH  15  18
ATOM     18  C27 MOL d           0.922  38.142  -4.401  0.00  0.00    -0.073 C 
ATOM     19  H10 MOL d           0.505  38.036  -3.389  0.00  0.00     0.028 H 
ATOM     20  H11 MOL d           1.260  39.179  -4.551  0.00  0.00     0.028 H 
ATOM     21  H12 MOL d           1.774  37.458  -4.521  0.00  0.00     0.028 H 
ENDBRANCH  15  18
ENDBRANCH   9  15
BRANCH  11  22
ATOM     22  O25 MOL d           0.585  36.457  -7.853  0.00  0.00    -0.360 OA
ATOM     23  H13 MOL d           0.007  37.168  -8.107  0.00  0.00     0.217 HD
ENDBRANCH  11  22
BRANCH  13  24
ATOM     24  O24 MOL d          -0.926  32.242  -6.190  0.00  0.00    -0.360 OA
ATOM     25  H15 MOL d          -1.865  32.104  -6.215  0.00  0.00     0.217 HD
ENDBRANCH  13  24
ENDBRANCH   4   7
BRANCH   1  26
ATOM     26  C8  MOL d           0.997  33.433  -2.413  0.00  0.00    -0.018 A 
ATOM     27  C15 MOL d           1.305  34.784  -2.278  0.00  0.00    -0.037 A 
ATOM     28  C12 MOL d           2.640  35.163  -2.197  0.00  0.00     0.105 A 
ATOM     29  H1  MOL d           0.516  35.527  -2.238  0.00  0.00     0.089 H 
ATOM     30  O17 MOL d           3.221  36.394  -2.078  0.00  0.00    -0.323 OA
ATOM     31  C16 MOL d           3.653  34.206  -2.236  0.00  0.00     0.105 A 
ATOM     32  C19 MOL d           4.580  36.195  -2.028  0.00  0.00     0.115 A 
ATOM     33  O18 MOL d           4.851  34.853  -2.123  0.00  0.00    -0.323 OA
ATOM     34  H2  MOL d           4.972  36.581  -1.076  0.00  0.00     0.118 H 
ATOM     35  H3  MOL d           5.059  36.726  -2.865  0.00  0.00     0.118 H 
ATOM     36  C22 MOL d           3.352  32.853  -2.364  0.00  0.00    -0.047 A 
ATOM     37  C20 MOL d           2.015  32.480  -2.454  0.00  0.00    -0.069 A 
ATOM     38  H4  MOL d           4.140  32.109  -2.393  0.00  0.00     0.087 H 
ATOM     39  H5  MOL d           1.759  31.432  -2.558  0.00  0.00     0.085 H 
ENDBRANCH   1  26
BRANCH   2  40
ATOM     40  C7  MOL d          -0.771  31.770  -0.310  0.00  0.00     0.229 C 
ATOM     41  O21 MOL d          -1.553  31.940   0.625  0.00  0.00    -0.643 OA
ATOM     42  O23 MOL d           0.282  31.153  -0.138  0.00  0.00    -0.643 OA
ENDBRANCH   2  40
TORSDOF 7
ENDMDL
MODEL 3
REMARK VINA RESULT:      -6.9      2.279      3.265
REMARK  7 active torsions:
REMARK  status: ('A' for Active; 'I' for Inactive)
REMARK    1  A    between atoms: C8_9  and  C4_10 
REMARK    2  A    between atoms: C1_11  and  C7_12 
REMARK    3  A    between atoms: C2_16  and  C6_18 
REMARK    4  A    between atoms: C14_20  and  C26_21 
REMARK    5  A    between atoms: C26_21  and  C27_22 
REMARK    6  A    between atoms: C13_23  and  O25_24 
REMARK    7  A    between atoms: C9_26  and  O24_27 
ROOT
ATOM      1  C4  MOL d           2.628  36.004  -4.239  0.00  0.00     0.041 A 
ATOM      2  C1  MOL d           3.062  36.749  -5.328  0.00  0.00     0.140 A 
ATOM      3  N5  MOL d           2.174  36.592  -6.309  0.00  0.00    -0.270 N 
ATOM      4  C2  MOL d           1.453  35.409  -4.685  0.00  0.00     0.103 A 
ATOM      5  N3  MOL d           1.266  35.837  -5.937  0.00  0.00    -0.173 NA
ATOM      6  H6  MOL d           2.234  37.033  -7.238  0.00  0.00     0.189 HD
ENDROOT
BRANCH   4   7
ATOM      7  C6  MOL d           0.739  34.440  -3.980  0.00  0.00     0.029 A 
ATOM      8  C10 MOL d           1.382  33.355  -3.383  0.00  0.00    -0.059 A 
ATOM      9  C14 MOL d           0.673  32.427  -2.624  0.00  0.00    -0.024 A 
ATOM     10  H7  MOL d           2.451  33.232  -3.514  0.00  0.00     0.086 H 
ATOM     11  C13 MOL d          -0.693  32.599  -2.427  0.00  0.00     0.074 A 
ATOM     12  C11 MOL d          -1.352  33.661  -3.043  0.00  0.00    -0.018 A 
ATOM     13  C9  MOL d          -0.637  34.570  -3.823  0.00  0.00     0.081 A 
ATOM     14  H14 MOL d          -2.422  33.780  -2.916  0.00  0.00     0.092 H 
BRANCH   9  15
ATOM     15  C26 MOL d           1.394  31.178  -2.110  0.00  0.00    -0.042 C 
ATOM     16  H8  MOL d           2.091  30.816  -2.882  0.00  0.00     0.039 H 
ATOM     17  H9  MOL d           0.654  30.395  -1.889  0.00  0.00     0.039 H 
BRANCH  15  18
ATOM     18  C27 MOL d           2.176  31.510  -0.836  0.00  0.00    -0.073 C 
ATOM     19  H10 MOL d           1.485  31.892  -0.070  0.00  0.00     0.028 H 
ATOM     20  H11 MOL d           2.934  32.276  -1.060  0.00  0.00     0.028 H 
ATOM     21  H12 MOL d           2.672  30.602  -0.462  0.00  0.00     0.028 H 
ENDBRANCH  15  18
ENDBRANCH   9  15
BRANCH  11  22
ATOM     22  O25 MOL d          -1.329  31.824  -1.504  0.00  0.00    -0.360 OA
ATOM     23  H13 MOL d          -2.201  31.610  -1.818  0.00  0.00     0.217 HD
ENDBRANCH  11  22
BRANCH  13  24
ATOM     24  O24 MOL d          -1.287  35.587  -4.446  0.00  0.00    -0.360 OA
ATOM     25  H15 MOL d          -1.087  35.567  -5.374  0.00  0.00     0.217 HD
ENDBRANCH  13  24
ENDBRANCH   4   7
BRANCH   1  26
ATOM     26  C8  MOL d           3.203  35.896  -2.973  0.00  0.00    -0.018 A 
ATOM     27  C15 MOL d           2.772  36.756  -1.967  0.00  0.00    -0.037 A 
ATOM     28  C12 MOL d           3.388  36.694  -0.721  0.00  0.00     0.105 A 
ATOM     29  H1  MOL d           1.969  37.462  -2.151  0.00  0.00     0.089 H 
ATOM     30  O17 MOL d           3.183  37.413   0.421  0.00  0.00    -0.323 OA
ATOM     31  C16 MOL d           4.411  35.777  -0.482  0.00  0.00     0.105 A 
ATOM     32  C19 MOL d           4.061  36.933   1.363  0.00  0.00     0.115 A 
ATOM     33  O18 MOL d           4.817  35.927   0.814  0.00  0.00    -0.323 OA
ATOM     34  H2  MOL d           3.498  36.541   2.223  0.00  0.00     0.118 H 
ATOM     35  H3  MOL d           4.722  37.747   1.697  0.00  0.00     0.118 H 
ATOM     36  C22 MOL d           4.842  34.911  -1.481  0.00  0.00    -0.047 A 
ATOM     37  C20 MOL d           4.228  34.984  -2.728  0.00  0.00    -0.069 A 
ATOM     38  H4  MOL d           5.637  34.197  -1.294  0.00  0.00     0.087 H 
ATOM     39  H5  MOL d           4.552  34.320  -3.522  0.00  0.00     0.085 H 
ENDBRANCH   1  26
BRANCH   2  40
ATOM     40  C7  MOL d           4.288  37.658  -5.429  0.00  0.00     0.229 C 
ATOM     41  O21 MOL d           4.851  37.996  -4.388  0.00  0.00    -0.643 OA
ATOM     42  O23 MOL d           4.708  38.047  -6.520  0.00  0.00    -0.643 OA
ENDBRANCH   2  40
TORSDOF 7
ENDMDL
