REMARK  6 active torsions:
REMARK  status: ('A' for Active; 'I' for Inactive)
REMARK    1  A    between atoms: CAA_1  and  CAH_2 
REMARK    2  A    between atoms: CAH_2  and  CAB_3 
REMARK    3  A    between atoms: CAH_2  and  CAL_4 
REMARK    4  A    between atoms: CAI_7  and  OAC_8 
REMARK    5  A    between atoms: CAJ_9  and  OAD_10 
REMARK    6  A    between atoms: CAK_11  and  OAE_12 
ROOT
ATOM      1  CAL ZXD d          -0.172  28.287  25.420  0.00  0.00     0.131 C 
ATOM      2  NAG ZXD d          -0.224  27.011  26.154  0.00  0.00    -0.066 N 
ATOM      3  CAF ZXD d          -1.600  26.488  26.195  0.00  0.00     0.108 C 
ATOM      4  CAI ZXD d          -2.066  26.214  24.759  0.00  0.00     0.086 C 
ATOM      5  CAJ ZXD d          -2.057  27.525  23.969  0.00  0.00     0.088 C 
ATOM      6  CAK ZXD d          -0.634  28.086  23.973  0.00  0.00     0.090 C 
ATOM      7  H8  ZXD d          -0.872  28.986  25.901  0.00  0.00     0.089 H 
ATOM      8  H9  ZXD d           0.102  27.158  27.096  0.00  0.00     0.277 HD
ATOM      9  H10 ZXD d           0.371  26.340  25.694  0.00  0.00     0.277 HD
ATOM     10  H11 ZXD d          -2.264  27.229  26.664  0.00  0.00     0.079 H 
ATOM     11  H12 ZXD d          -1.624  25.554  26.776  0.00  0.00     0.079 H 
ATOM     12  H13 ZXD d          -1.373  25.502  24.287  0.00  0.00     0.089 H 
ATOM     13  H15 ZXD d          -2.736  28.246  24.447  0.00  0.00     0.091 H 
ATOM     14  H17 ZXD d          -0.612  29.048  23.440  0.00  0.00     0.090 H 
ENDROOT
BRANCH   1  15
ATOM     15  CAH ZXD d           1.230  28.901  25.507  0.00  0.00    -0.031 C 
ATOM     16  H4  ZXD d           1.288  29.750  24.810  0.00  0.00     0.042 H 
BRANCH  15  17
ATOM     17  CAA ZXD d           1.489  29.401  26.932  0.00  0.00    -0.071 C 
ATOM     18  H1  ZXD d           2.496  29.840  26.989  0.00  0.00     0.028 H 
ATOM     19  H2  ZXD d           1.416  28.558  27.635  0.00  0.00     0.028 H 
ATOM     20  H3  ZXD d           0.741  30.163  27.195  0.00  0.00     0.028 H 
ENDBRANCH  15  17
BRANCH  15  21
ATOM     21  CAB ZXD d           2.307  27.878  25.135  0.00  0.00    -0.071 C 
ATOM     22  H5  ZXD d           2.129  27.513  24.113  0.00  0.00     0.028 H 
ATOM     23  H6  ZXD d           2.268  27.033  25.838  0.00  0.00     0.028 H 
ATOM     24  H7  ZXD d           3.298  28.353  25.187  0.00  0.00     0.028 H 
ENDBRANCH  15  21
ENDBRANCH   1  15
BRANCH   6  25
ATOM     25  OAE ZXD d           0.234  27.155  23.324  0.00  0.00    -0.391 OA
ATOM     26  H18 ZXD d          -0.057  27.023  22.429  0.00  0.00     0.210 HD
ENDBRANCH   6  25
BRANCH   5  27
ATOM     27  OAD ZXD d          -2.491  27.289  22.629  0.00  0.00    -0.390 OA
ATOM     28  H16 ZXD d          -1.905  26.668  22.212  0.00  0.00     0.210 HD
ENDBRANCH   5  27
BRANCH   4  29
ATOM     29  OAC ZXD d          -3.382  25.655  24.752  0.00  0.00    -0.391 OA
ATOM     30  H14 ZXD d          -3.651  25.493  23.855  0.00  0.00     0.210 HD
ENDBRANCH   4  29
TORSDOF 6
