MODEL 1
REMARK VINA RESULT:      -7.1      0.000      0.000
REMARK  6 active torsions:
REMARK  status: ('A' for Active; 'I' for Inactive)
REMARK    1  A    between atoms: CAA_1  and  CAH_2 
REMARK    2  A    between atoms: CAH_2  and  CAB_3 
REMARK    3  A    between atoms: CAH_2  and  CAL_4 
REMARK    4  A    between atoms: CAI_7  and  OAC_8 
REMARK    5  A    between atoms: CAJ_9  and  OAD_10 
REMARK    6  A    between atoms: CAK_11  and  OAE_12 
ROOT
ATOM      1  CAL ZXD d          -0.018  28.360  25.539  0.00  0.00     0.131 C 
ATOM      2  NAG ZXD d          -0.182  27.213  26.449  0.00  0.00    -0.066 N 
ATOM      3  CAF ZXD d          -1.602  26.841  26.569  0.00  0.00     0.108 C 
ATOM      4  CAI ZXD d          -2.118  26.413  25.189  0.00  0.00     0.086 C 
ATOM      5  CAJ ZXD d          -1.994  27.591  24.219  0.00  0.00     0.088 C 
ATOM      6  CAK ZXD d          -0.523  28.002  24.137  0.00  0.00     0.090 C 
ATOM      7  H8  ZXD d          -0.637  29.187  25.917  0.00  0.00     0.089 H 
ATOM      8  H9  ZXD d           0.174  27.460  27.359  0.00  0.00     0.277 HD
ATOM      9  H10 ZXD d           0.336  26.427  26.088  0.00  0.00     0.277 HD
ATOM     10  H11 ZXD d          -2.181  27.704  26.929  0.00  0.00     0.079 H 
ATOM     11  H12 ZXD d          -1.707  26.007  27.278  0.00  0.00     0.079 H 
ATOM     12  H13 ZXD d          -1.507  25.576  24.822  0.00  0.00     0.089 H 
ATOM     13  H15 ZXD d          -2.590  28.437  24.591  0.00  0.00     0.091 H 
ATOM     14  H17 ZXD d          -0.416  28.871  23.472  0.00  0.00     0.090 H 
ENDROOT
BRANCH   1  15
ATOM     15  CAH ZXD d           1.439  28.837  25.532  0.00  0.00    -0.031 C 
ATOM     16  H4  ZXD d           1.581  29.526  24.687  0.00  0.00     0.042 H 
BRANCH  15  17
ATOM     17  CAA ZXD d           1.750  29.572  26.840  0.00  0.00    -0.071 C 
ATOM     18  H1  ZXD d           0.994  29.312  27.595  0.00  0.00     0.028 H 
ATOM     19  H2  ZXD d           1.733  30.658  26.662  0.00  0.00     0.028 H 
ATOM     20  H3  ZXD d           2.746  29.276  27.200  0.00  0.00     0.028 H 
ENDBRANCH  15  17
BRANCH  15  21
ATOM     21  CAB ZXD d           2.407  27.660  25.381  0.00  0.00    -0.071 C 
ATOM     22  H5  ZXD d           3.237  27.949  24.721  0.00  0.00     0.028 H 
ATOM     23  H6  ZXD d           1.875  26.801  24.946  0.00  0.00     0.028 H 
ATOM     24  H7  ZXD d           2.804  27.382  26.369  0.00  0.00     0.028 H 
ENDBRANCH  15  21
ENDBRANCH   1  15
BRANCH   6  25
ATOM     25  OAE ZXD d           0.238  26.906  23.626  0.00  0.00    -0.391 OA
ATOM     26  H18 ZXD d           1.038  27.233  23.232  0.00  0.00     0.210 HD
ENDBRANCH   6  25
BRANCH   5  27
ATOM     27  OAD ZXD d          -2.473  27.211  22.928  0.00  0.00    -0.390 OA
ATOM     28  H16 ZXD d          -2.718  27.989  22.441  0.00  0.00     0.210 HD
ENDBRANCH   5  27
BRANCH   4  29
ATOM     29  OAC ZXD d          -3.482  25.993  25.267  0.00  0.00    -0.391 OA
ATOM     30  H14 ZXD d          -4.019  26.719  25.566  0.00  0.00     0.210 HD
ENDBRANCH   4  29
TORSDOF 6
ENDMDL
MODEL 2
REMARK VINA RESULT:      -5.8      2.450      4.553
REMARK  6 active torsions:
REMARK  status: ('A' for Active; 'I' for Inactive)
REMARK    1  A    between atoms: CAA_1  and  CAH_2 
REMARK    2  A    between atoms: CAH_2  and  CAB_3 
REMARK    3  A    between atoms: CAH_2  and  CAL_4 
REMARK    4  A    between atoms: CAI_7  and  OAC_8 
REMARK    5  A    between atoms: CAJ_9  and  OAD_10 
REMARK    6  A    between atoms: CAK_11  and  OAE_12 
ROOT
ATOM      1  CAL ZXD d          -1.731  28.174  26.351  0.00  0.00     0.131 C 
ATOM      2  NAG ZXD d          -1.342  27.674  25.021  0.00  0.00    -0.066 N 
ATOM      3  CAF ZXD d          -0.234  28.470  24.468  0.00  0.00     0.108 C 
ATOM      4  CAI ZXD d           0.985  28.327  25.389  0.00  0.00     0.086 C 
ATOM      5  CAJ ZXD d           0.631  28.866  26.777  0.00  0.00     0.088 C 
ATOM      6  CAK ZXD d          -0.552  28.066  27.324  0.00  0.00     0.090 C 
ATOM      7  H8  ZXD d          -1.988  29.239  26.253  0.00  0.00     0.089 H 
ATOM      8  H9  ZXD d          -2.134  27.734  24.401  0.00  0.00     0.277 HD
ATOM      9  H10 ZXD d          -1.050  26.713  25.101  0.00  0.00     0.277 HD
ATOM     10  H11 ZXD d          -0.530  29.528  24.410  0.00  0.00     0.079 H 
ATOM     11  H12 ZXD d           0.019  28.104  23.461  0.00  0.00     0.079 H 
ATOM     12  H13 ZXD d           1.249  27.262  25.471  0.00  0.00     0.089 H 
ATOM     13  H15 ZXD d           0.350  29.927  26.698  0.00  0.00     0.091 H 
ATOM     14  H17 ZXD d          -0.846  28.461  28.308  0.00  0.00     0.090 H 
ENDROOT
BRANCH   1  15
ATOM     15  CAH ZXD d          -2.978  27.440  26.858  0.00  0.00    -0.031 C 
ATOM     16  H4  ZXD d          -2.659  26.577  27.461  0.00  0.00     0.042 H 
BRANCH  15  17
ATOM     17  CAA ZXD d          -3.814  28.382  27.730  0.00  0.00    -0.071 C 
ATOM     18  H1  ZXD d          -3.150  29.097  28.238  0.00  0.00     0.028 H 
ATOM     19  H2  ZXD d          -4.363  27.795  28.481  0.00  0.00     0.028 H 
ATOM     20  H3  ZXD d          -4.529  28.929  27.099  0.00  0.00     0.028 H 
ENDBRANCH  15  17
BRANCH  15  21
ATOM     21  CAB ZXD d          -3.840  26.943  25.694  0.00  0.00    -0.071 C 
ATOM     22  H5  ZXD d          -3.207  26.790  24.808  0.00  0.00     0.028 H 
ATOM     23  H6  ZXD d          -4.614  27.690  25.467  0.00  0.00     0.028 H 
ATOM     24  H7  ZXD d          -4.318  25.992  25.971  0.00  0.00     0.028 H 
ENDBRANCH  15  21
ENDBRANCH   1  15
BRANCH   6  25
ATOM     25  OAE ZXD d          -0.167  26.696  27.450  0.00  0.00    -0.391 OA
ATOM     26  H18 ZXD d           0.111  26.366  26.603  0.00  0.00     0.210 HD
ENDBRANCH   6  25
BRANCH   5  27
ATOM     27  OAD ZXD d           1.756  28.743  27.649  0.00  0.00    -0.390 OA
ATOM     28  H16 ZXD d           1.567  28.094  28.317  0.00  0.00     0.210 HD
ENDBRANCH   5  27
BRANCH   4  29
ATOM     29  OAC ZXD d           2.104  29.044  24.863  0.00  0.00    -0.391 OA
ATOM     30  H14 ZXD d           2.028  29.962  25.096  0.00  0.00     0.210 HD
ENDBRANCH   4  29
TORSDOF 6
ENDMDL
MODEL 3
REMARK VINA RESULT:      -5.6      1.714      4.115
REMARK  6 active torsions:
REMARK  status: ('A' for Active; 'I' for Inactive)
REMARK    1  A    between atoms: CAA_1  and  CAH_2 
REMARK    2  A    between atoms: CAH_2  and  CAB_3 
REMARK    3  A    between atoms: CAH_2  and  CAL_4 
REMARK    4  A    between atoms: CAI_7  and  OAC_8 
REMARK    5  A    between atoms: CAJ_9  and  OAD_10 
REMARK    6  A    between atoms: CAK_11  and  OAE_12 
ROOT
ATOM      1  CAL ZXD d          -1.865  27.657  26.200  0.00  0.00     0.131 C 
ATOM      2  NAG ZXD d          -1.401  29.033  26.445  0.00  0.00    -0.066 N 
ATOM      3  CAF ZXD d           0.069  29.105  26.400  0.00  0.00     0.108 C 
ATOM      4  CAI ZXD d           0.540  28.701  24.997  0.00  0.00     0.086 C 
ATOM      5  CAJ ZXD d           0.104  27.261  24.716  0.00  0.00     0.088 C 
ATOM      6  CAK ZXD d          -1.421  27.186  24.812  0.00  0.00     0.090 C 
ATOM      7  H8  ZXD d          -1.391  27.000  26.944  0.00  0.00     0.089 H 
ATOM      8  H9  ZXD d          -1.720  29.333  27.352  0.00  0.00     0.277 HD
ATOM      9  H10 ZXD d          -1.783  29.642  25.737  0.00  0.00     0.277 HD
ATOM     10  H11 ZXD d           0.495  28.417  27.145  0.00  0.00     0.079 H 
ATOM     11  H12 ZXD d           0.397  30.132  26.619  0.00  0.00     0.079 H 
ATOM     12  H13 ZXD d           0.077  29.370  24.257  0.00  0.00     0.089 H 
ATOM     13  H15 ZXD d           0.551  26.590  25.463  0.00  0.00     0.091 H 
ATOM     14  H17 ZXD d          -1.753  26.150  24.648  0.00  0.00     0.090 H 
ENDROOT
BRANCH   1  15
ATOM     15  CAH ZXD d          -3.383  27.558  26.394  0.00  0.00    -0.031 C 
ATOM     16  H4  ZXD d          -3.876  28.208  25.656  0.00  0.00     0.042 H 
BRANCH  15  17
ATOM     17  CAA ZXD d          -3.840  26.112  26.177  0.00  0.00    -0.071 C 
ATOM     18  H1  ZXD d          -3.003  25.428  26.383  0.00  0.00     0.028 H 
ATOM     19  H2  ZXD d          -4.169  25.984  25.135  0.00  0.00     0.028 H 
ATOM     20  H3  ZXD d          -4.674  25.885  26.856  0.00  0.00     0.028 H 
ENDBRANCH  15  17
BRANCH  15  21
ATOM     21  CAB ZXD d          -3.792  28.004  27.801  0.00  0.00    -0.071 C 
ATOM     22  H5  ZXD d          -4.174  29.034  27.763  0.00  0.00     0.028 H 
ATOM     23  H6  ZXD d          -2.918  27.961  28.467  0.00  0.00     0.028 H 
ATOM     24  H7  ZXD d          -4.578  27.336  28.183  0.00  0.00     0.028 H 
ENDBRANCH  15  21
ENDBRANCH   1  15
BRANCH   6  25
ATOM     25  OAE ZXD d          -1.991  28.039  23.817  0.00  0.00    -0.391 OA
ATOM     26  H18 ZXD d          -1.495  27.959  23.011  0.00  0.00     0.210 HD
ENDBRANCH   6  25
BRANCH   5  27
ATOM     27  OAD ZXD d           0.537  26.867  23.413  0.00  0.00    -0.390 OA
ATOM     28  H16 ZXD d           1.101  27.540  23.050  0.00  0.00     0.210 HD
ENDBRANCH   5  27
BRANCH   4  29
ATOM     29  OAC ZXD d           1.962  28.805  24.891  0.00  0.00    -0.391 OA
ATOM     30  H14 ZXD d           2.191  29.124  24.026  0.00  0.00     0.210 HD
ENDBRANCH   4  29
TORSDOF 6
ENDMDL
MODEL 4
REMARK VINA RESULT:      -5.6      1.723      2.492
REMARK  6 active torsions:
REMARK  status: ('A' for Active; 'I' for Inactive)
REMARK    1  A    between atoms: CAA_1  and  CAH_2 
REMARK    2  A    between atoms: CAH_2  and  CAB_3 
REMARK    3  A    between atoms: CAH_2  and  CAL_4 
REMARK    4  A    between atoms: CAI_7  and  OAC_8 
REMARK    5  A    between atoms: CAJ_9  and  OAD_10 
REMARK    6  A    between atoms: CAK_11  and  OAE_12 
ROOT
ATOM      1  CAL ZXD d           0.192  28.030  25.912  0.00  0.00     0.131 C 
ATOM      2  NAG ZXD d          -0.486  28.265  24.625  0.00  0.00    -0.066 N 
ATOM      3  CAF ZXD d          -1.414  27.165  24.315  0.00  0.00     0.108 C 
ATOM      4  CAI ZXD d          -2.494  27.110  25.403  0.00  0.00     0.086 C 
ATOM      5  CAJ ZXD d          -1.832  26.834  26.756  0.00  0.00     0.088 C 
ATOM      6  CAK ZXD d          -0.835  27.957  27.047  0.00  0.00     0.090 C 
ATOM      7  H8  ZXD d           0.700  27.056  25.856  0.00  0.00     0.089 H 
ATOM      8  H9  ZXD d           0.205  28.331  23.895  0.00  0.00     0.277 HD
ATOM      9  H10 ZXD d          -1.003  29.129  24.677  0.00  0.00     0.277 HD
ATOM     10  H11 ZXD d          -0.864  26.212  24.292  0.00  0.00     0.079 H 
ATOM     11  H12 ZXD d          -1.884  27.341  23.336  0.00  0.00     0.079 H 
ATOM     12  H13 ZXD d          -3.011  28.080  25.444  0.00  0.00     0.089 H 
ATOM     13  H15 ZXD d          -1.300  25.873  26.714  0.00  0.00     0.091 H 
ATOM     14  H17 ZXD d          -0.321  27.759  27.999  0.00  0.00     0.090 H 
ENDROOT
BRANCH   1  15
ATOM     15  CAH ZXD d           1.263  29.099  26.159  0.00  0.00    -0.031 C 
ATOM     16  H4  ZXD d           0.779  30.087  26.172  0.00  0.00     0.042 H 
BRANCH  15  17
ATOM     17  CAA ZXD d           1.939  28.851  27.511  0.00  0.00    -0.071 C 
ATOM     18  H1  ZXD d           2.999  28.605  27.351  0.00  0.00     0.028 H 
ATOM     19  H2  ZXD d           1.442  28.014  28.022  0.00  0.00     0.028 H 
ATOM     20  H3  ZXD d           1.862  29.756  28.131  0.00  0.00     0.028 H 
ENDBRANCH  15  17
BRANCH  15  21
ATOM     21  CAB ZXD d           2.328  29.081  25.059  0.00  0.00    -0.071 C 
ATOM     22  H5  ZXD d           2.646  28.045  24.873  0.00  0.00     0.028 H 
ATOM     23  H6  ZXD d           3.194  29.680  25.378  0.00  0.00     0.028 H 
ATOM     24  H7  ZXD d           1.908  29.506  24.135  0.00  0.00     0.028 H 
ENDBRANCH  15  21
ENDBRANCH   1  15
BRANCH   6  25
ATOM     25  OAE ZXD d          -1.541  29.196  27.127  0.00  0.00    -0.391 OA
ATOM     26  H18 ZXD d          -2.445  29.029  27.369  0.00  0.00     0.210 HD
ENDBRANCH   6  25
BRANCH   5  27
ATOM     27  OAD ZXD d          -2.825  26.777  27.781  0.00  0.00    -0.390 OA
ATOM     28  H16 ZXD d          -3.658  27.069  27.430  0.00  0.00     0.210 HD
ENDBRANCH   5  27
BRANCH   4  29
ATOM     29  OAC ZXD d          -3.450  26.086  25.116  0.00  0.00    -0.391 OA
ATOM     30  H14 ZXD d          -3.242  25.686  24.280  0.00  0.00     0.210 HD
ENDBRANCH   4  29
TORSDOF 6
ENDMDL
MODEL 5
REMARK VINA RESULT:      -4.4      1.997      4.262
REMARK  6 active torsions:
REMARK  status: ('A' for Active; 'I' for Inactive)
REMARK    1  A    between atoms: CAA_1  and  CAH_2 
REMARK    2  A    between atoms: CAH_2  and  CAB_3 
REMARK    3  A    between atoms: CAH_2  and  CAL_4 
REMARK    4  A    between atoms: CAI_7  and  OAC_8 
REMARK    5  A    between atoms: CAJ_9  and  OAD_10 
REMARK    6  A    between atoms: CAK_11  and  OAE_12 
ROOT
ATOM      1  CAL ZXD d          -1.114  27.789  25.680  0.00  0.00     0.131 C 
ATOM      2  NAG ZXD d          -1.053  29.073  26.399  0.00  0.00    -0.066 N 
ATOM      3  CAF ZXD d           0.196  29.178  27.173  0.00  0.00     0.108 C 
ATOM      4  CAI ZXD d           1.383  29.136  26.203  0.00  0.00     0.086 C 
ATOM      5  CAJ ZXD d           1.374  27.800  25.456  0.00  0.00     0.088 C 
ATOM      6  CAK ZXD d           0.053  27.677  24.694  0.00  0.00     0.090 C 
ATOM      7  H8  ZXD d          -1.009  26.980  26.417  0.00  0.00     0.089 H 
ATOM      8  H9  ZXD d          -1.838  29.138  27.027  0.00  0.00     0.277 HD
ATOM      9  H10 ZXD d          -1.093  29.828  25.733  0.00  0.00     0.277 HD
ATOM     10  H11 ZXD d           0.265  28.338  27.880  0.00  0.00     0.079 H 
ATOM     11  H12 ZXD d           0.207  30.127  27.730  0.00  0.00     0.079 H 
ATOM     12  H13 ZXD d           1.283  29.957  25.477  0.00  0.00     0.089 H 
ATOM     13  H15 ZXD d           1.457  26.975  26.179  0.00  0.00     0.091 H 
ATOM     14  H17 ZXD d           0.010  26.706  24.178  0.00  0.00     0.090 H 
ENDROOT
BRANCH   1  15
ATOM     15  CAH ZXD d          -2.476  27.620  24.997  0.00  0.00    -0.031 C 
ATOM     16  H4  ZXD d          -2.819  28.604  24.644  0.00  0.00     0.042 H 
BRANCH  15  17
ATOM     17  CAA ZXD d          -2.340  26.674  23.799  0.00  0.00    -0.071 C 
ATOM     18  H1  ZXD d          -2.678  25.668  24.086  0.00  0.00     0.028 H 
ATOM     19  H2  ZXD d          -1.288  26.632  23.482  0.00  0.00     0.028 H 
ATOM     20  H3  ZXD d          -2.958  27.045  22.967  0.00  0.00     0.028 H 
ENDBRANCH  15  17
BRANCH  15  21
ATOM     21  CAB ZXD d          -3.515  27.050  25.966  0.00  0.00    -0.071 C 
ATOM     22  H5  ZXD d          -3.885  27.851  26.621  0.00  0.00     0.028 H 
ATOM     23  H6  ZXD d          -3.052  26.261  26.577  0.00  0.00     0.028 H 
ATOM     24  H7  ZXD d          -4.355  26.626  25.396  0.00  0.00     0.028 H 
ENDBRANCH  15  21
ENDBRANCH   1  15
BRANCH   6  25
ATOM     25  OAE ZXD d          -0.031  28.736  23.738  0.00  0.00    -0.391 OA
ATOM     26  H18 ZXD d          -0.944  28.919  23.550  0.00  0.00     0.210 HD
ENDBRANCH   6  25
BRANCH   5  27
ATOM     27  OAD ZXD d           2.475  27.741  24.549  0.00  0.00    -0.390 OA
ATOM     28  H16 ZXD d           3.286  27.867  25.028  0.00  0.00     0.210 HD
ENDBRANCH   5  27
BRANCH   4  29
ATOM     29  OAC ZXD d           2.618  29.287  26.907  0.00  0.00    -0.391 OA
ATOM     30  H14 ZXD d           2.886  28.445  27.257  0.00  0.00     0.210 HD
ENDBRANCH   4  29
TORSDOF 6
ENDMDL
