MODEL 1
REMARK VINA RESULT:      -6.1      0.000      0.000
REMARK  3 active torsions:
REMARK  status: ('A' for Active; 'I' for Inactive)
REMARK    1  A    between atoms: N2_1  and  C7_3 
REMARK    2  A    between atoms: C7_3  and  C4_4 
REMARK    3  A    between atoms: C1_9  and  N1_10 
ROOT
ATOM      1  C4  PBZ d          -1.786  14.235  16.566  0.00  0.00     0.007 A 
ATOM      2  C2  PBZ d          -2.233  16.145  17.982  0.00  0.00    -0.057 A 
ATOM      3  C3  PBZ d          -2.467  15.428  16.813  0.00  0.00    -0.067 A 
ATOM      4  C5  PBZ d          -0.872  13.755  17.507  0.00  0.00    -0.067 A 
ATOM      5  C6  PBZ d          -0.646  14.479  18.683  0.00  0.00    -0.057 A 
ATOM      6  C1  PBZ d          -1.319  15.674  18.914  0.00  0.00     0.025 A 
ATOM      7  H5  PBZ d          -2.765  17.072  18.164  0.00  0.00     0.086 H 
ATOM      8  H6  PBZ d          -3.184  15.798  16.089  0.00  0.00     0.085 H 
ATOM      9  H7  PBZ d          -0.341  12.827  17.327  0.00  0.00     0.085 H 
ATOM     10  H8  PBZ d           0.059  14.106  19.419  0.00  0.00     0.086 H 
ENDROOT
BRANCH   1  11
ATOM     11  C7  PBZ d          -2.038  13.487  15.283  0.00  0.00     0.102 C 
ATOM     12  N3  PBZ d          -2.589  14.079  14.221  0.00  0.00    -0.385 N 
ATOM     13  H3  PBZ d          -2.865  15.071  14.269  0.00  0.00     0.157 HD
ATOM     14  H4  PBZ d          -2.736  13.545  13.352  0.00  0.00     0.157 HD
BRANCH  11  15
ATOM     15  N2  PBZ d          -1.695  12.210  15.184  0.00  0.00    -0.385 N 
ATOM     16  H1  PBZ d          -1.810  11.582  15.992  0.00  0.00     0.157 HD
ATOM     17  H2  PBZ d          -1.313  11.847  14.299  0.00  0.00     0.157 HD
ENDBRANCH  11  15
ENDBRANCH   1  11
BRANCH   6  18
ATOM     18  N1  PBZ d          -1.103  16.378  20.057  0.00  0.00    -0.399 N 
ATOM     19  H9  PBZ d          -1.398  15.990  20.965  0.00  0.00     0.156 HD
ATOM     20  H10 PBZ d          -0.644  17.299  20.016  0.00  0.00     0.156 HD
ENDBRANCH   6  18
TORSDOF 3
ENDMDL
MODEL 2
REMARK VINA RESULT:      -6.1      0.039      1.524
REMARK  3 active torsions:
REMARK  status: ('A' for Active; 'I' for Inactive)
REMARK    1  A    between atoms: N2_1  and  C7_3 
REMARK    2  A    between atoms: C7_3  and  C4_4 
REMARK    3  A    between atoms: C1_9  and  N1_10 
ROOT
ATOM      1  C4  PBZ d          -1.798  14.265  16.544  0.00  0.00     0.007 A 
ATOM      2  C2  PBZ d          -0.680  14.458  18.681  0.00  0.00    -0.057 A 
ATOM      3  C3  PBZ d          -0.901  13.771  17.492  0.00  0.00    -0.067 A 
ATOM      4  C5  PBZ d          -2.468  15.466  16.789  0.00  0.00    -0.067 A 
ATOM      5  C6  PBZ d          -2.237  16.155  17.986  0.00  0.00    -0.057 A 
ATOM      6  C1  PBZ d          -1.352  15.647  18.931  0.00  0.00     0.025 A 
ATOM      7  H5  PBZ d           0.016  14.065  19.413  0.00  0.00     0.086 H 
ATOM      8  H6  PBZ d          -0.372  12.844  17.300  0.00  0.00     0.085 H 
ATOM      9  H7  PBZ d          -3.163  15.861  16.058  0.00  0.00     0.085 H 
ATOM     10  H8  PBZ d          -2.751  17.091  18.177  0.00  0.00     0.086 H 
ENDROOT
BRANCH   1  11
ATOM     11  C7  PBZ d          -2.038  13.493  15.273  0.00  0.00     0.102 C 
ATOM     12  N3  PBZ d          -2.581  14.065  14.196  0.00  0.00    -0.385 N 
ATOM     13  H3  PBZ d          -2.860  15.056  14.224  0.00  0.00     0.157 HD
ATOM     14  H4  PBZ d          -2.720  13.514  13.336  0.00  0.00     0.157 HD
BRANCH  11  15
ATOM     15  N2  PBZ d          -1.690  12.216  15.200  0.00  0.00    -0.385 N 
ATOM     16  H1  PBZ d          -0.829  11.945  14.706  0.00  0.00     0.157 HD
ATOM     17  H2  PBZ d          -2.283  11.495  15.636  0.00  0.00     0.157 HD
ENDBRANCH  11  15
ENDBRANCH   1  11
BRANCH   6  18
ATOM     18  N1  PBZ d          -1.124  16.316  20.092  0.00  0.00    -0.399 N 
ATOM     19  H9  PBZ d          -0.163  16.412  20.451  0.00  0.00     0.156 HD
ATOM     20  H10 PBZ d          -1.911  16.726  20.613  0.00  0.00     0.156 HD
ENDBRANCH   6  18
TORSDOF 3
ENDMDL
MODEL 3
REMARK VINA RESULT:      -5.4      0.991      4.475
REMARK  3 active torsions:
REMARK  status: ('A' for Active; 'I' for Inactive)
REMARK    1  A    between atoms: N2_1  and  C7_3 
REMARK    2  A    between atoms: C7_3  and  C4_4 
REMARK    3  A    between atoms: C1_9  and  N1_10 
ROOT
ATOM      1  C4  PBZ d          -1.213  15.381  17.924  0.00  0.00     0.007 A 
ATOM      2  C2  PBZ d          -0.797  13.121  17.165  0.00  0.00    -0.057 A 
ATOM      3  C3  PBZ d          -0.610  14.134  18.099  0.00  0.00    -0.067 A 
ATOM      4  C5  PBZ d          -2.020  15.605  16.806  0.00  0.00    -0.067 A 
ATOM      5  C6  PBZ d          -2.208  14.579  15.872  0.00  0.00    -0.057 A 
ATOM      6  C1  PBZ d          -1.592  13.345  16.048  0.00  0.00     0.025 A 
ATOM      7  H5  PBZ d          -0.323  12.158  17.307  0.00  0.00     0.086 H 
ATOM      8  H6  PBZ d           0.009  13.954  18.971  0.00  0.00     0.085 H 
ATOM      9  H7  PBZ d          -2.497  16.568  16.662  0.00  0.00     0.085 H 
ATOM     10  H8  PBZ d          -2.839  14.748  15.006  0.00  0.00     0.086 H 
ENDROOT
BRANCH   1  11
ATOM     11  C7  PBZ d          -0.978  16.470  18.937  0.00  0.00     0.102 C 
ATOM     12  N3  PBZ d          -1.380  16.349  20.205  0.00  0.00    -0.385 N 
ATOM     13  H3  PBZ d          -1.877  15.499  20.509  0.00  0.00     0.157 HD
ATOM     14  H4  PBZ d          -1.193  17.105  20.879  0.00  0.00     0.157 HD
BRANCH  11  15
ATOM     15  N2  PBZ d          -0.341  17.577  18.582  0.00  0.00    -0.385 N 
ATOM     16  H1  PBZ d          -0.788  18.494  18.721  0.00  0.00     0.157 HD
ATOM     17  H2  PBZ d           0.601  17.520  18.168  0.00  0.00     0.157 HD
ENDBRANCH  11  15
ENDBRANCH   1  11
BRANCH   6  18
ATOM     18  N1  PBZ d          -1.775  12.346  15.144  0.00  0.00    -0.399 N 
ATOM     19  H9  PBZ d          -0.967  11.809  14.799  0.00  0.00     0.156 HD
ATOM     20  H10 PBZ d          -2.722  12.126  14.805  0.00  0.00     0.156 HD
ENDBRANCH   6  18
TORSDOF 3
ENDMDL
MODEL 4
REMARK VINA RESULT:      -5.4      0.986      4.221
REMARK  3 active torsions:
REMARK  status: ('A' for Active; 'I' for Inactive)
REMARK    1  A    between atoms: N2_1  and  C7_3 
REMARK    2  A    between atoms: C7_3  and  C4_4 
REMARK    3  A    between atoms: C1_9  and  N1_10 
ROOT
ATOM      1  C4  PBZ d          -1.199  15.378  17.966  0.00  0.00     0.007 A 
ATOM      2  C2  PBZ d          -2.184  14.607  15.895  0.00  0.00    -0.057 A 
ATOM      3  C3  PBZ d          -1.985  15.611  16.837  0.00  0.00    -0.067 A 
ATOM      4  C5  PBZ d          -0.598  14.129  18.143  0.00  0.00    -0.067 A 
ATOM      5  C6  PBZ d          -0.797  13.125  17.188  0.00  0.00    -0.057 A 
ATOM      6  C1  PBZ d          -1.594  13.362  16.073  0.00  0.00     0.025 A 
ATOM      7  H5  PBZ d          -2.798  14.795  15.023  0.00  0.00     0.086 H 
ATOM      8  H6  PBZ d          -2.445  16.582  16.693  0.00  0.00     0.085 H 
ATOM      9  H7  PBZ d           0.019  13.940  19.013  0.00  0.00     0.085 H 
ATOM     10  H8  PBZ d          -0.327  12.157  17.318  0.00  0.00     0.086 H 
ENDROOT
BRANCH   1  11
ATOM     11  C7  PBZ d          -1.016  16.473  18.984  0.00  0.00     0.102 C 
ATOM     12  N3  PBZ d          -1.485  16.360  20.229  0.00  0.00    -0.385 N 
ATOM     13  H3  PBZ d          -1.999  15.513  20.512  0.00  0.00     0.157 HD
ATOM     14  H4  PBZ d          -1.332  17.120  20.908  0.00  0.00     0.157 HD
BRANCH  11  15
ATOM     15  N2  PBZ d          -0.360  17.578  18.657  0.00  0.00    -0.385 N 
ATOM     16  H1  PBZ d          -0.742  18.210  17.940  0.00  0.00     0.157 HD
ATOM     17  H2  PBZ d           0.532  17.803  19.120  0.00  0.00     0.157 HD
ENDBRANCH  11  15
ENDBRANCH   1  11
BRANCH   6  18
ATOM     18  N1  PBZ d          -1.787  12.389  15.143  0.00  0.00    -0.399 N 
ATOM     19  H9  PBZ d          -2.053  12.642  14.180  0.00  0.00     0.156 HD
ATOM     20  H10 PBZ d          -1.667  11.400  15.401  0.00  0.00     0.156 HD
ENDBRANCH   6  18
TORSDOF 3
ENDMDL
MODEL 5
REMARK VINA RESULT:      -4.7      1.106      4.116
REMARK  3 active torsions:
REMARK  status: ('A' for Active; 'I' for Inactive)
REMARK    1  A    between atoms: N2_1  and  C7_3 
REMARK    2  A    between atoms: C7_3  and  C4_4 
REMARK    3  A    between atoms: C1_9  and  N1_10 
ROOT
ATOM      1  C4  PBZ d          -1.343  14.526  17.697  0.00  0.00     0.007 A 
ATOM      2  C2  PBZ d          -2.241  15.038  15.510  0.00  0.00    -0.057 A 
ATOM      3  C3  PBZ d          -1.973  15.412  16.823  0.00  0.00    -0.067 A 
ATOM      4  C5  PBZ d          -0.968  13.258  17.244  0.00  0.00    -0.067 A 
ATOM      5  C6  PBZ d          -1.235  12.891  15.920  0.00  0.00    -0.057 A 
ATOM      6  C1  PBZ d          -1.877  13.775  15.059  0.00  0.00     0.025 A 
ATOM      7  H5  PBZ d          -2.734  15.731  14.838  0.00  0.00     0.086 H 
ATOM      8  H6  PBZ d          -2.257  16.399  17.169  0.00  0.00     0.085 H 
ATOM      9  H7  PBZ d          -0.473  12.564  17.913  0.00  0.00     0.085 H 
ATOM     10  H8  PBZ d          -0.940  11.910  15.562  0.00  0.00     0.086 H 
ENDROOT
BRANCH   1  11
ATOM     11  C7  PBZ d          -1.083  14.944  19.120  0.00  0.00     0.102 C 
ATOM     12  N3  PBZ d          -0.510  16.113  19.416  0.00  0.00    -0.385 N 
ATOM     13  H3  PBZ d          -0.221  16.751  18.660  0.00  0.00     0.157 HD
ATOM     14  H4  PBZ d          -0.358  16.378  20.400  0.00  0.00     0.157 HD
BRANCH  11  15
ATOM     15  N2  PBZ d          -1.443  14.149  20.119  0.00  0.00    -0.385 N 
ATOM     16  H1  PBZ d          -0.746  13.537  20.566  0.00  0.00     0.157 HD
ATOM     17  H2  PBZ d          -2.419  14.145  20.448  0.00  0.00     0.157 HD
ENDBRANCH  11  15
ENDBRANCH   1  11
BRANCH   6  18
ATOM     18  N1  PBZ d          -2.136  13.422  13.772  0.00  0.00    -0.399 N 
ATOM     19  H9  PBZ d          -1.358  13.243  13.121  0.00  0.00     0.156 HD
ATOM     20  H10 PBZ d          -3.109  13.331  13.449  0.00  0.00     0.156 HD
ENDBRANCH   6  18
TORSDOF 3
ENDMDL
MODEL 6
REMARK VINA RESULT:      -4.7      1.112      4.452
REMARK  3 active torsions:
REMARK  status: ('A' for Active; 'I' for Inactive)
REMARK    1  A    between atoms: N2_1  and  C7_3 
REMARK    2  A    between atoms: C7_3  and  C4_4 
REMARK    3  A    between atoms: C1_9  and  N1_10 
ROOT
ATOM      1  C4  PBZ d          -1.403  14.548  17.699  0.00  0.00     0.007 A 
ATOM      2  C2  PBZ d          -1.266  12.907  15.927  0.00  0.00    -0.057 A 
ATOM      3  C3  PBZ d          -1.031  13.282  17.246  0.00  0.00    -0.067 A 
ATOM      4  C5  PBZ d          -2.027  15.439  16.822  0.00  0.00    -0.067 A 
ATOM      5  C6  PBZ d          -2.265  15.053  15.498  0.00  0.00    -0.057 A 
ATOM      6  C1  PBZ d          -1.878  13.794  15.051  0.00  0.00     0.025 A 
ATOM      7  H5  PBZ d          -0.971  11.923  15.582  0.00  0.00     0.086 H 
ATOM      8  H6  PBZ d          -0.556  12.585  17.926  0.00  0.00     0.085 H 
ATOM      9  H7  PBZ d          -2.324  16.423  17.166  0.00  0.00     0.085 H 
ATOM     10  H8  PBZ d          -2.754  15.740  14.816  0.00  0.00     0.086 H 
ENDROOT
BRANCH   1  11
ATOM     11  C7  PBZ d          -1.119  14.940  19.125  0.00  0.00     0.102 C 
ATOM     12  N3  PBZ d          -1.440  14.147  20.150  0.00  0.00    -0.385 N 
ATOM     13  H3  PBZ d          -1.907  13.245  19.976  0.00  0.00     0.157 HD
ATOM     14  H4  PBZ d          -1.220  14.436  21.114  0.00  0.00     0.157 HD
BRANCH  11  15
ATOM     15  N2  PBZ d          -0.518  16.093  19.387  0.00  0.00    -0.385 N 
ATOM     16  H1  PBZ d          -0.958  16.768  20.028  0.00  0.00     0.157 HD
ATOM     17  H2  PBZ d           0.388  16.313  18.948  0.00  0.00     0.157 HD
ENDBRANCH  11  15
ENDBRANCH   1  11
BRANCH   6  18
ATOM     18  N1  PBZ d          -2.110  13.416  13.766  0.00  0.00    -0.399 N 
ATOM     19  H9  PBZ d          -2.670  14.017  13.145  0.00  0.00     0.156 HD
ATOM     20  H10 PBZ d          -1.726  12.528  13.413  0.00  0.00     0.156 HD
ENDBRANCH   6  18
TORSDOF 3
ENDMDL
MODEL 7
REMARK VINA RESULT:      -4.5      1.211      4.231
REMARK  3 active torsions:
REMARK  status: ('A' for Active; 'I' for Inactive)
REMARK    1  A    between atoms: N2_1  and  C7_3 
REMARK    2  A    between atoms: C7_3  and  C4_4 
REMARK    3  A    between atoms: C1_9  and  N1_10 
ROOT
ATOM      1  C4  PBZ d          -1.416  14.308  17.514  0.00  0.00     0.007 A 
ATOM      2  C2  PBZ d          -2.312  14.702  15.302  0.00  0.00    -0.057 A 
ATOM      3  C3  PBZ d          -2.155  15.093  16.627  0.00  0.00    -0.067 A 
ATOM      4  C5  PBZ d          -0.822  13.128  17.061  0.00  0.00    -0.067 A 
ATOM      5  C6  PBZ d          -0.980  12.743  15.724  0.00  0.00    -0.057 A 
ATOM      6  C1  PBZ d          -1.730  13.525  14.851  0.00  0.00     0.025 A 
ATOM      7  H5  PBZ d          -2.890  15.316  14.621  0.00  0.00     0.086 H 
ATOM      8  H6  PBZ d          -2.609  16.014  16.974  0.00  0.00     0.085 H 
ATOM      9  H7  PBZ d          -0.242  12.513  17.740  0.00  0.00     0.085 H 
ATOM     10  H8  PBZ d          -0.516  11.831  15.366  0.00  0.00     0.086 H 
ENDROOT
BRANCH   1  11
ATOM     11  C7  PBZ d          -1.278  14.739  18.951  0.00  0.00     0.102 C 
ATOM     12  N3  PBZ d          -1.375  13.868  19.958  0.00  0.00    -0.385 N 
ATOM     13  H3  PBZ d          -1.564  12.874  19.763  0.00  0.00     0.157 HD
ATOM     14  H4  PBZ d          -1.262  14.191  20.930  0.00  0.00     0.157 HD
BRANCH  11  15
ATOM     15  N2  PBZ d          -1.034  16.010  19.239  0.00  0.00    -0.385 N 
ATOM     16  H1  PBZ d          -0.147  16.443  18.946  0.00  0.00     0.157 HD
ATOM     17  H2  PBZ d          -1.731  16.564  19.757  0.00  0.00     0.157 HD
ENDBRANCH  11  15
ENDBRANCH   1  11
BRANCH   6  18
ATOM     18  N1  PBZ d          -1.883  13.155  13.552  0.00  0.00    -0.399 N 
ATOM     19  H9  PBZ d          -1.798  13.857  12.803  0.00  0.00     0.156 HD
ATOM     20  H10 PBZ d          -2.083  12.173  13.316  0.00  0.00     0.156 HD
ENDBRANCH   6  18
TORSDOF 3
ENDMDL
