MODEL 1
REMARK VINA RESULT:      -8.7      0.000      0.000
REMARK  7 active torsions:
REMARK  status: ('A' for Active; 'I' for Inactive)
REMARK    1  A    between atoms: N1_1  and  S27_27 
REMARK    2  A    between atoms: C4_4  and  N7_7 
REMARK    3  A    between atoms: C11_11  and  C14_14 
REMARK    4  A    between atoms: C14_14  and  C16_16 
REMARK    5  A    between atoms: C21_21  and  O22_22 
REMARK    6  A    between atoms: O22_22  and  C23_23 
REMARK    7  A    between atoms: S27_27  and  C28_28 
ROOT
ATOM      1  N7  LIA d           2.587  29.085   6.275  0.00  0.00    -0.218 N 
ATOM      2  C8  LIA d           1.587  29.427   7.136  0.00  0.00     0.724 A 
ATOM      3  N9  LIA d           1.021  28.509   7.967  0.00  0.00    -0.074 NA
ATOM      4  C10 LIA d           0.079  28.865   8.785  0.00  0.00     0.038 A 
ATOM      5  C11 LIA d          -0.419  30.225   8.865  0.00  0.00     0.079 A 
ATOM      6  C12 LIA d           0.201  31.168   7.960  0.00  0.00     0.156 A 
ATOM      7  N13 LIA d           1.196  30.734   7.115  0.00  0.00    -0.045 NA
ATOM      8  N26 LIA d          -0.144  32.467   7.898  0.00  0.00    -0.383 N 
ATOM      9  H10 LIA d           2.819  29.643   5.441  0.00  0.00     0.178 HD
ATOM     10  H11 LIA d          -0.354  28.115   9.437  0.00  0.00     0.117 H 
ATOM     11  H17 LIA d           0.331  33.095   7.233  0.00  0.00     0.157 HD
ATOM     12  H18 LIA d          -0.882  32.834   8.515  0.00  0.00     0.157 HD
ENDROOT
BRANCH   1  13
ATOM     13  C4  LIA d           3.308  27.856   6.632  0.00  0.00     0.029 C 
ATOM     14  C3  LIA d           4.043  27.346   5.366  0.00  0.00    -0.034 C 
ATOM     15  C2  LIA d           4.946  26.140   5.705  0.00  0.00    -0.005 C 
ATOM     16  H3  LIA d           3.299  27.040   4.616  0.00  0.00     0.037 H 
ATOM     17  H4  LIA d           4.664  28.157   4.958  0.00  0.00     0.037 H 
ATOM     18  N1  LIA d           5.931  26.535   6.751  0.00  0.00    -0.211 NA
ATOM     19  H1  LIA d           4.325  25.313   6.080  0.00  0.00     0.057 H 
ATOM     20  H2  LIA d           5.481  25.817   4.801  0.00  0.00     0.057 H 
ATOM     21  C6  LIA d           5.229  26.877   8.024  0.00  0.00    -0.005 C 
ATOM     22  C5  LIA d           4.329  28.110   7.795  0.00  0.00    -0.034 C 
ATOM     23  H8  LIA d           5.972  27.103   8.803  0.00  0.00     0.057 H 
ATOM     24  H9  LIA d           4.611  26.025   8.344  0.00  0.00     0.057 H 
ATOM     25  H6  LIA d           3.774  28.325   8.720  0.00  0.00     0.037 H 
ATOM     26  H7  LIA d           4.961  28.972   7.537  0.00  0.00     0.037 H 
ATOM     27  H5  LIA d           2.583  27.097   6.962  0.00  0.00     0.073 H 
BRANCH  18  28
ATOM     28  S27 LIA d           7.074  25.304   6.995  0.00  0.00     0.207 S 
ATOM     29  O29 LIA d           7.722  25.551   8.263  0.00  0.00    -0.212 OA
ATOM     30  O30 LIA d           8.048  25.360   5.939  0.00  0.00    -0.212 OA
BRANCH  28  31
ATOM     31  C28 LIA d           6.315  23.642   7.043  0.00  0.00     0.028 C 
ATOM     32  H19 LIA d           5.530  23.620   7.814  0.00  0.00     0.050 H 
ATOM     33  H20 LIA d           7.086  22.895   7.284  0.00  0.00     0.050 H 
ATOM     34  H21 LIA d           5.873  23.412   6.063  0.00  0.00     0.050 H 
ENDBRANCH  28  31
ENDBRANCH  18  28
ENDBRANCH   1  13
BRANCH   5  35
ATOM     35  C14 LIA d          -1.468  30.561   9.817  0.00  0.00     0.203 C 
ATOM     36  O15 LIA d          -1.564  31.713  10.274  0.00  0.00    -0.286 OA
BRANCH  35  37
ATOM     37  C16 LIA d          -2.409  29.564  10.275  0.00  0.00     0.090 A 
ATOM     38  C17 LIA d          -2.016  28.645  11.313  0.00  0.00     0.171 A 
ATOM     39  C18 LIA d          -2.933  27.658  11.790  0.00  0.00     0.156 A 
ATOM     40  F24 LIA d          -0.797  28.696  11.842  0.00  0.00    -0.202 F 
ATOM     41  C19 LIA d          -4.249  27.567  11.250  0.00  0.00    -0.040 A 
ATOM     42  F25 LIA d          -2.565  26.820  12.741  0.00  0.00    -0.203 F 
ATOM     43  C20 LIA d          -4.662  28.461  10.221  0.00  0.00    -0.047 A 
ATOM     44  H12 LIA d          -4.937  26.817  11.623  0.00  0.00     0.088 H 
ATOM     45  C21 LIA d          -3.760  29.473   9.712  0.00  0.00     0.085 A 
ATOM     46  H13 LIA d          -5.663  28.382   9.815  0.00  0.00     0.087 H 
BRANCH  45  47
ATOM     47  O22 LIA d          -4.128  30.376   8.689  0.00  0.00    -0.355 OA
BRANCH  47  48
ATOM     48  C23 LIA d          -4.257  29.745   7.391  0.00  0.00     0.010 C 
ATOM     49  H14 LIA d          -3.258  29.496   7.003  0.00  0.00     0.066 H 
ATOM     50  H15 LIA d          -4.758  30.435   6.695  0.00  0.00     0.066 H 
ATOM     51  H16 LIA d          -4.853  28.826   7.487  0.00  0.00     0.066 H 
ENDBRANCH  47  48
ENDBRANCH  45  47
ENDBRANCH  35  37
ENDBRANCH   5  35
TORSDOF 7
ENDMDL
MODEL 2
REMARK VINA RESULT:      -8.3      2.818      3.968
REMARK  7 active torsions:
REMARK  status: ('A' for Active; 'I' for Inactive)
REMARK    1  A    between atoms: N1_1  and  S27_27 
REMARK    2  A    between atoms: C4_4  and  N7_7 
REMARK    3  A    between atoms: C11_11  and  C14_14 
REMARK    4  A    between atoms: C14_14  and  C16_16 
REMARK    5  A    between atoms: C21_21  and  O22_22 
REMARK    6  A    between atoms: O22_22  and  C23_23 
REMARK    7  A    between atoms: S27_27  and  C28_28 
ROOT
ATOM      1  N7  LIA d           3.180  24.979   9.801  0.00  0.00    -0.218 N 
ATOM      2  C8  LIA d           2.269  25.890  10.249  0.00  0.00     0.724 A 
ATOM      3  N9  LIA d           2.091  27.083   9.620  0.00  0.00    -0.074 NA
ATOM      4  C10 LIA d           1.209  27.926  10.061  0.00  0.00     0.038 A 
ATOM      5  C11 LIA d           0.379  27.660  11.221  0.00  0.00     0.079 A 
ATOM      6  C12 LIA d           0.605  26.386  11.867  0.00  0.00     0.156 A 
ATOM      7  N13 LIA d           1.553  25.530  11.354  0.00  0.00    -0.045 NA
ATOM      8  N26 LIA d          -0.073  25.980  12.956  0.00  0.00    -0.383 N 
ATOM      9  H10 LIA d           3.559  24.231  10.399  0.00  0.00     0.178 HD
ATOM     10  H11 LIA d           1.086  28.869   9.541  0.00  0.00     0.117 H 
ATOM     11  H17 LIA d           0.129  25.061  13.376  0.00  0.00     0.157 HD
ATOM     12  H18 LIA d          -0.794  26.588  13.370  0.00  0.00     0.157 HD
ENDROOT
BRANCH   1  13
ATOM     13  C4  LIA d           3.575  25.149   8.397  0.00  0.00     0.029 C 
ATOM     14  C3  LIA d           4.847  26.035   8.361  0.00  0.00    -0.034 C 
ATOM     15  C2  LIA d           5.408  26.131   6.926  0.00  0.00    -0.005 C 
ATOM     16  H3  LIA d           4.594  27.044   8.718  0.00  0.00     0.037 H 
ATOM     17  H4  LIA d           5.611  25.595   9.018  0.00  0.00     0.037 H 
ATOM     18  N1  LIA d           5.716  24.764   6.420  0.00  0.00    -0.211 NA
ATOM     19  H1  LIA d           4.660  26.604   6.272  0.00  0.00     0.057 H 
ATOM     20  H2  LIA d           6.326  26.736   6.931  0.00  0.00     0.057 H 
ATOM     21  C6  LIA d           4.464  23.957   6.305  0.00  0.00    -0.005 C 
ATOM     22  C5  LIA d           3.849  23.767   7.708  0.00  0.00    -0.034 C 
ATOM     23  H8  LIA d           4.699  22.975   5.871  0.00  0.00     0.057 H 
ATOM     24  H9  LIA d           3.746  24.483   5.657  0.00  0.00     0.057 H 
ATOM     25  H6  LIA d           2.900  23.219   7.612  0.00  0.00     0.037 H 
ATOM     26  H7  LIA d           4.546  23.188   8.330  0.00  0.00     0.037 H 
ATOM     27  H5  LIA d           2.764  25.657   7.854  0.00  0.00     0.073 H 
BRANCH  18  28
ATOM     28  S27 LIA d           6.531  24.843   4.934  0.00  0.00     0.207 S 
ATOM     29  O29 LIA d           7.929  25.082   5.210  0.00  0.00    -0.212 OA
ATOM     30  O30 LIA d           5.998  25.938   4.170  0.00  0.00    -0.212 OA
BRANCH  28  31
ATOM     31  C28 LIA d           6.385  23.295   3.972  0.00  0.00     0.028 C 
ATOM     32  H19 LIA d           6.322  23.534   2.900  0.00  0.00     0.050 H 
ATOM     33  H20 LIA d           5.478  22.755   4.282  0.00  0.00     0.050 H 
ATOM     34  H21 LIA d           7.268  22.665   4.155  0.00  0.00     0.050 H 
ENDBRANCH  28  31
ENDBRANCH  18  28
ENDBRANCH   1  13
BRANCH   5  35
ATOM     35  C14 LIA d          -0.603  28.642  11.654  0.00  0.00     0.203 C 
ATOM     36  O15 LIA d          -0.440  29.280  12.709  0.00  0.00    -0.286 OA
BRANCH  35  37
ATOM     37  C16 LIA d          -1.804  28.888  10.887  0.00  0.00     0.090 A 
ATOM     38  C17 LIA d          -1.794  29.901   9.863  0.00  0.00     0.171 A 
ATOM     39  C18 LIA d          -2.966  30.154   9.085  0.00  0.00     0.156 A 
ATOM     40  F24 LIA d          -0.700  30.618   9.625  0.00  0.00    -0.202 F 
ATOM     41  C19 LIA d          -4.161  29.409   9.308  0.00  0.00    -0.040 A 
ATOM     42  F25 LIA d          -2.949  31.084   8.148  0.00  0.00    -0.203 F 
ATOM     43  C20 LIA d          -4.199  28.405  10.316  0.00  0.00    -0.047 A 
ATOM     44  H12 LIA d          -5.042  29.607   8.708  0.00  0.00     0.088 H 
ATOM     45  C21 LIA d          -3.031  28.121  11.125  0.00  0.00     0.085 A 
ATOM     46  H13 LIA d          -5.113  27.846  10.480  0.00  0.00     0.087 H 
BRANCH  45  47
ATOM     47  O22 LIA d          -3.028  27.137  12.139  0.00  0.00    -0.355 OA
BRANCH  47  48
ATOM     48  C23 LIA d          -4.097  26.169  11.997  0.00  0.00     0.010 C 
ATOM     49  H14 LIA d          -4.801  26.274  12.836  0.00  0.00     0.066 H 
ATOM     50  H15 LIA d          -3.676  25.153  11.999  0.00  0.00     0.066 H 
ATOM     51  H16 LIA d          -4.627  26.344  11.050  0.00  0.00     0.066 H 
ENDBRANCH  47  48
ENDBRANCH  45  47
ENDBRANCH  35  37
ENDBRANCH   5  35
TORSDOF 7
ENDMDL
MODEL 3
REMARK VINA RESULT:      -7.7      3.962      5.479
REMARK  7 active torsions:
REMARK  status: ('A' for Active; 'I' for Inactive)
REMARK    1  A    between atoms: N1_1  and  S27_27 
REMARK    2  A    between atoms: C4_4  and  N7_7 
REMARK    3  A    between atoms: C11_11  and  C14_14 
REMARK    4  A    between atoms: C14_14  and  C16_16 
REMARK    5  A    between atoms: C21_21  and  O22_22 
REMARK    6  A    between atoms: O22_22  and  C23_23 
REMARK    7  A    between atoms: S27_27  and  C28_28 
ROOT
ATOM      1  N7  LIA d          -1.184  24.324  12.539  0.00  0.00    -0.218 N 
ATOM      2  C8  LIA d          -1.707  25.405  11.891  0.00  0.00     0.724 A 
ATOM      3  N9  LIA d          -0.951  26.165  11.054  0.00  0.00    -0.074 NA
ATOM      4  C10 LIA d          -1.478  27.180  10.442  0.00  0.00     0.038 A 
ATOM      5  C11 LIA d          -2.869  27.561  10.607  0.00  0.00     0.079 A 
ATOM      6  C12 LIA d          -3.636  26.734  11.512  0.00  0.00     0.156 A 
ATOM      7  N13 LIA d          -3.025  25.670  12.133  0.00  0.00    -0.045 NA
ATOM      8  N26 LIA d          -4.936  26.948  11.784  0.00  0.00    -0.383 N 
ATOM      9  H10 LIA d          -1.609  23.924  13.388  0.00  0.00     0.178 HD
ATOM     10  H11 LIA d          -0.854  27.769   9.780  0.00  0.00     0.117 H 
ATOM     11  H17 LIA d          -5.435  26.327  12.437  0.00  0.00     0.157 HD
ATOM     12  H18 LIA d          -5.434  27.732  11.338  0.00  0.00     0.157 HD
ENDROOT
BRANCH   1  13
ATOM     13  C4  LIA d           0.034  23.776  11.927  0.00  0.00     0.029 C 
ATOM     14  C3  LIA d          -0.274  23.468  10.439  0.00  0.00    -0.034 C 
ATOM     15  C2  LIA d           1.005  23.032   9.694  0.00  0.00    -0.005 C 
ATOM     16  H3  LIA d          -1.017  22.660  10.384  0.00  0.00     0.037 H 
ATOM     17  H4  LIA d          -0.680  24.372   9.960  0.00  0.00     0.037 H 
ATOM     18  N1  LIA d           2.032  24.106   9.797  0.00  0.00    -0.211 NA
ATOM     19  H1  LIA d           1.395  22.108  10.146  0.00  0.00     0.057 H 
ATOM     20  H2  LIA d           0.770  22.851   8.635  0.00  0.00     0.057 H 
ATOM     21  C6  LIA d           2.446  24.295  11.220  0.00  0.00    -0.005 C 
ATOM     22  C5  LIA d           1.233  24.780  12.043  0.00  0.00    -0.034 C 
ATOM     23  H8  LIA d           3.248  25.045  11.272  0.00  0.00     0.057 H 
ATOM     24  H9  LIA d           2.808  23.341  11.628  0.00  0.00     0.057 H 
ATOM     25  H6  LIA d           1.528  24.867  13.099  0.00  0.00     0.037 H 
ATOM     26  H7  LIA d           0.915  25.765  11.669  0.00  0.00     0.037 H 
ATOM     27  H5  LIA d           0.306  22.843  12.442  0.00  0.00     0.073 H 
BRANCH  18  28
ATOM     28  S27 LIA d           3.370  23.755   8.814  0.00  0.00     0.207 S 
ATOM     29  O29 LIA d           2.911  22.920   7.727  0.00  0.00    -0.212 OA
ATOM     30  O30 LIA d           4.343  23.039   9.592  0.00  0.00    -0.212 OA
BRANCH  28  31
ATOM     31  C28 LIA d           4.135  25.258   8.109  0.00  0.00     0.028 C 
ATOM     32  H19 LIA d           4.911  25.631   8.793  0.00  0.00     0.050 H 
ATOM     33  H20 LIA d           3.364  26.032   7.972  0.00  0.00     0.050 H 
ATOM     34  H21 LIA d           4.589  25.017   7.136  0.00  0.00     0.050 H 
ENDBRANCH  28  31
ENDBRANCH  18  28
ENDBRANCH   1  13
BRANCH   5  35
ATOM     35  C14 LIA d          -3.401  28.703   9.878  0.00  0.00     0.203 C 
ATOM     36  O15 LIA d          -4.457  28.604   9.230  0.00  0.00    -0.286 OA
BRANCH  35  37
ATOM     37  C16 LIA d          -2.709  29.972   9.867  0.00  0.00     0.090 A 
ATOM     38  C17 LIA d          -3.085  30.991  10.812  0.00  0.00     0.171 A 
ATOM     39  C18 LIA d          -2.407  32.250  10.827  0.00  0.00     0.156 A 
ATOM     40  F24 LIA d          -4.066  30.782  11.685  0.00  0.00    -0.202 F 
ATOM     41  C19 LIA d          -1.350  32.516   9.909  0.00  0.00    -0.040 A 
ATOM     42  F25 LIA d          -2.758  33.178  11.698  0.00  0.00    -0.203 F 
ATOM     43  C20 LIA d          -0.961  31.528   8.962  0.00  0.00    -0.047 A 
ATOM     44  H12 LIA d          -0.840  33.473   9.933  0.00  0.00     0.088 H 
ATOM     45  C21 LIA d          -1.625  30.241   8.916  0.00  0.00     0.085 A 
ATOM     46  H13 LIA d          -0.157  31.741   8.266  0.00  0.00     0.087 H 
BRANCH  45  47
ATOM     47  O22 LIA d          -1.273  29.235   7.989  0.00  0.00    -0.355 OA
BRANCH  47  48
ATOM     48  C23 LIA d           0.143  29.212   7.681  0.00  0.00     0.010 C 
ATOM     49  H14 LIA d           0.708  29.645   8.520  0.00  0.00     0.066 H 
ATOM     50  H15 LIA d           0.331  29.802   6.772  0.00  0.00     0.066 H 
ATOM     51  H16 LIA d           0.467  28.174   7.518  0.00  0.00     0.066 H 
ENDBRANCH  47  48
ENDBRANCH  45  47
ENDBRANCH  35  37
ENDBRANCH   5  35
TORSDOF 7
ENDMDL
MODEL 4
REMARK VINA RESULT:      -7.2      1.937      2.534
REMARK  7 active torsions:
REMARK  status: ('A' for Active; 'I' for Inactive)
REMARK    1  A    between atoms: N1_1  and  S27_27 
REMARK    2  A    between atoms: C4_4  and  N7_7 
REMARK    3  A    between atoms: C11_11  and  C14_14 
REMARK    4  A    between atoms: C14_14  and  C16_16 
REMARK    5  A    between atoms: C21_21  and  O22_22 
REMARK    6  A    between atoms: O22_22  and  C23_23 
REMARK    7  A    between atoms: S27_27  and  C28_28 
ROOT
ATOM      1  N7  LIA d           2.120  28.891   6.681  0.00  0.00    -0.218 N 
ATOM      2  C8  LIA d           1.520  28.714   7.893  0.00  0.00     0.724 A 
ATOM      3  N9  LIA d           1.852  27.673   8.705  0.00  0.00    -0.074 NA
ATOM      4  C10 LIA d           1.274  27.537   9.858  0.00  0.00     0.038 A 
ATOM      5  C11 LIA d           0.262  28.457  10.343  0.00  0.00     0.079 A 
ATOM      6  C12 LIA d          -0.070  29.543   9.447  0.00  0.00     0.156 A 
ATOM      7  N13 LIA d           0.577  29.639   8.237  0.00  0.00    -0.045 NA
ATOM      8  N26 LIA d          -0.988  30.483   9.736  0.00  0.00    -0.383 N 
ATOM      9  H10 LIA d           1.699  29.453   5.928  0.00  0.00     0.178 HD
ATOM     10  H11 LIA d           1.557  26.700  10.485  0.00  0.00     0.117 H 
ATOM     11  H17 LIA d          -1.186  31.236   9.061  0.00  0.00     0.157 HD
ATOM     12  H18 LIA d          -1.494  30.451  10.633  0.00  0.00     0.157 HD
ENDROOT
BRANCH   1  13
ATOM     13  C4  LIA d           3.417  28.215   6.537  0.00  0.00     0.029 C 
ATOM     14  C3  LIA d           4.112  28.212   7.923  0.00  0.00    -0.034 C 
ATOM     15  C2  LIA d           5.413  27.383   7.881  0.00  0.00    -0.005 C 
ATOM     16  H3  LIA d           4.352  29.247   8.209  0.00  0.00     0.037 H 
ATOM     17  H4  LIA d           3.430  27.775   8.667  0.00  0.00     0.037 H 
ATOM     18  N1  LIA d           5.102  25.990   7.456  0.00  0.00    -0.211 NA
ATOM     19  H1  LIA d           6.113  27.838   7.164  0.00  0.00     0.057 H 
ATOM     20  H2  LIA d           5.871  27.368   8.881  0.00  0.00     0.057 H 
ATOM     21  C6  LIA d           4.578  25.977   6.057  0.00  0.00    -0.005 C 
ATOM     22  C5  LIA d           3.242  26.750   6.007  0.00  0.00    -0.034 C 
ATOM     23  H8  LIA d           4.413  24.939   5.736  0.00  0.00     0.057 H 
ATOM     24  H9  LIA d           5.305  26.458   5.387  0.00  0.00     0.057 H 
ATOM     25  H6  LIA d           2.886  26.784   4.966  0.00  0.00     0.037 H 
ATOM     26  H7  LIA d           2.501  26.228   6.631  0.00  0.00     0.037 H 
ATOM     27  H5  LIA d           4.037  28.776   5.822  0.00  0.00     0.073 H 
BRANCH  18  28
ATOM     28  S27 LIA d           6.470  24.997   7.603  0.00  0.00     0.207 S 
ATOM     29  O29 LIA d           6.057  23.771   8.249  0.00  0.00    -0.212 OA
ATOM     30  O30 LIA d           7.444  25.666   8.422  0.00  0.00    -0.212 OA
BRANCH  28  31
ATOM     31  C28 LIA d           7.211  24.579   5.986  0.00  0.00     0.028 C 
ATOM     32  H19 LIA d           6.413  24.415   5.248  0.00  0.00     0.050 H 
ATOM     33  H20 LIA d           7.813  23.663   6.084  0.00  0.00     0.050 H 
ATOM     34  H21 LIA d           7.854  25.407   5.652  0.00  0.00     0.050 H 
ENDBRANCH  28  31
ENDBRANCH  18  28
ENDBRANCH   1  13
BRANCH   5  35
ATOM     35  C14 LIA d          -0.337  28.254  11.653  0.00  0.00     0.203 C 
ATOM     36  O15 LIA d           0.009  28.951  12.623  0.00  0.00    -0.286 OA
BRANCH  35  37
ATOM     37  C16 LIA d          -1.329  27.225  11.872  0.00  0.00     0.090 A 
ATOM     38  C17 LIA d          -0.909  25.923  12.321  0.00  0.00     0.171 A 
ATOM     39  C18 LIA d          -1.872  24.892  12.554  0.00  0.00     0.156 A 
ATOM     40  F24 LIA d           0.378  25.654  12.524  0.00  0.00    -0.202 F 
ATOM     41  C19 LIA d          -3.261  25.137  12.348  0.00  0.00    -0.040 A 
ATOM     42  F25 LIA d          -1.478  23.701  12.966  0.00  0.00    -0.203 F 
ATOM     43  C20 LIA d          -3.703  26.414  11.901  0.00  0.00    -0.047 A 
ATOM     44  H12 LIA d          -3.983  24.349  12.532  0.00  0.00     0.088 H 
ATOM     45  C21 LIA d          -2.756  27.482  11.654  0.00  0.00     0.085 A 
ATOM     46  H13 LIA d          -4.761  26.589  11.744  0.00  0.00     0.087 H 
BRANCH  45  47
ATOM     47  O22 LIA d          -3.152  28.762  11.205  0.00  0.00    -0.355 OA
BRANCH  47  48
ATOM     48  C23 LIA d          -4.329  28.731  10.360  0.00  0.00     0.010 C 
ATOM     49  H14 LIA d          -5.000  27.926  10.694  0.00  0.00     0.066 H 
ATOM     50  H15 LIA d          -4.029  28.549   9.318  0.00  0.00     0.066 H 
ATOM     51  H16 LIA d          -4.853  29.696  10.427  0.00  0.00     0.066 H 
ENDBRANCH  47  48
ENDBRANCH  45  47
ENDBRANCH  35  37
ENDBRANCH   5  35
TORSDOF 7
ENDMDL
MODEL 5
REMARK VINA RESULT:      -6.9      2.607      3.967
REMARK  7 active torsions:
REMARK  status: ('A' for Active; 'I' for Inactive)
REMARK    1  A    between atoms: N1_1  and  S27_27 
REMARK    2  A    between atoms: C4_4  and  N7_7 
REMARK    3  A    between atoms: C11_11  and  C14_14 
REMARK    4  A    between atoms: C14_14  and  C16_16 
REMARK    5  A    between atoms: C21_21  and  O22_22 
REMARK    6  A    between atoms: O22_22  and  C23_23 
REMARK    7  A    between atoms: S27_27  and  C28_28 
ROOT
ATOM      1  N7  LIA d           3.291  25.463   9.917  0.00  0.00    -0.218 N 
ATOM      2  C8  LIA d           2.126  26.173   9.904  0.00  0.00     0.724 A 
ATOM      3  N9  LIA d           1.704  26.823   8.786  0.00  0.00    -0.074 NA
ATOM      4  C10 LIA d           0.586  27.480   8.799  0.00  0.00     0.038 A 
ATOM      5  C11 LIA d          -0.263  27.564   9.974  0.00  0.00     0.079 A 
ATOM      6  C12 LIA d           0.226  26.869  11.143  0.00  0.00     0.156 A 
ATOM      7  N13 LIA d           1.418  26.186  11.071  0.00  0.00    -0.045 NA
ATOM      8  N26 LIA d          -0.432  26.847  12.317  0.00  0.00    -0.383 N 
ATOM      9  H10 LIA d           3.791  25.228  10.787  0.00  0.00     0.178 HD
ATOM     10  H11 LIA d           0.272  27.989   7.895  0.00  0.00     0.117 H 
ATOM     11  H17 LIA d          -0.037  26.335  13.120  0.00  0.00     0.157 HD
ATOM     12  H18 LIA d          -1.330  27.342  12.414  0.00  0.00     0.157 HD
ENDROOT
BRANCH   1  13
ATOM     13  C4  LIA d           3.775  25.059   8.590  0.00  0.00     0.029 C 
ATOM     14  C3  LIA d           4.781  26.133   8.100  0.00  0.00    -0.034 C 
ATOM     15  C2  LIA d           5.446  25.697   6.777  0.00  0.00    -0.005 C 
ATOM     16  H3  LIA d           4.246  27.081   7.940  0.00  0.00     0.037 H 
ATOM     17  H4  LIA d           5.558  26.275   8.865  0.00  0.00     0.037 H 
ATOM     18  N1  LIA d           6.138  24.393   6.975  0.00  0.00    -0.211 NA
ATOM     19  H1  LIA d           4.676  25.589   5.999  0.00  0.00     0.057 H 
ATOM     20  H2  LIA d           6.177  26.457   6.467  0.00  0.00     0.057 H 
ATOM     21  C6  LIA d           5.148  23.321   7.294  0.00  0.00    -0.005 C 
ATOM     22  C5  LIA d           4.458  23.648   8.635  0.00  0.00    -0.034 C 
ATOM     23  H8  LIA d           5.667  22.355   7.374  0.00  0.00     0.057 H 
ATOM     24  H9  LIA d           4.394  23.268   6.496  0.00  0.00     0.057 H 
ATOM     25  H6  LIA d           3.692  22.885   8.840  0.00  0.00     0.037 H 
ATOM     26  H7  LIA d           5.210  23.638   9.438  0.00  0.00     0.037 H 
ATOM     27  H5  LIA d           2.924  25.015   7.895  0.00  0.00     0.073 H 
BRANCH  18  28
ATOM     28  S27 LIA d           7.058  23.987   5.608  0.00  0.00     0.207 S 
ATOM     29  O29 LIA d           7.819  22.799   5.925  0.00  0.00    -0.212 OA
ATOM     30  O30 LIA d           7.958  25.069   5.316  0.00  0.00    -0.212 OA
BRANCH  28  31
ATOM     31  C28 LIA d           6.021  23.639   4.144  0.00  0.00     0.028 C 
ATOM     32  H19 LIA d           5.453  22.711   4.308  0.00  0.00     0.050 H 
ATOM     33  H20 LIA d           6.664  23.522   3.258  0.00  0.00     0.050 H 
ATOM     34  H21 LIA d           5.322  24.472   3.982  0.00  0.00     0.050 H 
ENDBRANCH  28  31
ENDBRANCH  18  28
ENDBRANCH   1  13
BRANCH   5  35
ATOM     35  C14 LIA d          -1.513  28.307   9.916  0.00  0.00     0.203 C 
ATOM     36  O15 LIA d          -2.605  27.712   9.938  0.00  0.00    -0.286 OA
BRANCH  35  37
ATOM     37  C16 LIA d          -1.523  29.748   9.806  0.00  0.00     0.090 A 
ATOM     38  C17 LIA d          -2.235  30.527  10.786  0.00  0.00     0.171 A 
ATOM     39  C18 LIA d          -2.250  31.954  10.705  0.00  0.00     0.156 A 
ATOM     40  F24 LIA d          -2.890  29.936  11.781  0.00  0.00    -0.202 F 
ATOM     41  C19 LIA d          -1.561  32.629   9.654  0.00  0.00    -0.040 A 
ATOM     42  F25 LIA d          -2.904  32.661  11.608  0.00  0.00    -0.203 F 
ATOM     43  C20 LIA d          -0.853  31.883   8.671  0.00  0.00    -0.047 A 
ATOM     44  H12 LIA d          -1.576  33.712   9.605  0.00  0.00     0.088 H 
ATOM     45  C21 LIA d          -0.816  30.436   8.720  0.00  0.00     0.085 A 
ATOM     46  H13 LIA d          -0.334  32.405   7.874  0.00  0.00     0.087 H 
BRANCH  45  47
ATOM     47  O22 LIA d          -0.129  29.658   7.762  0.00  0.00    -0.355 OA
BRANCH  47  48
ATOM     48  C23 LIA d           1.003  30.346   7.173  0.00  0.00     0.010 C 
ATOM     49  H14 LIA d           1.350  29.792   6.289  0.00  0.00     0.066 H 
ATOM     50  H15 LIA d           1.817  30.409   7.909  0.00  0.00     0.066 H 
ATOM     51  H16 LIA d           0.700  31.361   6.875  0.00  0.00     0.066 H 
ENDBRANCH  47  48
ENDBRANCH  45  47
ENDBRANCH  35  37
ENDBRANCH   5  35
TORSDOF 7
ENDMDL
MODEL 6
REMARK VINA RESULT:      -6.8      2.742      3.738
REMARK  7 active torsions:
REMARK  status: ('A' for Active; 'I' for Inactive)
REMARK    1  A    between atoms: N1_1  and  S27_27 
REMARK    2  A    between atoms: C4_4  and  N7_7 
REMARK    3  A    between atoms: C11_11  and  C14_14 
REMARK    4  A    between atoms: C14_14  and  C16_16 
REMARK    5  A    between atoms: C21_21  and  O22_22 
REMARK    6  A    between atoms: O22_22  and  C23_23 
REMARK    7  A    between atoms: S27_27  and  C28_28 
ROOT
ATOM      1  N7  LIA d           4.690  27.147   9.137  0.00  0.00    -0.218 N 
ATOM      2  C8  LIA d           3.348  27.391   9.161  0.00  0.00     0.724 A 
ATOM      3  N9  LIA d           2.657  27.670   8.022  0.00  0.00    -0.074 NA
ATOM      4  C10 LIA d           1.379  27.887   8.073  0.00  0.00     0.038 A 
ATOM      5  C11 LIA d           0.625  27.849   9.312  0.00  0.00     0.079 A 
ATOM      6  C12 LIA d           1.397  27.559  10.500  0.00  0.00     0.156 A 
ATOM      7  N13 LIA d           2.749  27.336  10.386  0.00  0.00    -0.045 NA
ATOM      8  N26 LIA d           0.857  27.489  11.731  0.00  0.00    -0.383 N 
ATOM      9  H10 LIA d           5.288  27.240   9.971  0.00  0.00     0.178 HD
ATOM     10  H11 LIA d           0.853  28.106   7.151  0.00  0.00     0.117 H 
ATOM     11  H17 LIA d           1.455  27.279  12.544  0.00  0.00     0.157 HD
ATOM     12  H18 LIA d          -0.152  27.646  11.861  0.00  0.00     0.157 HD
ENDROOT
BRANCH   1  13
ATOM     13  C4  LIA d           5.213  26.739   7.827  0.00  0.00     0.029 C 
ATOM     14  C3  LIA d           6.686  26.294   8.016  0.00  0.00    -0.034 C 
ATOM     15  C2  LIA d           7.254  25.708   6.706  0.00  0.00    -0.005 C 
ATOM     16  H3  LIA d           7.290  27.163   8.314  0.00  0.00     0.037 H 
ATOM     17  H4  LIA d           6.733  25.528   8.804  0.00  0.00     0.037 H 
ATOM     18  N1  LIA d           6.417  24.553   6.274  0.00  0.00    -0.211 NA
ATOM     19  H1  LIA d           7.243  26.481   5.924  0.00  0.00     0.057 H 
ATOM     20  H2  LIA d           8.287  25.369   6.873  0.00  0.00     0.057 H 
ATOM     21  C6  LIA d           5.035  25.009   5.939  0.00  0.00    -0.005 C 
ATOM     22  C5  LIA d           4.363  25.575   7.209  0.00  0.00    -0.034 C 
ATOM     23  H8  LIA d           4.449  24.158   5.562  0.00  0.00     0.057 H 
ATOM     24  H9  LIA d           5.082  25.792   5.169  0.00  0.00     0.057 H 
ATOM     25  H6  LIA d           3.366  25.958   6.946  0.00  0.00     0.037 H 
ATOM     26  H7  LIA d           4.263  24.770   7.952  0.00  0.00     0.037 H 
ATOM     27  H5  LIA d           5.179  27.599   7.142  0.00  0.00     0.073 H 
BRANCH  18  28
ATOM     28  S27 LIA d           7.131  23.752   4.960  0.00  0.00     0.207 S 
ATOM     29  O29 LIA d           8.116  22.833   5.486  0.00  0.00    -0.212 OA
ATOM     30  O30 LIA d           7.780  24.722   4.121  0.00  0.00    -0.212 OA
BRANCH  28  31
ATOM     31  C28 LIA d           5.918  22.802   3.975  0.00  0.00     0.028 C 
ATOM     32  H19 LIA d           5.791  21.802   4.415  0.00  0.00     0.050 H 
ATOM     33  H20 LIA d           6.282  22.704   2.941  0.00  0.00     0.050 H 
ATOM     34  H21 LIA d           4.952  23.328   3.976  0.00  0.00     0.050 H 
ENDBRANCH  28  31
ENDBRANCH  18  28
ENDBRANCH   1  13
BRANCH   5  35
ATOM     35  C14 LIA d          -0.811  28.086   9.297  0.00  0.00     0.203 C 
ATOM     36  O15 LIA d          -1.593  27.215   8.878  0.00  0.00    -0.286 OA
BRANCH  35  37
ATOM     37  C16 LIA d          -1.366  29.344   9.742  0.00  0.00     0.090 A 
ATOM     38  C17 LIA d          -1.053  30.550   9.020  0.00  0.00     0.171 A 
ATOM     39  C18 LIA d          -1.598  31.805   9.436  0.00  0.00     0.156 A 
ATOM     40  F24 LIA d          -0.252  30.521   7.959  0.00  0.00    -0.202 F 
ATOM     41  C19 LIA d          -2.461  31.882  10.568  0.00  0.00    -0.040 A 
ATOM     42  F25 LIA d          -1.307  32.906   8.768  0.00  0.00    -0.203 F 
ATOM     43  C20 LIA d          -2.784  30.706  11.302  0.00  0.00    -0.047 A 
ATOM     44  H12 LIA d          -2.873  32.839  10.871  0.00  0.00     0.088 H 
ATOM     45  C21 LIA d          -2.249  29.418  10.911  0.00  0.00     0.085 A 
ATOM     46  H13 LIA d          -3.438  30.776  12.163  0.00  0.00     0.087 H 
BRANCH  45  47
ATOM     47  O22 LIA d          -2.540  28.227  11.614  0.00  0.00    -0.355 OA
BRANCH  47  48
ATOM     48  C23 LIA d          -3.855  27.694  11.314  0.00  0.00     0.010 C 
ATOM     49  H14 LIA d          -3.831  27.188  10.338  0.00  0.00     0.066 H 
ATOM     50  H15 LIA d          -4.585  28.516  11.282  0.00  0.00     0.066 H 
ATOM     51  H16 LIA d          -4.146  26.975  12.094  0.00  0.00     0.066 H 
ENDBRANCH  47  48
ENDBRANCH  45  47
ENDBRANCH  35  37
ENDBRANCH   5  35
TORSDOF 7
ENDMDL
MODEL 7
REMARK VINA RESULT:      -6.5      3.991      8.846
REMARK  7 active torsions:
REMARK  status: ('A' for Active; 'I' for Inactive)
REMARK    1  A    between atoms: N1_1  and  S27_27 
REMARK    2  A    between atoms: C4_4  and  N7_7 
REMARK    3  A    between atoms: C11_11  and  C14_14 
REMARK    4  A    between atoms: C14_14  and  C16_16 
REMARK    5  A    between atoms: C21_21  and  O22_22 
REMARK    6  A    between atoms: O22_22  and  C23_23 
REMARK    7  A    between atoms: S27_27  and  C28_28 
ROOT
ATOM      1  N7  LIA d          -0.578  25.823  12.259  0.00  0.00    -0.218 N 
ATOM      2  C8  LIA d           0.431  25.476  11.410  0.00  0.00     0.724 A 
ATOM      3  N9  LIA d           0.507  25.988  10.152  0.00  0.00    -0.074 NA
ATOM      4  C10 LIA d           1.485  25.649   9.369  0.00  0.00     0.038 A 
ATOM      5  C11 LIA d           2.531  24.728   9.773  0.00  0.00     0.079 A 
ATOM      6  C12 LIA d           2.409  24.199  11.114  0.00  0.00     0.156 A 
ATOM      7  N13 LIA d           1.352  24.595  11.900  0.00  0.00    -0.045 NA
ATOM      8  N26 LIA d           3.288  23.331  11.647  0.00  0.00    -0.383 N 
ATOM      9  H10 LIA d          -0.845  25.249  13.071  0.00  0.00     0.178 HD
ATOM     10  H11 LIA d           1.523  26.072   8.372  0.00  0.00     0.117 H 
ATOM     11  H17 LIA d           3.152  22.985  12.609  0.00  0.00     0.157 HD
ATOM     12  H18 LIA d           4.096  23.011  11.095  0.00  0.00     0.157 HD
ENDROOT
BRANCH   1  13
ATOM     13  C4  LIA d          -1.253  27.084  11.923  0.00  0.00     0.029 C 
ATOM     14  C3  LIA d          -0.197  28.219  11.967  0.00  0.00    -0.034 C 
ATOM     15  C2  LIA d          -0.804  29.550  11.475  0.00  0.00    -0.005 C 
ATOM     16  H3  LIA d           0.155  28.344  13.002  0.00  0.00     0.037 H 
ATOM     17  H4  LIA d           0.650  27.949  11.321  0.00  0.00     0.037 H 
ATOM     18  N1  LIA d          -1.321  29.379  10.089  0.00  0.00    -0.211 NA
ATOM     19  H1  LIA d          -1.630  29.844  12.140  0.00  0.00     0.057 H 
ATOM     20  H2  LIA d          -0.031  30.332  11.484  0.00  0.00     0.057 H 
ATOM     21  C6  LIA d          -2.447  28.398  10.070  0.00  0.00    -0.005 C 
ATOM     22  C5  LIA d          -1.924  27.013  10.508  0.00  0.00    -0.034 C 
ATOM     23  H8  LIA d          -2.859  28.331   9.053  0.00  0.00     0.057 H 
ATOM     24  H9  LIA d          -3.234  28.729  10.763  0.00  0.00     0.057 H 
ATOM     25  H6  LIA d          -2.767  26.307  10.544  0.00  0.00     0.037 H 
ATOM     26  H7  LIA d          -1.182  26.662   9.775  0.00  0.00     0.037 H 
ATOM     27  H5  LIA d          -2.033  27.285  12.672  0.00  0.00     0.073 H 
BRANCH  18  28
ATOM     28  S27 LIA d          -1.800  30.871   9.437  0.00  0.00     0.207 S 
ATOM     29  O29 LIA d          -2.924  30.628   8.561  0.00  0.00    -0.212 OA
ATOM     30  O30 LIA d          -0.709  31.418   8.677  0.00  0.00    -0.212 OA
BRANCH  28  31
ATOM     31  C28 LIA d          -2.313  32.065  10.722  0.00  0.00     0.028 C 
ATOM     32  H19 LIA d          -2.162  33.090  10.352  0.00  0.00     0.050 H 
ATOM     33  H20 LIA d          -1.708  31.911  11.628  0.00  0.00     0.050 H 
ATOM     34  H21 LIA d          -3.376  31.914  10.960  0.00  0.00     0.050 H 
ENDBRANCH  28  31
ENDBRANCH  18  28
ENDBRANCH   1  13
BRANCH   5  35
ATOM     35  C14 LIA d           3.609  24.402   8.851  0.00  0.00     0.203 C 
ATOM     36  O15 LIA d           4.171  23.294   8.899  0.00  0.00    -0.286 OA
BRANCH  35  37
ATOM     37  C16 LIA d           4.073  25.361   7.874  0.00  0.00     0.090 A 
ATOM     38  C17 LIA d           4.346  26.714   8.285  0.00  0.00     0.171 A 
ATOM     39  C18 LIA d           4.815  27.677   7.339  0.00  0.00     0.156 A 
ATOM     40  F24 LIA d           4.163  27.092   9.547  0.00  0.00    -0.202 F 
ATOM     41  C19 LIA d           5.024  27.315   5.976  0.00  0.00    -0.040 A 
ATOM     42  F25 LIA d           5.063  28.915   7.725  0.00  0.00    -0.203 F 
ATOM     43  C20 LIA d           4.759  25.985   5.543  0.00  0.00    -0.047 A 
ATOM     44  H12 LIA d           5.385  28.053   5.269  0.00  0.00     0.088 H 
ATOM     45  C21 LIA d           4.281  24.982   6.473  0.00  0.00     0.085 A 
ATOM     46  H13 LIA d           4.918  25.720   4.504  0.00  0.00     0.087 H 
BRANCH  45  47
ATOM     47  O22 LIA d           4.002  23.653   6.083  0.00  0.00    -0.355 OA
BRANCH  47  48
ATOM     48  C23 LIA d           4.062  23.455   4.648  0.00  0.00     0.010 C 
ATOM     49  H14 LIA d           5.095  23.217   4.353  0.00  0.00     0.066 H 
ATOM     50  H15 LIA d           3.739  24.374   4.137  0.00  0.00     0.066 H 
ATOM     51  H16 LIA d           3.399  22.625   4.364  0.00  0.00     0.066 H 
ENDBRANCH  47  48
ENDBRANCH  45  47
ENDBRANCH  35  37
ENDBRANCH   5  35
TORSDOF 7
ENDMDL
MODEL 8
REMARK VINA RESULT:      -6.4      2.164      2.973
REMARK  7 active torsions:
REMARK  status: ('A' for Active; 'I' for Inactive)
REMARK    1  A    between atoms: N1_1  and  S27_27 
REMARK    2  A    between atoms: C4_4  and  N7_7 
REMARK    3  A    between atoms: C11_11  and  C14_14 
REMARK    4  A    between atoms: C14_14  and  C16_16 
REMARK    5  A    between atoms: C21_21  and  O22_22 
REMARK    6  A    between atoms: O22_22  and  C23_23 
REMARK    7  A    between atoms: S27_27  and  C28_28 
ROOT
ATOM      1  N7  LIA d           2.488  28.778   6.125  0.00  0.00    -0.218 N 
ATOM      2  C8  LIA d           1.889  28.690   7.348  0.00  0.00     0.724 A 
ATOM      3  N9  LIA d           2.232  27.719   8.237  0.00  0.00    -0.074 NA
ATOM      4  C10 LIA d           1.655  27.666   9.398  0.00  0.00     0.038 A 
ATOM      5  C11 LIA d           0.634  28.611   9.811  0.00  0.00     0.079 A 
ATOM      6  C12 LIA d           0.291  29.621   8.834  0.00  0.00     0.156 A 
ATOM      7  N13 LIA d           0.937  29.629   7.619  0.00  0.00    -0.045 NA
ATOM      8  N26 LIA d          -0.637  30.571   9.050  0.00  0.00    -0.383 N 
ATOM      9  H10 LIA d           2.061  29.275   5.331  0.00  0.00     0.178 HD
ATOM     10  H11 LIA d           1.947  26.883  10.088  0.00  0.00     0.117 H 
ATOM     11  H17 LIA d          -0.843  31.267   8.318  0.00  0.00     0.157 HD
ATOM     12  H18 LIA d          -1.143  30.603   9.947  0.00  0.00     0.157 HD
ENDROOT
BRANCH   1  13
ATOM     13  C4  LIA d           3.791  28.107   6.033  0.00  0.00     0.029 C 
ATOM     14  C3  LIA d           4.294  27.836   7.475  0.00  0.00    -0.034 C 
ATOM     15  C2  LIA d           5.588  26.995   7.454  0.00  0.00    -0.005 C 
ATOM     16  H3  LIA d           4.494  28.795   7.973  0.00  0.00     0.037 H 
ATOM     17  H4  LIA d           3.517  27.289   8.030  0.00  0.00     0.037 H 
ATOM     18  N1  LIA d           5.335  25.710   6.745  0.00  0.00    -0.211 NA
ATOM     19  H1  LIA d           6.379  27.553   6.931  0.00  0.00     0.057 H 
ATOM     20  H2  LIA d           5.907  26.788   8.486  0.00  0.00     0.057 H 
ATOM     21  C6  LIA d           5.004  25.963   5.311  0.00  0.00    -0.005 C 
ATOM     22  C5  LIA d           3.688  26.766   5.226  0.00  0.00    -0.034 C 
ATOM     23  H8  LIA d           4.883  25.004   4.787  0.00  0.00     0.057 H 
ATOM     24  H9  LIA d           5.815  26.538   4.842  0.00  0.00     0.057 H 
ATOM     25  H6  LIA d           3.475  26.996   4.172  0.00  0.00     0.037 H 
ATOM     26  H7  LIA d           2.869  26.159   5.642  0.00  0.00     0.037 H 
ATOM     27  H5  LIA d           4.502  28.771   5.520  0.00  0.00     0.073 H 
BRANCH  18  28
ATOM     28  S27 LIA d           6.670  24.672   6.889  0.00  0.00     0.207 S 
ATOM     29  O29 LIA d           6.694  24.170   8.245  0.00  0.00    -0.212 OA
ATOM     30  O30 LIA d           7.871  25.420   6.633  0.00  0.00    -0.212 OA
BRANCH  28  31
ATOM     31  C28 LIA d           6.578  23.249   5.745  0.00  0.00     0.028 C 
ATOM     32  H19 LIA d           5.539  22.894   5.684  0.00  0.00     0.050 H 
ATOM     33  H20 LIA d           7.221  22.437   6.117  0.00  0.00     0.050 H 
ATOM     34  H21 LIA d           6.919  23.559   4.746  0.00  0.00     0.050 H 
ENDBRANCH  28  31
ENDBRANCH  18  28
ENDBRANCH   1  13
BRANCH   5  35
ATOM     35  C14 LIA d           0.037  28.505  11.134  0.00  0.00     0.203 C 
ATOM     36  O15 LIA d           0.483  29.169  12.085  0.00  0.00    -0.286 OA
BRANCH  35  37
ATOM     37  C16 LIA d          -1.071  27.610  11.385  0.00  0.00     0.090 A 
ATOM     38  C17 LIA d          -2.419  28.095  11.238  0.00  0.00     0.171 A 
ATOM     39  C18 LIA d          -3.530  27.226  11.471  0.00  0.00     0.156 A 
ATOM     40  F24 LIA d          -2.655  29.356  10.888  0.00  0.00    -0.202 F 
ATOM     41  C19 LIA d          -3.322  25.868  11.849  0.00  0.00    -0.040 A 
ATOM     42  F25 LIA d          -4.762  27.679  11.334  0.00  0.00    -0.203 F 
ATOM     43  C20 LIA d          -2.000  25.363  12.005  0.00  0.00    -0.047 A 
ATOM     44  H12 LIA d          -4.173  25.217  12.019  0.00  0.00     0.088 H 
ATOM     45  C21 LIA d          -0.850  26.214  11.779  0.00  0.00     0.085 A 
ATOM     46  H13 LIA d          -1.853  24.330  12.296  0.00  0.00     0.087 H 
BRANCH  45  47
ATOM     47  O22 LIA d           0.478  25.756  11.927  0.00  0.00    -0.355 OA
BRANCH  47  48
ATOM     48  C23 LIA d           0.735  24.517  11.219  0.00  0.00     0.010 C 
ATOM     49  H14 LIA d          -0.041  23.780  11.475  0.00  0.00     0.066 H 
ATOM     50  H15 LIA d           1.721  24.126  11.511  0.00  0.00     0.066 H 
ATOM     51  H16 LIA d           0.722  24.704  10.136  0.00  0.00     0.066 H 
ENDBRANCH  47  48
ENDBRANCH  45  47
ENDBRANCH  35  37
ENDBRANCH   5  35
TORSDOF 7
ENDMDL
MODEL 9
REMARK VINA RESULT:      -6.3      4.351      8.177
REMARK  7 active torsions:
REMARK  status: ('A' for Active; 'I' for Inactive)
REMARK    1  A    between atoms: N1_1  and  S27_27 
REMARK    2  A    between atoms: C4_4  and  N7_7 
REMARK    3  A    between atoms: C11_11  and  C14_14 
REMARK    4  A    between atoms: C14_14  and  C16_16 
REMARK    5  A    between atoms: C21_21  and  O22_22 
REMARK    6  A    between atoms: O22_22  and  C23_23 
REMARK    7  A    between atoms: S27_27  and  C28_28 
ROOT
ATOM      1  N7  LIA d           0.268  29.050  10.298  0.00  0.00    -0.218 N 
ATOM      2  C8  LIA d           1.085  28.616   9.295  0.00  0.00     0.724 A 
ATOM      3  N9  LIA d           1.604  27.358   9.297  0.00  0.00    -0.074 NA
ATOM      4  C10 LIA d           2.369  26.969   8.324  0.00  0.00     0.038 A 
ATOM      5  C11 LIA d           2.710  27.824   7.202  0.00  0.00     0.079 A 
ATOM      6  C12 LIA d           2.146  29.155   7.243  0.00  0.00     0.156 A 
ATOM      7  N13 LIA d           1.342  29.514   8.299  0.00  0.00    -0.045 NA
ATOM      8  N26 LIA d           2.364  30.077   6.287  0.00  0.00    -0.383 N 
ATOM      9  H10 LIA d           0.113  30.049  10.497  0.00  0.00     0.178 HD
ATOM     10  H11 LIA d           2.769  25.962   8.349  0.00  0.00     0.117 H 
ATOM     11  H17 LIA d           1.937  31.012   6.366  0.00  0.00     0.157 HD
ATOM     12  H18 LIA d           2.958  29.850   5.477  0.00  0.00     0.157 HD
ENDROOT
BRANCH   1  13
ATOM     13  C4  LIA d          -0.373  27.978  11.071  0.00  0.00     0.029 C 
ATOM     14  C3  LIA d          -1.439  27.306  10.167  0.00  0.00    -0.034 C 
ATOM     15  C2  LIA d          -2.047  26.070  10.863  0.00  0.00    -0.005 C 
ATOM     16  H3  LIA d          -2.239  28.031   9.954  0.00  0.00     0.037 H 
ATOM     17  H4  LIA d          -0.967  26.993   9.224  0.00  0.00     0.037 H 
ATOM     18  N1  LIA d          -0.964  25.101  11.192  0.00  0.00    -0.211 NA
ATOM     19  H1  LIA d          -2.551  26.383  11.789  0.00  0.00     0.057 H 
ATOM     20  H2  LIA d          -2.775  25.592  10.192  0.00  0.00     0.057 H 
ATOM     21  C6  LIA d          -0.020  25.693  12.186  0.00  0.00    -0.005 C 
ATOM     22  C5  LIA d           0.677  26.920  11.560  0.00  0.00    -0.034 C 
ATOM     23  H8  LIA d           0.736  24.945  12.466  0.00  0.00     0.057 H 
ATOM     24  H9  LIA d          -0.577  26.005  13.082  0.00  0.00     0.057 H 
ATOM     25  H6  LIA d           1.331  27.385  12.313  0.00  0.00     0.037 H 
ATOM     26  H7  LIA d           1.282  26.591  10.702  0.00  0.00     0.037 H 
ATOM     27  H5  LIA d          -0.866  28.415  11.951  0.00  0.00     0.073 H 
BRANCH  18  28
ATOM     28  S27 LIA d          -1.615  23.642  11.762  0.00  0.00     0.207 S 
ATOM     29  O29 LIA d          -0.611  23.002  12.582  0.00  0.00    -0.212 OA
ATOM     30  O30 LIA d          -1.924  22.800  10.638  0.00  0.00    -0.212 OA
BRANCH  28  31
ATOM     31  C28 LIA d          -3.117  23.892  12.773  0.00  0.00     0.028 C 
ATOM     32  H19 LIA d          -3.006  24.805  13.375  0.00  0.00     0.050 H 
ATOM     33  H20 LIA d          -3.259  23.029  13.439  0.00  0.00     0.050 H 
ATOM     34  H21 LIA d          -3.991  23.993  12.112  0.00  0.00     0.050 H 
ENDBRANCH  28  31
ENDBRANCH  18  28
ENDBRANCH   1  13
BRANCH   5  35
ATOM     35  C14 LIA d           3.561  27.319   6.135  0.00  0.00     0.203 C 
ATOM     36  O15 LIA d           3.425  27.727   4.969  0.00  0.00    -0.286 OA
BRANCH  35  37
ATOM     37  C16 LIA d           4.568  26.314   6.393  0.00  0.00     0.090 A 
ATOM     38  C17 LIA d           5.558  26.550   7.412  0.00  0.00     0.171 A 
ATOM     39  C18 LIA d           6.557  25.567   7.693  0.00  0.00     0.156 A 
ATOM     40  F24 LIA d           5.563  27.684   8.107  0.00  0.00    -0.202 F 
ATOM     41  C19 LIA d           6.588  24.337   6.972  0.00  0.00    -0.040 A 
ATOM     42  F25 LIA d           7.460  25.791   8.629  0.00  0.00    -0.203 F 
ATOM     43  C20 LIA d           5.624  24.080   5.957  0.00  0.00    -0.047 A 
ATOM     44  H12 LIA d           7.348  23.597   7.197  0.00  0.00     0.088 H 
ATOM     45  C21 LIA d           4.597  25.053   5.645  0.00  0.00     0.085 A 
ATOM     46  H13 LIA d           5.658  23.143   5.412  0.00  0.00     0.087 H 
BRANCH  45  47
ATOM     47  O22 LIA d           3.625  24.839   4.643  0.00  0.00    -0.355 OA
BRANCH  47  48
ATOM     48  C23 LIA d           3.699  23.519   4.048  0.00  0.00     0.010 C 
ATOM     49  H14 LIA d           2.690  23.187   3.763  0.00  0.00     0.066 H 
ATOM     50  H15 LIA d           4.126  22.812   4.775  0.00  0.00     0.066 H 
ATOM     51  H16 LIA d           4.339  23.556   3.154  0.00  0.00     0.066 H 
ENDBRANCH  47  48
ENDBRANCH  45  47
ENDBRANCH  35  37
ENDBRANCH   5  35
TORSDOF 7
ENDMDL
MODEL 10
REMARK VINA RESULT:      -5.9      4.674      9.139
REMARK  7 active torsions:
REMARK  status: ('A' for Active; 'I' for Inactive)
REMARK    1  A    between atoms: N1_1  and  S27_27 
REMARK    2  A    between atoms: C4_4  and  N7_7 
REMARK    3  A    between atoms: C11_11  and  C14_14 
REMARK    4  A    between atoms: C14_14  and  C16_16 
REMARK    5  A    between atoms: C21_21  and  O22_22 
REMARK    6  A    between atoms: O22_22  and  C23_23 
REMARK    7  A    between atoms: S27_27  and  C28_28 
ROOT
ATOM      1  N7  LIA d          -0.479  25.711  12.948  0.00  0.00    -0.218 N 
ATOM      2  C8  LIA d           0.299  25.288  11.912  0.00  0.00     0.724 A 
ATOM      3  N9  LIA d          -0.003  25.601  10.623  0.00  0.00    -0.074 NA
ATOM      4  C10 LIA d           0.762  25.195   9.657  0.00  0.00     0.038 A 
ATOM      5  C11 LIA d           1.956  24.401   9.882  0.00  0.00     0.079 A 
ATOM      6  C12 LIA d           2.238  24.082  11.264  0.00  0.00     0.156 A 
ATOM      7  N13 LIA d           1.392  24.540  12.247  0.00  0.00    -0.045 NA
ATOM      8  N26 LIA d           3.300  23.352  11.651  0.00  0.00    -0.383 N 
ATOM      9  H10 LIA d          -0.472  25.257  13.873  0.00  0.00     0.178 HD
ATOM     10  H11 LIA d           0.499  25.458   8.639  0.00  0.00     0.117 H 
ATOM     11  H17 LIA d           3.453  23.154  12.651  0.00  0.00     0.157 HD
ATOM     12  H18 LIA d           3.961  22.992  10.948  0.00  0.00     0.157 HD
ENDROOT
BRANCH   1  13
ATOM     13  C4  LIA d          -1.330  26.869  12.640  0.00  0.00     0.029 C 
ATOM     14  C3  LIA d          -0.419  28.004  12.106  0.00  0.00    -0.034 C 
ATOM     15  C2  LIA d          -1.264  29.200  11.618  0.00  0.00    -0.005 C 
ATOM     16  H3  LIA d           0.250  28.339  12.912  0.00  0.00     0.037 H 
ATOM     17  H4  LIA d           0.181  27.621  11.268  0.00  0.00     0.037 H 
ATOM     18  N1  LIA d          -2.201  28.745  10.553  0.00  0.00    -0.211 NA
ATOM     19  H1  LIA d          -1.839  29.610  12.462  0.00  0.00     0.057 H 
ATOM     20  H2  LIA d          -0.600  29.978  11.214  0.00  0.00     0.057 H 
ATOM     21  C6  LIA d          -3.183  27.765  11.107  0.00  0.00    -0.005 C 
ATOM     22  C5  LIA d          -2.430  26.504  11.584  0.00  0.00    -0.034 C 
ATOM     23  H8  LIA d          -3.906  27.488  10.327  0.00  0.00     0.057 H 
ATOM     24  H9  LIA d          -3.715  28.218  11.957  0.00  0.00     0.057 H 
ATOM     25  H6  LIA d          -3.150  25.808  12.040  0.00  0.00     0.037 H 
ATOM     26  H7  LIA d          -1.951  26.023  10.718  0.00  0.00     0.037 H 
ATOM     27  H5  LIA d          -1.827  27.205  13.562  0.00  0.00     0.073 H 
BRANCH  18  28
ATOM     28  S27 LIA d          -2.993  30.068   9.845  0.00  0.00     0.207 S 
ATOM     29  O29 LIA d          -4.415  29.806   9.890  0.00  0.00    -0.212 OA
ATOM     30  O30 LIA d          -2.570  30.185   8.476  0.00  0.00    -0.212 OA
BRANCH  28  31
ATOM     31  C28 LIA d          -2.664  31.636  10.725  0.00  0.00     0.028 C 
ATOM     32  H19 LIA d          -2.213  31.420  11.704  0.00  0.00     0.050 H 
ATOM     33  H20 LIA d          -3.609  32.181  10.869  0.00  0.00     0.050 H 
ATOM     34  H21 LIA d          -1.973  32.252  10.131  0.00  0.00     0.050 H 
ENDBRANCH  28  31
ENDBRANCH  18  28
ENDBRANCH   1  13
BRANCH   5  35
ATOM     35  C14 LIA d           2.780  23.991   8.755  0.00  0.00     0.203 C 
ATOM     36  O15 LIA d           2.487  22.983   8.090  0.00  0.00    -0.286 OA
BRANCH  35  37
ATOM     37  C16 LIA d           3.972  24.725   8.393  0.00  0.00     0.090 A 
ATOM     38  C17 LIA d           5.252  24.067   8.446  0.00  0.00     0.171 A 
ATOM     39  C18 LIA d           6.443  24.769   8.083  0.00  0.00     0.156 A 
ATOM     40  F24 LIA d           5.350  22.799   8.836  0.00  0.00    -0.202 F 
ATOM     41  C19 LIA d           6.383  26.129   7.660  0.00  0.00    -0.040 A 
ATOM     42  F25 LIA d           7.611  24.157   8.134  0.00  0.00    -0.203 F 
ATOM     43  C20 LIA d           5.132  26.805   7.601  0.00  0.00    -0.047 A 
ATOM     44  H12 LIA d           7.293  26.650   7.382  0.00  0.00     0.088 H 
ATOM     45  C21 LIA d           3.904  26.126   7.963  0.00  0.00     0.085 A 
ATOM     46  H13 LIA d           5.097  27.840   7.282  0.00  0.00     0.087 H 
BRANCH  45  47
ATOM     47  O22 LIA d           2.643  26.761   7.924  0.00  0.00    -0.355 OA
BRANCH  47  48
ATOM     48  C23 LIA d           2.669  28.114   8.444  0.00  0.00     0.010 C 
ATOM     49  H14 LIA d           2.186  28.792   7.725  0.00  0.00     0.066 H 
ATOM     50  H15 LIA d           3.711  28.427   8.599  0.00  0.00     0.066 H 
ATOM     51  H16 LIA d           2.129  28.149   9.401  0.00  0.00     0.066 H 
ENDBRANCH  47  48
ENDBRANCH  45  47
ENDBRANCH  35  37
ENDBRANCH   5  35
TORSDOF 7
ENDMDL
