MODEL 1
REMARK VINA RESULT:      -7.0      0.000      0.000
REMARK  10 active torsions:
REMARK  status: ('A' for Active; 'I' for Inactive)
REMARK    1  A    between atoms: C2_1  and  O2_7 
REMARK    2  A    between atoms: C3_2  and  O3_8 
REMARK    3  A    between atoms: C4_3  and  O4_9 
REMARK    4  A    between atoms: C5_4  and  C6_5 
REMARK    5  A    between atoms: C6_5  and  O6_11 
REMARK    6  A    between atoms: O4_19  and  C1_6 
REMARK    7  A    between atoms: C5_13  and  C6_12 
REMARK    8  A    between atoms: C6_12  and  O6_17 
REMARK    9  A    between atoms: C4_14  and  O4_19 
REMARK   10  A    between atoms: C3_15  and  O3_20 
ROOT
ATOM      1  C2  BGC d          61.121  47.756  36.327  0.00  0.00     0.110 C 
ATOM      2  C3  BGC d          60.452  48.752  37.287  0.00  0.00     0.092 C 
ATOM      3  C4  BGC d          58.935  48.555  37.326  0.00  0.00     0.090 C 
ATOM      4  C5  BGC d          58.630  47.089  37.630  0.00  0.00     0.089 C 
ATOM      5  C1  BGC d          60.688  46.338  36.669  0.00  0.00     0.159 C 
ATOM      6  O5  BGC d          59.263  46.286  36.628  0.00  0.00    -0.348 OA
ATOM      7  H1  BGC d          60.786  47.985  35.305  0.00  0.00     0.094 H 
ATOM      8  H2  BGC d          60.852  48.582  38.298  0.00  0.00     0.091 H 
ATOM      9  H3  BGC d          58.514  48.817  36.344  0.00  0.00     0.091 H 
ATOM     10  H4  BGC d          59.058  46.847  38.615  0.00  0.00     0.090 H 
ATOM     11  H7  BGC d          61.084  46.021  37.645  0.00  0.00     0.133 H 
ENDROOT
BRANCH   5  12
ATOM     12  O4  BGC d          61.101  45.528  35.666  0.00  0.00    -0.348 OA
BRANCH  12  13
ATOM     13  C4  BGC d          61.039  44.124  35.873  0.00  0.00     0.097 C 
ATOM     14  C5  BGC d          62.454  43.524  35.947  0.00  0.00     0.119 C 
ATOM     15  O5  BGC d          62.350  42.118  36.150  0.00  0.00    -0.195 OA
ATOM     16  H14 BGC d          62.989  43.747  35.012  0.00  0.00     0.094 H 
ATOM     17  N1  BGC d          61.663  41.510  35.029  0.00  0.00     0.042 N 
ATOM     18  C2  BGC d          60.279  41.957  34.835  0.00  0.00     0.135 C 
ATOM     19  H21 BGC d          62.181  41.724  34.192  0.00  0.00     0.315 HD
ATOM     20  H22 BGC d          61.652  40.512  35.172  0.00  0.00     0.315 HD
ATOM     21  C3  BGC d          60.276  43.495  34.698  0.00  0.00     0.088 C 
ATOM     22  H17 BGC d          59.867  41.503  33.923  0.00  0.00     0.084 H 
ATOM     23  H18 BGC d          59.669  41.660  35.701  0.00  0.00     0.084 H 
ATOM     24  H16 BGC d          60.782  43.779  33.764  0.00  0.00     0.089 H 
ATOM     25  H15 BGC d          60.508  43.915  36.814  0.00  0.00     0.091 H 
BRANCH  14  26
ATOM     26  C6  BGC d          63.256  44.021  37.134  0.00  0.00     0.045 C 
ATOM     27  H12 BGC d          63.936  43.224  37.469  0.00  0.00     0.078 H 
ATOM     28  H13 BGC d          62.567  44.281  37.950  0.00  0.00     0.078 H 
BRANCH  26  29
ATOM     29  O6  BGC d          64.021  45.171  36.783  0.00  0.00    -0.398 OA
ATOM     30  H19 BGC d          63.443  45.841  36.439  0.00  0.00     0.209 HD
ENDBRANCH  26  29
ENDBRANCH  14  26
BRANCH  21  31
ATOM     31  O3  BGC d          58.953  43.910  34.635  0.00  0.00    -0.391 OA
ATOM     32  H20 BGC d          58.683  44.235  35.485  0.00  0.00     0.210 HD
ENDBRANCH  21  31
ENDBRANCH  12  13
ENDBRANCH   5  12
BRANCH   1  33
ATOM     33  O2  BGC d          62.532  47.872  36.363  0.00  0.00    -0.388 OA
ATOM     34  H8  BGC d          62.770  48.768  36.572  0.00  0.00     0.210 HD
ENDBRANCH   1  33
BRANCH   2  35
ATOM     35  O3  BGC d          60.745  50.086  36.898  0.00  0.00    -0.390 OA
ATOM     36  H9  BGC d          61.639  50.296  37.140  0.00  0.00     0.210 HD
ENDBRANCH   2  35
BRANCH   4  37
ATOM     37  C6  BGC d          57.149  46.751  37.668  0.00  0.00     0.043 C 
ATOM     38  H5  BGC d          56.841  46.328  36.700  0.00  0.00     0.078 H 
ATOM     39  H6  BGC d          56.566  47.661  37.871  0.00  0.00     0.078 H 
BRANCH  37  40
ATOM     40  O6  BGC d          56.929  45.802  38.697  0.00  0.00    -0.398 OA
ATOM     41  H11 BGC d          57.075  46.213  39.541  0.00  0.00     0.209 HD
ENDBRANCH  37  40
ENDBRANCH   4  37
BRANCH   3  42
ATOM     42  O4  BGC d          58.341  49.385  38.316  0.00  0.00    -0.390 OA
ATOM     43  H10 BGC d          58.076  48.853  39.057  0.00  0.00     0.210 HD
ENDBRANCH   3  42
TORSDOF 10
ENDMDL
MODEL 2
REMARK VINA RESULT:      -6.7      0.815      2.395
REMARK  10 active torsions:
REMARK  status: ('A' for Active; 'I' for Inactive)
REMARK    1  A    between atoms: C2_1  and  O2_7 
REMARK    2  A    between atoms: C3_2  and  O3_8 
REMARK    3  A    between atoms: C4_3  and  O4_9 
REMARK    4  A    between atoms: C5_4  and  C6_5 
REMARK    5  A    between atoms: C6_5  and  O6_11 
REMARK    6  A    between atoms: O4_19  and  C1_6 
REMARK    7  A    between atoms: C5_13  and  C6_12 
REMARK    8  A    between atoms: C6_12  and  O6_17 
REMARK    9  A    between atoms: C4_14  and  O4_19 
REMARK   10  A    between atoms: C3_15  and  O3_20 
ROOT
ATOM      1  C2  BGC d          61.166  47.527  36.232  0.00  0.00     0.110 C 
ATOM      2  C3  BGC d          60.490  48.460  37.249  0.00  0.00     0.092 C 
ATOM      3  C4  BGC d          58.988  48.184  37.346  0.00  0.00     0.090 C 
ATOM      4  C5  BGC d          58.771  46.696  37.619  0.00  0.00     0.089 C 
ATOM      5  C1  BGC d          60.820  46.080  36.549  0.00  0.00     0.159 C 
ATOM      6  O5  BGC d          59.399  45.955  36.568  0.00  0.00    -0.348 OA
ATOM      7  H1  BGC d          60.775  47.766  35.232  0.00  0.00     0.094 H 
ATOM      8  H2  BGC d          60.942  48.282  38.236  0.00  0.00     0.091 H 
ATOM      9  H3  BGC d          58.512  48.450  36.391  0.00  0.00     0.091 H 
ATOM     10  H4  BGC d          59.254  46.449  38.577  0.00  0.00     0.090 H 
ATOM     11  H7  BGC d          61.274  45.756  37.498  0.00  0.00     0.133 H 
ENDROOT
BRANCH   5  12
ATOM     12  O4  BGC d          61.229  45.321  35.506  0.00  0.00    -0.348 OA
BRANCH  12  13
ATOM     13  C4  BGC d          61.878  44.089  35.790  0.00  0.00     0.097 C 
ATOM     14  C5  BGC d          60.846  42.987  36.085  0.00  0.00     0.119 C 
ATOM     15  O5  BGC d          61.534  41.772  36.368  0.00  0.00    -0.195 OA
ATOM     16  H14 BGC d          60.225  43.294  36.939  0.00  0.00     0.094 H 
ATOM     17  N1  BGC d          62.360  41.940  37.546  0.00  0.00     0.042 N 
ATOM     18  C2  BGC d          63.422  42.943  37.419  0.00  0.00     0.135 C 
ATOM     19  H21 BGC d          61.763  42.211  38.310  0.00  0.00     0.315 HD
ATOM     20  H22 BGC d          62.791  41.053  37.755  0.00  0.00     0.315 HD
ATOM     21  C3  BGC d          62.779  44.289  37.017  0.00  0.00     0.088 C 
ATOM     22  H17 BGC d          63.945  43.055  38.380  0.00  0.00     0.084 H 
ATOM     23  H18 BGC d          64.140  42.629  36.646  0.00  0.00     0.084 H 
ATOM     24  H16 BGC d          62.160  44.659  37.846  0.00  0.00     0.089 H 
ATOM     25  H15 BGC d          62.490  43.790  34.925  0.00  0.00     0.091 H 
BRANCH  14  26
ATOM     26  C6  BGC d          59.964  42.656  34.896  0.00  0.00     0.045 C 
ATOM     27  H12 BGC d          59.246  41.875  35.186  0.00  0.00     0.078 H 
ATOM     28  H13 BGC d          60.593  42.287  34.073  0.00  0.00     0.078 H 
BRANCH  26  29
ATOM     29  O6  BGC d          59.250  43.808  34.458  0.00  0.00    -0.398 OA
ATOM     30  H19 BGC d          59.109  43.755  33.521  0.00  0.00     0.209 HD
ENDBRANCH  26  29
ENDBRANCH  14  26
BRANCH  21  31
ATOM     31  O3  BGC d          63.806  45.194  36.786  0.00  0.00    -0.391 OA
ATOM     32  H20 BGC d          63.456  45.966  36.355  0.00  0.00     0.210 HD
ENDBRANCH  21  31
ENDBRANCH  12  13
ENDBRANCH   5  12
BRANCH   1  33
ATOM     33  O2  BGC d          62.569  47.715  36.211  0.00  0.00    -0.388 OA
ATOM     34  H8  BGC d          62.816  48.164  35.412  0.00  0.00     0.210 HD
ENDBRANCH   1  33
BRANCH   2  35
ATOM     35  O3  BGC d          60.698  49.817  36.888  0.00  0.00    -0.390 OA
ATOM     36  H9  BGC d          60.087  50.058  36.201  0.00  0.00     0.210 HD
ENDBRANCH   2  35
BRANCH   4  37
ATOM     37  C6  BGC d          57.312  46.281  37.709  0.00  0.00     0.043 C 
ATOM     38  H5  BGC d          57.185  45.279  37.273  0.00  0.00     0.078 H 
ATOM     39  H6  BGC d          56.687  47.001  37.161  0.00  0.00     0.078 H 
BRANCH  37  40
ATOM     40  O6  BGC d          56.932  46.261  39.075  0.00  0.00    -0.398 OA
ATOM     41  H11 BGC d          57.047  47.128  39.447  0.00  0.00     0.209 HD
ENDBRANCH  37  40
ENDBRANCH   4  37
BRANCH   3  42
ATOM     42  O4  BGC d          58.397  48.954  38.385  0.00  0.00    -0.390 OA
ATOM     43  H10 BGC d          58.901  48.846  39.183  0.00  0.00     0.210 HD
ENDBRANCH   3  42
TORSDOF 10
ENDMDL
MODEL 3
REMARK VINA RESULT:      -5.8      1.448      2.817
REMARK  10 active torsions:
REMARK  status: ('A' for Active; 'I' for Inactive)
REMARK    1  A    between atoms: C2_1  and  O2_7 
REMARK    2  A    between atoms: C3_2  and  O3_8 
REMARK    3  A    between atoms: C4_3  and  O4_9 
REMARK    4  A    between atoms: C5_4  and  C6_5 
REMARK    5  A    between atoms: C6_5  and  O6_11 
REMARK    6  A    between atoms: O4_19  and  C1_6 
REMARK    7  A    between atoms: C5_13  and  C6_12 
REMARK    8  A    between atoms: C6_12  and  O6_17 
REMARK    9  A    between atoms: C4_14  and  O4_19 
REMARK   10  A    between atoms: C3_15  and  O3_20 
ROOT
ATOM      1  C2  BGC d          61.621  46.049  36.786  0.00  0.00     0.110 C 
ATOM      2  C3  BGC d          61.800  47.555  37.030  0.00  0.00     0.092 C 
ATOM      3  C4  BGC d          60.546  48.337  36.633  0.00  0.00     0.090 C 
ATOM      4  C5  BGC d          59.335  47.728  37.339  0.00  0.00     0.089 C 
ATOM      5  C1  BGC d          60.348  45.563  37.464  0.00  0.00     0.159 C 
ATOM      6  O5  BGC d          59.259  46.344  36.976  0.00  0.00    -0.348 OA
ATOM      7  H1  BGC d          61.523  45.883  35.704  0.00  0.00     0.094 H 
ATOM      8  H2  BGC d          61.986  47.714  38.103  0.00  0.00     0.091 H 
ATOM      9  H3  BGC d          60.406  48.262  35.544  0.00  0.00     0.091 H 
ATOM     10  H4  BGC d          59.493  47.810  38.424  0.00  0.00     0.090 H 
ATOM     11  H7  BGC d          60.431  45.614  38.560  0.00  0.00     0.133 H 
ENDROOT
BRANCH   5  12
ATOM     12  O4  BGC d          60.104  44.305  37.030  0.00  0.00    -0.348 OA
BRANCH  12  13
ATOM     13  C4  BGC d          61.218  43.461  36.768  0.00  0.00     0.097 C 
ATOM     14  C5  BGC d          60.953  42.583  35.532  0.00  0.00     0.119 C 
ATOM     15  O5  BGC d          62.088  41.752  35.306  0.00  0.00    -0.195 OA
ATOM     16  H14 BGC d          60.051  41.979  35.706  0.00  0.00     0.094 H 
ATOM     17  N1  BGC d          62.289  40.877  36.442  0.00  0.00     0.042 N 
ATOM     18  C2  BGC d          62.582  41.562  37.706  0.00  0.00     0.135 C 
ATOM     19  H21 BGC d          61.451  40.331  36.569  0.00  0.00     0.315 HD
ATOM     20  H22 BGC d          63.061  40.263  36.233  0.00  0.00     0.315 HD
ATOM     21  C3  BGC d          61.445  42.565  37.994  0.00  0.00     0.088 C 
ATOM     22  H17 BGC d          62.643  40.826  38.521  0.00  0.00     0.084 H 
ATOM     23  H18 BGC d          63.539  42.098  37.624  0.00  0.00     0.084 H 
ATOM     24  H16 BGC d          60.515  42.014  38.199  0.00  0.00     0.089 H 
ATOM     25  H15 BGC d          62.111  44.079  36.589  0.00  0.00     0.091 H 
BRANCH  14  26
ATOM     26  C6  BGC d          60.804  43.380  34.251  0.00  0.00     0.045 C 
ATOM     27  H12 BGC d          60.756  42.686  33.399  0.00  0.00     0.078 H 
ATOM     28  H13 BGC d          61.675  44.042  34.135  0.00  0.00     0.078 H 
BRANCH  26  29
ATOM     29  O6  BGC d          59.618  44.169  34.279  0.00  0.00    -0.398 OA
ATOM     30  H19 BGC d          59.232  44.190  33.412  0.00  0.00     0.209 HD
ENDBRANCH  26  29
ENDBRANCH  14  26
BRANCH  21  31
ATOM     31  O3  BGC d          61.796  43.287  39.128  0.00  0.00    -0.391 OA
ATOM     32  H20 BGC d          61.012  43.511  39.615  0.00  0.00     0.210 HD
ENDBRANCH  21  31
ENDBRANCH  12  13
ENDBRANCH   5  12
BRANCH   1  33
ATOM     33  O2  BGC d          62.743  45.314  37.242  0.00  0.00    -0.388 OA
ATOM     34  H8  BGC d          62.554  44.948  38.098  0.00  0.00     0.210 HD
ENDBRANCH   1  33
BRANCH   2  35
ATOM     35  O3  BGC d          62.912  48.045  36.296  0.00  0.00    -0.390 OA
ATOM     36  H9  BGC d          62.605  48.611  35.597  0.00  0.00     0.210 HD
ENDBRANCH   2  35
BRANCH   4  37
ATOM     37  C6  BGC d          58.012  48.396  37.005  0.00  0.00     0.043 C 
ATOM     38  H5  BGC d          57.181  47.778  37.374  0.00  0.00     0.078 H 
ATOM     39  H6  BGC d          57.923  48.518  35.916  0.00  0.00     0.078 H 
BRANCH  37  40
ATOM     40  O6  BGC d          57.978  49.667  37.633  0.00  0.00    -0.398 OA
ATOM     41  H11 BGC d          57.284  49.679  38.283  0.00  0.00     0.209 HD
ENDBRANCH  37  40
ENDBRANCH   4  37
BRANCH   3  42
ATOM     42  O4  BGC d          60.669  49.707  36.988  0.00  0.00    -0.390 OA
ATOM     43  H10 BGC d          61.534  50.019  36.750  0.00  0.00     0.210 HD
ENDBRANCH   3  42
TORSDOF 10
ENDMDL
MODEL 4
REMARK VINA RESULT:      -5.7      2.776      5.885
REMARK  10 active torsions:
REMARK  status: ('A' for Active; 'I' for Inactive)
REMARK    1  A    between atoms: C2_1  and  O2_7 
REMARK    2  A    between atoms: C3_2  and  O3_8 
REMARK    3  A    between atoms: C4_3  and  O4_9 
REMARK    4  A    between atoms: C5_4  and  C6_5 
REMARK    5  A    between atoms: C6_5  and  O6_11 
REMARK    6  A    between atoms: O4_19  and  C1_6 
REMARK    7  A    between atoms: C5_13  and  C6_12 
REMARK    8  A    between atoms: C6_12  and  O6_17 
REMARK    9  A    between atoms: C4_14  and  O4_19 
REMARK   10  A    between atoms: C3_15  and  O3_20 
ROOT
ATOM      1  C2  BGC d          61.467  45.095  36.693  0.00  0.00     0.110 C 
ATOM      2  C3  BGC d          61.729  43.759  35.980  0.00  0.00     0.092 C 
ATOM      3  C4  BGC d          61.807  42.601  36.977  0.00  0.00     0.090 C 
ATOM      4  C5  BGC d          60.552  42.610  37.849  0.00  0.00     0.089 C 
ATOM      5  C1  BGC d          60.246  44.969  37.593  0.00  0.00     0.159 C 
ATOM      6  O5  BGC d          60.467  43.886  38.494  0.00  0.00    -0.348 OA
ATOM      7  H1  BGC d          62.339  45.328  37.321  0.00  0.00     0.094 H 
ATOM      8  H2  BGC d          60.898  43.568  35.285  0.00  0.00     0.091 H 
ATOM      9  H3  BGC d          62.692  42.735  37.615  0.00  0.00     0.091 H 
ATOM     10  H4  BGC d          59.678  42.475  37.195  0.00  0.00     0.090 H 
ATOM     11  H7  BGC d          59.326  44.834  37.006  0.00  0.00     0.133 H 
ENDROOT
BRANCH   5  12
ATOM     12  O4  BGC d          60.194  46.073  38.373  0.00  0.00    -0.348 OA
BRANCH  12  13
ATOM     13  C4  BGC d          59.161  47.018  38.126  0.00  0.00     0.097 C 
ATOM     14  C5  BGC d          59.686  48.453  38.299  0.00  0.00     0.119 C 
ATOM     15  O5  BGC d          58.622  49.368  38.048  0.00  0.00    -0.195 OA
ATOM     16  H14 BGC d          60.075  48.575  39.321  0.00  0.00     0.094 H 
ATOM     17  N1  BGC d          57.560  49.160  39.011  0.00  0.00     0.042 N 
ATOM     18  C2  BGC d          56.928  47.838  38.959  0.00  0.00     0.135 C 
ATOM     19  H21 BGC d          57.945  49.287  39.933  0.00  0.00     0.315 HD
ATOM     20  H22 BGC d          56.848  49.854  38.846  0.00  0.00     0.315 HD
ATOM     21  C3  BGC d          58.025  46.764  39.128  0.00  0.00     0.088 C 
ATOM     22  H17 BGC d          56.192  47.746  39.770  0.00  0.00     0.084 H 
ATOM     23  H18 BGC d          56.424  47.705  37.990  0.00  0.00     0.084 H 
ATOM     24  H16 BGC d          58.439  46.822  40.145  0.00  0.00     0.089 H 
ATOM     25  H15 BGC d          58.786  46.890  37.100  0.00  0.00     0.091 H 
BRANCH  14  26
ATOM     26  C6  BGC d          60.754  48.827  37.290  0.00  0.00     0.045 C 
ATOM     27  H12 BGC d          60.822  49.924  37.227  0.00  0.00     0.078 H 
ATOM     28  H13 BGC d          60.479  48.420  36.306  0.00  0.00     0.078 H 
BRANCH  26  29
ATOM     29  O6  BGC d          62.021  48.302  37.675  0.00  0.00    -0.398 OA
ATOM     30  H19 BGC d          62.641  49.015  37.775  0.00  0.00     0.209 HD
ENDBRANCH  26  29
ENDBRANCH  14  26
BRANCH  21  31
ATOM     31  O3  BGC d          57.428  45.521  38.958  0.00  0.00    -0.391 OA
ATOM     32  H20 BGC d          56.492  45.599  39.097  0.00  0.00     0.210 HD
ENDBRANCH  21  31
ENDBRANCH  12  13
ENDBRANCH   5  12
BRANCH   1  33
ATOM     33  O2  BGC d          61.299  46.152  35.765  0.00  0.00    -0.388 OA
ATOM     34  H8  BGC d          62.046  46.179  35.179  0.00  0.00     0.210 HD
ENDBRANCH   1  33
BRANCH   2  35
ATOM     35  O3  BGC d          62.939  43.825  35.239  0.00  0.00    -0.390 OA
ATOM     36  H9  BGC d          63.648  43.465  35.759  0.00  0.00     0.210 HD
ENDBRANCH   2  35
BRANCH   4  37
ATOM     37  C6  BGC d          60.516  41.521  38.908  0.00  0.00     0.043 C 
ATOM     38  H5  BGC d          59.803  40.738  38.611  0.00  0.00     0.078 H 
ATOM     39  H6  BGC d          60.207  41.951  39.872  0.00  0.00     0.078 H 
BRANCH  37  40
ATOM     40  O6  BGC d          61.815  40.964  39.028  0.00  0.00    -0.398 OA
ATOM     41  H11 BGC d          61.994  40.416  38.272  0.00  0.00     0.209 HD
ENDBRANCH  37  40
ENDBRANCH   4  37
BRANCH   3  42
ATOM     42  O4  BGC d          61.912  41.356  36.300  0.00  0.00    -0.390 OA
ATOM     43  H10 BGC d          61.470  40.683  36.804  0.00  0.00     0.210 HD
ENDBRANCH   3  42
TORSDOF 10
ENDMDL
MODEL 5
REMARK VINA RESULT:      -5.1      2.376      5.612
REMARK  10 active torsions:
REMARK  status: ('A' for Active; 'I' for Inactive)
REMARK    1  A    between atoms: C2_1  and  O2_7 
REMARK    2  A    between atoms: C3_2  and  O3_8 
REMARK    3  A    between atoms: C4_3  and  O4_9 
REMARK    4  A    between atoms: C5_4  and  C6_5 
REMARK    5  A    between atoms: C6_5  and  O6_11 
REMARK    6  A    between atoms: O4_19  and  C1_6 
REMARK    7  A    between atoms: C5_13  and  C6_12 
REMARK    8  A    between atoms: C6_12  and  O6_17 
REMARK    9  A    between atoms: C4_14  and  O4_19 
REMARK   10  A    between atoms: C3_15  and  O3_20 
ROOT
ATOM      1  C2  BGC d          62.118  45.379  36.675  0.00  0.00     0.110 C 
ATOM      2  C3  BGC d          62.942  44.083  36.613  0.00  0.00     0.092 C 
ATOM      3  C4  BGC d          62.041  42.847  36.645  0.00  0.00     0.090 C 
ATOM      4  C5  BGC d          60.985  42.971  35.548  0.00  0.00     0.089 C 
ATOM      5  C1  BGC d          61.048  45.363  35.593  0.00  0.00     0.159 C 
ATOM      6  O5  BGC d          60.259  44.186  35.764  0.00  0.00    -0.348 OA
ATOM      7  H1  BGC d          61.620  45.424  37.655  0.00  0.00     0.094 H 
ATOM      8  H2  BGC d          63.509  44.078  35.670  0.00  0.00     0.091 H 
ATOM      9  H3  BGC d          61.542  42.792  37.624  0.00  0.00     0.091 H 
ATOM     10  H4  BGC d          61.502  43.025  34.578  0.00  0.00     0.090 H 
ATOM     11  H7  BGC d          61.492  45.417  34.588  0.00  0.00     0.133 H 
ENDROOT
BRANCH   5  12
ATOM     12  O4  BGC d          60.204  46.393  35.833  0.00  0.00    -0.348 OA
BRANCH  12  13
ATOM     13  C4  BGC d          60.136  46.906  37.157  0.00  0.00     0.097 C 
ATOM     14  C5  BGC d          58.788  46.551  37.807  0.00  0.00     0.119 C 
ATOM     15  O5  BGC d          58.757  47.085  39.128  0.00  0.00    -0.195 OA
ATOM     16  H14 BGC d          57.972  46.967  37.196  0.00  0.00     0.094 H 
ATOM     17  N1  BGC d          58.863  48.529  39.075  0.00  0.00     0.042 N 
ATOM     18  C2  BGC d          60.114  49.036  38.503  0.00  0.00     0.135 C 
ATOM     19  H21 BGC d          58.099  48.878  38.518  0.00  0.00     0.315 HD
ATOM     20  H22 BGC d          58.783  48.883  40.016  0.00  0.00     0.315 HD
ATOM     21  C3  BGC d          60.288  48.433  37.092  0.00  0.00     0.088 C 
ATOM     22  H17 BGC d          60.073  50.133  38.434  0.00  0.00     0.084 H 
ATOM     23  H18 BGC d          60.961  48.740  39.140  0.00  0.00     0.084 H 
ATOM     24  H16 BGC d          59.509  48.831  36.426  0.00  0.00     0.089 H 
ATOM     25  H15 BGC d          60.952  46.478  37.758  0.00  0.00     0.091 H 
BRANCH  14  26
ATOM     26  C6  BGC d          58.586  45.060  37.995  0.00  0.00     0.045 C 
ATOM     27  H12 BGC d          58.552  44.574  37.009  0.00  0.00     0.078 H 
ATOM     28  H13 BGC d          57.635  44.889  38.521  0.00  0.00     0.078 H 
BRANCH  26  29
ATOM     29  O6  BGC d          59.650  44.497  38.757  0.00  0.00    -0.398 OA
ATOM     30  H19 BGC d          60.480  44.733  38.362  0.00  0.00     0.209 HD
ENDBRANCH  26  29
ENDBRANCH  14  26
BRANCH  21  31
ATOM     31  O3  BGC d          61.530  48.828  36.614  0.00  0.00    -0.391 OA
ATOM     32  H20 BGC d          62.101  48.071  36.554  0.00  0.00     0.210 HD
ENDBRANCH  21  31
ENDBRANCH  12  13
ENDBRANCH   5  12
BRANCH   1  33
ATOM     33  O2  BGC d          62.943  46.523  36.548  0.00  0.00    -0.388 OA
ATOM     34  H8  BGC d          62.453  47.220  36.130  0.00  0.00     0.210 HD
ENDBRANCH   1  33
BRANCH   2  35
ATOM     35  O3  BGC d          63.857  44.028  37.697  0.00  0.00    -0.390 OA
ATOM     36  H9  BGC d          64.687  44.405  37.430  0.00  0.00     0.210 HD
ENDBRANCH   2  35
BRANCH   4  37
ATOM     37  C6  BGC d          60.001  41.815  35.490  0.00  0.00     0.043 C 
ATOM     38  H5  BGC d          59.115  42.052  36.097  0.00  0.00     0.078 H 
ATOM     39  H6  BGC d          60.477  40.903  35.878  0.00  0.00     0.078 H 
BRANCH  37  40
ATOM     40  O6  BGC d          59.616  41.616  34.140  0.00  0.00    -0.398 OA
ATOM     41  H11 BGC d          60.372  41.339  33.635  0.00  0.00     0.209 HD
ENDBRANCH  37  40
ENDBRANCH   4  37
BRANCH   3  42
ATOM     42  O4  BGC d          62.800  41.661  36.449  0.00  0.00    -0.390 OA
ATOM     43  H10 BGC d          62.275  41.024  35.980  0.00  0.00     0.210 HD
ENDBRANCH   3  42
TORSDOF 10
ENDMDL
MODEL 6
REMARK VINA RESULT:      -5.0      2.356      3.219
REMARK  10 active torsions:
REMARK  status: ('A' for Active; 'I' for Inactive)
REMARK    1  A    between atoms: C2_1  and  O2_7 
REMARK    2  A    between atoms: C3_2  and  O3_8 
REMARK    3  A    between atoms: C4_3  and  O4_9 
REMARK    4  A    between atoms: C5_4  and  C6_5 
REMARK    5  A    between atoms: C6_5  and  O6_11 
REMARK    6  A    between atoms: O4_19  and  C1_6 
REMARK    7  A    between atoms: C5_13  and  C6_12 
REMARK    8  A    between atoms: C6_12  and  O6_17 
REMARK    9  A    between atoms: C4_14  and  O4_19 
REMARK   10  A    between atoms: C3_15  and  O3_20 
ROOT
ATOM      1  C2  BGC d          61.814  45.468  36.505  0.00  0.00     0.110 C 
ATOM      2  C3  BGC d          62.125  46.828  37.150  0.00  0.00     0.092 C 
ATOM      3  C4  BGC d          60.852  47.506  37.661  0.00  0.00     0.090 C 
ATOM      4  C5  BGC d          60.102  46.536  38.573  0.00  0.00     0.089 C 
ATOM      5  C1  BGC d          61.000  44.614  37.466  0.00  0.00     0.159 C 
ATOM      6  O5  BGC d          59.829  45.345  37.827  0.00  0.00    -0.348 OA
ATOM      7  H1  BGC d          61.212  45.645  35.601  0.00  0.00     0.094 H 
ATOM      8  H2  BGC d          62.799  46.661  38.004  0.00  0.00     0.091 H 
ATOM      9  H3  BGC d          60.214  47.764  36.803  0.00  0.00     0.091 H 
ATOM     10  H4  BGC d          60.755  46.290  39.424  0.00  0.00     0.090 H 
ATOM     11  H7  BGC d          61.591  44.324  38.346  0.00  0.00     0.133 H 
ENDROOT
BRANCH   5  12
ATOM     12  O4  BGC d          60.548  43.539  36.779  0.00  0.00    -0.348 OA
BRANCH  12  13
ATOM     13  C4  BGC d          60.954  42.249  37.216  0.00  0.00     0.097 C 
ATOM     14  C5  BGC d          60.727  42.092  38.729  0.00  0.00     0.119 C 
ATOM     15  O5  BGC d          61.149  40.791  39.128  0.00  0.00    -0.195 OA
ATOM     16  H14 BGC d          61.294  42.869  39.262  0.00  0.00     0.094 H 
ATOM     17  N1  BGC d          62.565  40.635  38.869  0.00  0.00     0.042 N 
ATOM     18  C2  BGC d          62.950  40.730  37.457  0.00  0.00     0.135 C 
ATOM     19  H21 BGC d          63.057  41.353  39.376  0.00  0.00     0.315 HD
ATOM     20  H22 BGC d          62.848  39.729  39.210  0.00  0.00     0.315 HD
ATOM     21  C3  BGC d          62.448  42.080  36.902  0.00  0.00     0.088 C 
ATOM     22  H17 BGC d          64.045  40.676  37.366  0.00  0.00     0.084 H 
ATOM     23  H18 BGC d          62.494  39.904  36.891  0.00  0.00     0.084 H 
ATOM     24  H16 BGC d          62.999  42.901  37.385  0.00  0.00     0.089 H 
ATOM     25  H15 BGC d          60.374  41.482  36.681  0.00  0.00     0.091 H 
BRANCH  14  26
ATOM     26  C6  BGC d          59.265  42.155  39.126  0.00  0.00     0.045 C 
ATOM     27  H12 BGC d          59.146  41.732  40.135  0.00  0.00     0.078 H 
ATOM     28  H13 BGC d          58.672  41.568  38.411  0.00  0.00     0.078 H 
BRANCH  26  29
ATOM     29  O6  BGC d          58.797  43.501  39.127  0.00  0.00    -0.398 OA
ATOM     30  H19 BGC d          59.519  44.086  38.932  0.00  0.00     0.209 HD
ENDBRANCH  26  29
ENDBRANCH  14  26
BRANCH  21  31
ATOM     31  O3  BGC d          62.715  42.102  35.539  0.00  0.00    -0.391 OA
ATOM     32  H20 BGC d          62.840  41.214  35.228  0.00  0.00     0.210 HD
ENDBRANCH  21  31
ENDBRANCH  12  13
ENDBRANCH   5  12
BRANCH   1  33
ATOM     33  O2  BGC d          63.000  44.796  36.119  0.00  0.00    -0.388 OA
ATOM     34  H8  BGC d          62.778  44.055  35.569  0.00  0.00     0.210 HD
ENDBRANCH   1  33
BRANCH   2  35
ATOM     35  O3  BGC d          62.771  47.681  36.217  0.00  0.00    -0.390 OA
ATOM     36  H9  BGC d          62.763  47.273  35.359  0.00  0.00     0.210 HD
ENDBRANCH   2  35
BRANCH   4  37
ATOM     37  C6  BGC d          58.795  47.079  39.128  0.00  0.00     0.043 C 
ATOM     38  H5  BGC d          58.728  48.158  38.927  0.00  0.00     0.078 H 
ATOM     39  H6  BGC d          58.753  46.905  40.213  0.00  0.00     0.078 H 
BRANCH  37  40
ATOM     40  O6  BGC d          57.721  46.406  38.493  0.00  0.00    -0.398 OA
ATOM     41  H11 BGC d          57.960  46.208  37.595  0.00  0.00     0.209 HD
ENDBRANCH  37  40
ENDBRANCH   4  37
BRANCH   3  42
ATOM     42  O4  BGC d          61.163  48.694  38.376  0.00  0.00    -0.390 OA
ATOM     43  H10 BGC d          61.469  48.468  39.247  0.00  0.00     0.210 HD
ENDBRANCH   3  42
TORSDOF 10
ENDMDL
MODEL 7
REMARK VINA RESULT:      -5.0      1.507      3.619
REMARK  10 active torsions:
REMARK  status: ('A' for Active; 'I' for Inactive)
REMARK    1  A    between atoms: C2_1  and  O2_7 
REMARK    2  A    between atoms: C3_2  and  O3_8 
REMARK    3  A    between atoms: C4_3  and  O4_9 
REMARK    4  A    between atoms: C5_4  and  C6_5 
REMARK    5  A    between atoms: C6_5  and  O6_11 
REMARK    6  A    between atoms: O4_19  and  C1_6 
REMARK    7  A    between atoms: C5_13  and  C6_12 
REMARK    8  A    between atoms: C6_12  and  O6_17 
REMARK    9  A    between atoms: C4_14  and  O4_19 
REMARK   10  A    between atoms: C3_15  and  O3_20 
ROOT
ATOM      1  C2  BGC d          58.864  46.487  37.554  0.00  0.00     0.110 C 
ATOM      2  C3  BGC d          59.069  48.000  37.380  0.00  0.00     0.092 C 
ATOM      3  C4  BGC d          60.532  48.392  37.592  0.00  0.00     0.090 C 
ATOM      4  C5  BGC d          61.414  47.533  36.687  0.00  0.00     0.089 C 
ATOM      5  C1  BGC d          59.843  45.728  36.670  0.00  0.00     0.159 C 
ATOM      6  O5  BGC d          61.163  46.157  36.998  0.00  0.00    -0.348 OA
ATOM      7  H1  BGC d          59.071  46.229  38.603  0.00  0.00     0.094 H 
ATOM      8  H2  BGC d          58.778  48.274  36.355  0.00  0.00     0.091 H 
ATOM      9  H3  BGC d          60.804  48.210  38.642  0.00  0.00     0.091 H 
ATOM     10  H4  BGC d          61.128  47.727  35.643  0.00  0.00     0.090 H 
ATOM     11  H7  BGC d          59.617  45.872  35.603  0.00  0.00     0.133 H 
ENDROOT
BRANCH   5  12
ATOM     12  O4  BGC d          59.795  44.424  37.028  0.00  0.00    -0.348 OA
BRANCH  12  13
ATOM     13  C4  BGC d          60.950  43.627  36.801  0.00  0.00     0.097 C 
ATOM     14  C5  BGC d          60.686  42.592  35.694  0.00  0.00     0.119 C 
ATOM     15  O5  BGC d          61.862  41.812  35.500  0.00  0.00    -0.195 OA
ATOM     16  H14 BGC d          59.837  41.957  35.989  0.00  0.00     0.094 H 
ATOM     17  N1  BGC d          62.180  41.094  36.717  0.00  0.00     0.042 N 
ATOM     18  C2  BGC d          62.488  41.943  37.873  0.00  0.00     0.135 C 
ATOM     19  H21 BGC d          61.390  40.516  36.955  0.00  0.00     0.315 HD
ATOM     20  H22 BGC d          62.982  40.510  36.535  0.00  0.00     0.315 HD
ATOM     21  C3  BGC d          61.300  42.900  38.108  0.00  0.00     0.088 C 
ATOM     22  H17 BGC d          62.641  41.316  38.763  0.00  0.00     0.084 H 
ATOM     23  H18 BGC d          63.400  42.525  37.674  0.00  0.00     0.084 H 
ATOM     24  H16 BGC d          60.422  42.320  38.429  0.00  0.00     0.089 H 
ATOM     25  H15 BGC d          61.788  44.273  36.501  0.00  0.00     0.091 H 
BRANCH  14  26
ATOM     26  C6  BGC d          60.417  43.218  34.339  0.00  0.00     0.045 C 
ATOM     27  H12 BGC d          60.527  42.450  33.559  0.00  0.00     0.078 H 
ATOM     28  H13 BGC d          61.145  44.024  34.164  0.00  0.00     0.078 H 
BRANCH  26  29
ATOM     29  O6  BGC d          59.100  43.758  34.282  0.00  0.00    -0.398 OA
ATOM     30  H19 BGC d          58.885  43.970  33.381  0.00  0.00     0.209 HD
ENDBRANCH  26  29
ENDBRANCH  14  26
BRANCH  21  31
ATOM     31  O3  BGC d          61.657  43.773  39.128  0.00  0.00    -0.391 OA
ATOM     32  H20 BGC d          62.361  44.336  38.829  0.00  0.00     0.210 HD
ENDBRANCH  21  31
ENDBRANCH  12  13
ENDBRANCH   5  12
BRANCH   1  33
ATOM     33  O2  BGC d          57.530  46.109  37.264  0.00  0.00    -0.388 OA
ATOM     34  H8  BGC d          57.084  46.828  36.833  0.00  0.00     0.210 HD
ENDBRANCH   1  33
BRANCH   2  35
ATOM     35  O3  BGC d          58.252  48.716  38.294  0.00  0.00    -0.390 OA
ATOM     36  H9  BGC d          57.368  48.368  38.269  0.00  0.00     0.210 HD
ENDBRANCH   2  35
BRANCH   4  37
ATOM     37  C6  BGC d          62.904  47.803  36.822  0.00  0.00     0.043 C 
ATOM     38  H5  BGC d          63.119  48.196  37.826  0.00  0.00     0.078 H 
ATOM     39  H6  BGC d          63.217  48.537  36.066  0.00  0.00     0.078 H 
BRANCH  37  40
ATOM     40  O6  BGC d          63.603  46.586  36.625  0.00  0.00    -0.398 OA
ATOM     41  H11 BGC d          63.001  45.925  36.303  0.00  0.00     0.209 HD
ENDBRANCH  37  40
ENDBRANCH   4  37
BRANCH   3  42
ATOM     42  O4  BGC d          60.736  49.767  37.295  0.00  0.00    -0.390 OA
ATOM     43  H10 BGC d          60.327  50.300  37.967  0.00  0.00     0.210 HD
ENDBRANCH   3  42
TORSDOF 10
ENDMDL
MODEL 8
REMARK VINA RESULT:      -4.7      1.593      3.199
REMARK  10 active torsions:
REMARK  status: ('A' for Active; 'I' for Inactive)
REMARK    1  A    between atoms: C2_1  and  O2_7 
REMARK    2  A    between atoms: C3_2  and  O3_8 
REMARK    3  A    between atoms: C4_3  and  O4_9 
REMARK    4  A    between atoms: C5_4  and  C6_5 
REMARK    5  A    between atoms: C6_5  and  O6_11 
REMARK    6  A    between atoms: O4_19  and  C1_6 
REMARK    7  A    between atoms: C5_13  and  C6_12 
REMARK    8  A    between atoms: C6_12  and  O6_17 
REMARK    9  A    between atoms: C4_14  and  O4_19 
REMARK   10  A    between atoms: C3_15  and  O3_20 
ROOT
ATOM      1  C2  BGC d          58.611  46.479  37.561  0.00  0.00     0.110 C 
ATOM      2  C3  BGC d          58.910  47.924  37.133  0.00  0.00     0.092 C 
ATOM      3  C4  BGC d          60.378  48.284  37.370  0.00  0.00     0.090 C 
ATOM      4  C5  BGC d          61.264  47.235  36.698  0.00  0.00     0.089 C 
ATOM      5  C1  BGC d          59.598  45.529  36.897  0.00  0.00     0.159 C 
ATOM      6  O5  BGC d          60.918  45.953  37.233  0.00  0.00    -0.348 OA
ATOM      7  H1  BGC d          58.741  46.408  38.651  0.00  0.00     0.094 H 
ATOM      8  H2  BGC d          58.697  48.018  36.057  0.00  0.00     0.091 H 
ATOM      9  H3  BGC d          60.576  48.286  38.452  0.00  0.00     0.091 H 
ATOM     10  H4  BGC d          61.051  47.248  35.619  0.00  0.00     0.090 H 
ATOM     11  H7  BGC d          59.445  45.485  35.809  0.00  0.00     0.133 H 
ENDROOT
BRANCH   5  12
ATOM     12  O4  BGC d          59.457  44.315  37.480  0.00  0.00    -0.348 OA
BRANCH  12  13
ATOM     13  C4  BGC d          59.996  43.185  36.808  0.00  0.00     0.097 C 
ATOM     14  C5  BGC d          61.283  42.705  37.501  0.00  0.00     0.119 C 
ATOM     15  O5  BGC d          61.794  41.577  36.798  0.00  0.00    -0.195 OA
ATOM     16  H14 BGC d          62.015  43.526  37.510  0.00  0.00     0.094 H 
ATOM     17  N1  BGC d          62.130  41.956  35.441  0.00  0.00     0.042 N 
ATOM     18  C2  BGC d          60.998  42.415  34.628  0.00  0.00     0.135 C 
ATOM     19  H21 BGC d          62.807  42.701  35.483  0.00  0.00     0.315 HD
ATOM     20  H22 BGC d          62.539  41.155  34.984  0.00  0.00     0.315 HD
ATOM     21  C3  BGC d          60.313  43.588  35.361  0.00  0.00     0.088 C 
ATOM     22  H17 BGC d          61.359  42.751  33.645  0.00  0.00     0.084 H 
ATOM     23  H18 BGC d          60.280  41.592  34.493  0.00  0.00     0.084 H 
ATOM     24  H16 BGC d          60.994  44.452  35.382  0.00  0.00     0.089 H 
ATOM     25  H15 BGC d          59.257  42.370  36.812  0.00  0.00     0.091 H 
BRANCH  14  26
ATOM     26  C6  BGC d          61.053  42.201  38.912  0.00  0.00     0.045 C 
ATOM     27  H12 BGC d          60.189  42.726  39.346  0.00  0.00     0.078 H 
ATOM     28  H13 BGC d          61.947  42.405  39.518  0.00  0.00     0.078 H 
BRANCH  26  29
ATOM     29  O6  BGC d          60.797  40.799  38.914  0.00  0.00    -0.398 OA
ATOM     30  H19 BGC d          61.272  40.393  39.629  0.00  0.00     0.209 HD
ENDBRANCH  26  29
ENDBRANCH  14  26
BRANCH  21  31
ATOM     31  O3  BGC d          59.178  43.931  34.639  0.00  0.00    -0.391 OA
ATOM     32  H20 BGC d          58.834  44.755  34.963  0.00  0.00     0.210 HD
ENDBRANCH  21  31
ENDBRANCH  12  13
ENDBRANCH   5  12
BRANCH   1  33
ATOM     33  O2  BGC d          57.278  46.113  37.253  0.00  0.00    -0.388 OA
ATOM     34  H8  BGC d          57.171  46.076  36.310  0.00  0.00     0.210 HD
ENDBRANCH   1  33
BRANCH   2  35
ATOM     35  O3  BGC d          58.081  48.831  37.844  0.00  0.00    -0.390 OA
ATOM     36  H9  BGC d          58.562  49.633  38.012  0.00  0.00     0.210 HD
ENDBRANCH   2  35
BRANCH   4  37
ATOM     37  C6  BGC d          62.755  47.460  36.885  0.00  0.00     0.043 C 
ATOM     38  H5  BGC d          63.174  47.932  35.984  0.00  0.00     0.078 H 
ATOM     39  H6  BGC d          63.255  46.497  37.060  0.00  0.00     0.078 H 
BRANCH  37  40
ATOM     40  O6  BGC d          62.947  48.310  38.003  0.00  0.00    -0.398 OA
ATOM     41  H11 BGC d          62.106  48.648  38.290  0.00  0.00     0.209 HD
ENDBRANCH  37  40
ENDBRANCH   4  37
BRANCH   3  42
ATOM     42  O4  BGC d          60.676  49.571  36.846  0.00  0.00    -0.390 OA
ATOM     43  H10 BGC d          61.374  49.498  36.206  0.00  0.00     0.210 HD
ENDBRANCH   3  42
TORSDOF 10
ENDMDL
MODEL 9
REMARK VINA RESULT:      -4.7      2.558      5.836
REMARK  10 active torsions:
REMARK  status: ('A' for Active; 'I' for Inactive)
REMARK    1  A    between atoms: C2_1  and  O2_7 
REMARK    2  A    between atoms: C3_2  and  O3_8 
REMARK    3  A    between atoms: C4_3  and  O4_9 
REMARK    4  A    between atoms: C5_4  and  C6_5 
REMARK    5  A    between atoms: C6_5  and  O6_11 
REMARK    6  A    between atoms: O4_19  and  C1_6 
REMARK    7  A    between atoms: C5_13  and  C6_12 
REMARK    8  A    between atoms: C6_12  and  O6_17 
REMARK    9  A    between atoms: C4_14  and  O4_19 
REMARK   10  A    between atoms: C3_15  and  O3_20 
ROOT
ATOM      1  C2  BGC d          61.776  45.212  36.851  0.00  0.00     0.110 C 
ATOM      2  C3  BGC d          62.023  43.985  35.960  0.00  0.00     0.092 C 
ATOM      3  C4  BGC d          61.906  42.684  36.756  0.00  0.00     0.090 C 
ATOM      4  C5  BGC d          60.565  42.667  37.489  0.00  0.00     0.089 C 
ATOM      5  C1  BGC d          60.456  45.055  37.592  0.00  0.00     0.159 C 
ATOM      6  O5  BGC d          60.498  43.830  38.322  0.00  0.00    -0.348 OA
ATOM      7  H1  BGC d          62.586  45.267  37.593  0.00  0.00     0.094 H 
ATOM      8  H2  BGC d          61.263  43.977  35.163  0.00  0.00     0.091 H 
ATOM      9  H3  BGC d          62.721  42.640  37.493  0.00  0.00     0.091 H 
ATOM     10  H4  BGC d          59.763  42.712  36.737  0.00  0.00     0.090 H 
ATOM     11  H7  BGC d          59.600  45.093  36.902  0.00  0.00     0.133 H 
ENDROOT
BRANCH   5  12
ATOM     12  O4  BGC d          60.394  46.025  38.533  0.00  0.00    -0.348 OA
BRANCH  12  13
ATOM     13  C4  BGC d          59.439  47.064  38.360  0.00  0.00     0.097 C 
ATOM     14  C5  BGC d          58.059  46.478  38.014  0.00  0.00     0.119 C 
ATOM     15  O5  BGC d          57.132  47.548  37.845  0.00  0.00    -0.195 OA
ATOM     16  H14 BGC d          58.140  45.881  37.094  0.00  0.00     0.094 H 
ATOM     17  N1  BGC d          57.552  48.390  36.744  0.00  0.00     0.042 N 
ATOM     18  C2  BGC d          58.848  49.051  36.929  0.00  0.00     0.135 C 
ATOM     19  H21 BGC d          57.608  47.817  35.916  0.00  0.00     0.315 HD
ATOM     20  H22 BGC d          56.852  49.104  36.611  0.00  0.00     0.315 HD
ATOM     21  C3  BGC d          59.912  47.971  37.216  0.00  0.00     0.088 C 
ATOM     22  H17 BGC d          59.116  49.604  36.017  0.00  0.00     0.084 H 
ATOM     23  H18 BGC d          58.790  49.750  37.777  0.00  0.00     0.084 H 
ATOM     24  H16 BGC d          60.055  47.352  36.318  0.00  0.00     0.089 H 
ATOM     25  H15 BGC d          59.362  47.648  39.289  0.00  0.00     0.091 H 
BRANCH  14  26
ATOM     26  C6  BGC d          57.467  45.636  39.128  0.00  0.00     0.045 C 
ATOM     27  H12 BGC d          56.373  45.605  39.014  0.00  0.00     0.078 H 
ATOM     28  H13 BGC d          57.721  46.090  40.096  0.00  0.00     0.078 H 
BRANCH  26  29
ATOM     29  O6  BGC d          57.980  44.308  39.086  0.00  0.00    -0.398 OA
ATOM     30  H19 BGC d          58.207  44.085  38.191  0.00  0.00     0.209 HD
ENDBRANCH  26  29
ENDBRANCH  14  26
BRANCH  21  31
ATOM     31  O3  BGC d          61.105  48.620  37.505  0.00  0.00    -0.391 OA
ATOM     32  H20 BGC d          61.828  48.011  37.409  0.00  0.00     0.210 HD
ENDBRANCH  21  31
ENDBRANCH  12  13
ENDBRANCH   5  12
BRANCH   1  33
ATOM     33  O2  BGC d          61.788  46.410  36.097  0.00  0.00    -0.388 OA
ATOM     34  H8  BGC d          60.936  46.826  36.151  0.00  0.00     0.210 HD
ENDBRANCH   1  33
BRANCH   2  35
ATOM     35  O3  BGC d          63.309  44.059  35.364  0.00  0.00    -0.390 OA
ATOM     36  H9  BGC d          63.271  43.703  34.484  0.00  0.00     0.210 HD
ENDBRANCH   2  35
BRANCH   4  37
ATOM     37  C6  BGC d          60.334  41.434  38.347  0.00  0.00     0.043 C 
ATOM     38  H5  BGC d          59.548  40.811  37.896  0.00  0.00     0.078 H 
ATOM     39  H6  BGC d          60.024  41.739  39.357  0.00  0.00     0.078 H 
BRANCH  37  40
ATOM     40  O6  BGC d          61.545  40.700  38.418  0.00  0.00    -0.398 OA
ATOM     41  H11 BGC d          61.385  39.802  38.152  0.00  0.00     0.209 HD
ENDBRANCH  37  40
ENDBRANCH   4  37
BRANCH   3  42
ATOM     42  O4  BGC d          61.999  41.554  35.899  0.00  0.00    -0.390 OA
ATOM     43  H10 BGC d          61.140  41.352  35.548  0.00  0.00     0.210 HD
ENDBRANCH   3  42
TORSDOF 10
ENDMDL
MODEL 10
REMARK VINA RESULT:      -4.5      2.542      5.692
REMARK  10 active torsions:
REMARK  status: ('A' for Active; 'I' for Inactive)
REMARK    1  A    between atoms: C2_1  and  O2_7 
REMARK    2  A    between atoms: C3_2  and  O3_8 
REMARK    3  A    between atoms: C4_3  and  O4_9 
REMARK    4  A    between atoms: C5_4  and  C6_5 
REMARK    5  A    between atoms: C6_5  and  O6_11 
REMARK    6  A    between atoms: O4_19  and  C1_6 
REMARK    7  A    between atoms: C5_13  and  C6_12 
REMARK    8  A    between atoms: C6_12  and  O6_17 
REMARK    9  A    between atoms: C4_14  and  O4_19 
REMARK   10  A    between atoms: C3_15  and  O3_20 
ROOT
ATOM      1  C2  BGC d          61.811  43.691  35.729  0.00  0.00     0.110 C 
ATOM      2  C3  BGC d          61.899  42.228  36.189  0.00  0.00     0.092 C 
ATOM      3  C4  BGC d          61.395  42.063  37.624  0.00  0.00     0.090 C 
ATOM      4  C5  BGC d          59.997  42.671  37.734  0.00  0.00     0.089 C 
ATOM      5  C1  BGC d          60.402  44.220  35.955  0.00  0.00     0.159 C 
ATOM      6  O5  BGC d          60.076  44.044  37.333  0.00  0.00    -0.348 OA
ATOM      7  H1  BGC d          62.507  44.287  36.337  0.00  0.00     0.094 H 
ATOM      8  H2  BGC d          61.270  41.617  35.525  0.00  0.00     0.091 H 
ATOM      9  H3  BGC d          62.075  42.594  38.307  0.00  0.00     0.091 H 
ATOM     10  H4  BGC d          59.332  42.129  37.045  0.00  0.00     0.090 H 
ATOM     11  H7  BGC d          59.675  43.724  35.294  0.00  0.00     0.133 H 
ENDROOT
BRANCH   5  12
ATOM     12  O4  BGC d          60.429  45.560  35.766  0.00  0.00    -0.348 OA
BRANCH  12  13
ATOM     13  C4  BGC d          60.524  46.394  36.913  0.00  0.00     0.097 C 
ATOM     14  C5  BGC d          59.269  47.275  37.047  0.00  0.00     0.119 C 
ATOM     15  O5  BGC d          59.404  48.097  38.203  0.00  0.00    -0.195 OA
ATOM     16  H14 BGC d          59.160  47.887  36.140  0.00  0.00     0.094 H 
ATOM     17  N1  BGC d          60.551  48.970  38.052  0.00  0.00     0.042 N 
ATOM     18  C2  BGC d          61.841  48.282  37.938  0.00  0.00     0.135 C 
ATOM     19  H21 BGC d          60.416  49.522  37.221  0.00  0.00     0.315 HD
ATOM     20  H22 BGC d          60.590  49.577  38.857  0.00  0.00     0.315 HD
ATOM     21  C3  BGC d          61.763  47.288  36.759  0.00  0.00     0.088 C 
ATOM     22  H17 BGC d          62.638  49.016  37.752  0.00  0.00     0.084 H 
ATOM     23  H18 BGC d          62.055  47.737  38.870  0.00  0.00     0.084 H 
ATOM     24  H16 BGC d          61.674  47.846  35.816  0.00  0.00     0.089 H 
ATOM     25  H15 BGC d          60.626  45.769  37.813  0.00  0.00     0.091 H 
BRANCH  14  26
ATOM     26  C6  BGC d          58.002  46.480  37.293  0.00  0.00     0.045 C 
ATOM     27  H12 BGC d          58.006  45.587  36.650  0.00  0.00     0.078 H 
ATOM     28  H13 BGC d          57.131  47.105  37.045  0.00  0.00     0.078 H 
BRANCH  26  29
ATOM     29  O6  BGC d          57.913  46.075  38.656  0.00  0.00    -0.398 OA
ATOM     30  H19 BGC d          58.510  45.353  38.810  0.00  0.00     0.209 HD
ENDBRANCH  26  29
ENDBRANCH  14  26
BRANCH  21  31
ATOM     31  O3  BGC d          62.947  46.563  36.740  0.00  0.00    -0.391 OA
ATOM     32  H20 BGC d          62.934  45.917  37.437  0.00  0.00     0.210 HD
ENDBRANCH  21  31
ENDBRANCH  12  13
ENDBRANCH   5  12
BRANCH   1  33
ATOM     33  O2  BGC d          62.186  43.830  34.370  0.00  0.00    -0.388 OA
ATOM     34  H8  BGC d          61.442  43.631  33.815  0.00  0.00     0.210 HD
ENDBRANCH   1  33
BRANCH   2  35
ATOM     35  O3  BGC d          63.238  41.764  36.104  0.00  0.00    -0.390 OA
ATOM     36  H9  BGC d          63.609  41.706  36.977  0.00  0.00     0.210 HD
ENDBRANCH   2  35
BRANCH   4  37
ATOM     37  C6  BGC d          59.389  42.600  39.125  0.00  0.00     0.043 C 
ATOM     38  H5  BGC d          60.088  43.029  39.857  0.00  0.00     0.078 H 
ATOM     39  H6  BGC d          59.183  41.552  39.386  0.00  0.00     0.078 H 
BRANCH  37  40
ATOM     40  O6  BGC d          58.180  43.341  39.127  0.00  0.00    -0.398 OA
ATOM     41  H11 BGC d          57.685  43.133  39.911  0.00  0.00     0.209 HD
ENDBRANCH  37  40
ENDBRANCH   4  37
BRANCH   3  42
ATOM     42  O4  BGC d          61.351  40.691  37.992  0.00  0.00    -0.390 OA
ATOM     43  H10 BGC d          60.474  40.355  37.855  0.00  0.00     0.210 HD
ENDBRANCH   3  42
TORSDOF 10
ENDMDL
