REMARK  5 active torsions:
REMARK  status: ('A' for Active; 'I' for Inactive)
REMARK    1  A    between atoms: C1_1  and  C14_14 
REMARK    2  A    between atoms: C2_2  and  C15_15 
REMARK    3  A    between atoms: C3_3  and  C13_13 
REMARK    4  A    between atoms: C8_8  and  C10_10 
REMARK       I    between atoms: C10_10  and  N12_12 
REMARK    5  A    between atoms: C15_15  and  N16_16 
ROOT
ATOM      1  C1  MOL d          48.154  50.310  35.288  0.00  0.00     0.078 A 
ATOM      2  C2  MOL d          47.201  51.041  34.622  0.00  0.00     0.021 A 
ATOM      3  C3  MOL d          47.477  51.453  33.291  0.00  0.00     0.060 A 
ATOM      4  N4  MOL d          48.600  51.227  32.621  0.00  0.00    -0.067 NA
ATOM      5  N5  MOL d          49.329  50.091  34.643  0.00  0.00    -0.150 N 
ATOM      6  C6  MOL d          49.576  50.518  33.308  0.00  0.00     0.734 A 
ATOM      7  N7  MOL d          50.815  50.137  32.885  0.00  0.00    -0.055 NA
ATOM      8  C8  MOL d          51.335  49.463  33.998  0.00  0.00     0.160 A 
ATOM      9  C9  MOL d          50.466  49.417  35.068  0.00  0.00     0.037 A 
ATOM     10  H1  MOL d          50.635  48.952  36.038  0.00  0.00     0.117 H 
ENDROOT
BRANCH   8  11
ATOM     11  C10 MOL d          52.683  48.849  33.977  0.00  0.00     0.274 C 
ATOM     12  O11 MOL d          52.922  47.917  33.182  0.00  0.00    -0.266 OA
ATOM     13  N12 MOL d          53.498  49.097  35.094  0.00  0.00    -0.343 N 
ATOM     14  C24 MOL d          53.699  50.430  35.703  0.00  0.00     0.018 C 
ATOM     15  C28 MOL d          54.605  48.169  35.407  0.00  0.00     0.018 C 
ATOM     16  C25 MOL d          55.061  51.046  35.193  0.00  0.00     0.034 C 
ATOM     17  H13 MOL d          53.729  50.331  36.798  0.00  0.00     0.067 H 
ATOM     18  H14 MOL d          52.868  51.092  35.417  0.00  0.00     0.067 H 
ATOM     19  O26 MOL d          56.177  50.134  35.295  0.00  0.00    -0.388 OA
ATOM     20  H15 MOL d          55.286  51.940  35.793  0.00  0.00     0.076 H 
ATOM     21  H16 MOL d          54.941  51.333  34.138  0.00  0.00     0.076 H 
ATOM     22  C27 MOL d          55.927  48.774  34.857  0.00  0.00     0.034 C 
ATOM     23  H17 MOL d          56.763  48.143  35.193  0.00  0.00     0.076 H 
ATOM     24  H18 MOL d          55.880  48.767  33.758  0.00  0.00     0.076 H 
ATOM     25  H19 MOL d          54.417  47.194  34.933  0.00  0.00     0.067 H 
ATOM     26  H20 MOL d          54.682  48.038  36.496  0.00  0.00     0.067 H 
ENDBRANCH   8  11
BRANCH   1  27
ATOM     27  C14 MOL d          48.045  49.854  36.684  0.00  0.00     0.014 A 
ATOM     28  C17 MOL d          47.508  48.608  36.953  0.00  0.00    -0.068 A 
ATOM     29  C18 MOL d          47.438  48.176  38.273  0.00  0.00    -0.061 A 
ATOM     30  H10 MOL d          47.148  47.978  36.148  0.00  0.00     0.085 H 
ATOM     31  C19 MOL d          47.918  49.008  39.287  0.00  0.00     0.035 A 
ATOM     32  H11 MOL d          47.016  47.206  38.512  0.00  0.00     0.086 H 
ATOM     33  C20 MOL d          48.448  50.240  39.053  0.00  0.00    -0.040 A 
ATOM     34 CL23 MOL d          47.896  48.469  40.897  0.00  0.00    -0.084 Cl
ATOM     35  C21 MOL d          48.514  50.643  37.748  0.00  0.00     0.048 A 
ATOM     36  H12 MOL d          48.800  50.870  39.861  0.00  0.00     0.088 H 
ATOM     37 CL22 MOL d          49.194  52.167  37.445  0.00  0.00    -0.083 Cl
ENDBRANCH   1  27
BRANCH   3  38
ATOM     38  C13 MOL d          46.476  52.245  32.526  0.00  0.00    -0.034 C 
ATOM     39  H2  MOL d          46.871  52.465  31.523  0.00  0.00     0.035 H 
ATOM     40  H3  MOL d          46.272  53.188  33.055  0.00  0.00     0.035 H 
ATOM     41  H4  MOL d          45.544  51.667  32.434  0.00  0.00     0.035 H 
ENDBRANCH   3  38
BRANCH   2  42
ATOM     42  C15 MOL d          45.856  51.318  35.236  0.00  0.00     0.107 C 
ATOM     43  H5  MOL d          45.539  50.458  35.843  0.00  0.00     0.083 H 
ATOM     44  H6  MOL d          45.115  51.501  34.444  0.00  0.00     0.083 H 
BRANCH  42  45
ATOM     45  N16 MOL d          45.979  52.482  36.067  0.00  0.00    -0.075 N 
ATOM     46  H7  MOL d          45.088  52.688  36.491  0.00  0.00     0.274 HD
ATOM     47  H8  MOL d          46.273  53.266  35.506  0.00  0.00     0.274 HD
ATOM     48  H9  MOL d          46.662  52.309  36.788  0.00  0.00     0.274 HD
ENDBRANCH  42  45
ENDBRANCH   2  42
TORSDOF 5
