MODEL 1
REMARK VINA RESULT:      -6.6      0.000      0.000
REMARK  5 active torsions:
REMARK  status: ('A' for Active; 'I' for Inactive)
REMARK    1  A    between atoms: C1_1  and  C14_14 
REMARK    2  A    between atoms: C2_2  and  C15_15 
REMARK    3  A    between atoms: C3_3  and  C13_13 
REMARK    4  A    between atoms: C8_8  and  C10_10 
REMARK       I    between atoms: C10_10  and  N12_12 
REMARK    5  A    between atoms: C15_15  and  N16_16 
ROOT
ATOM      1  C1  MOL d          48.127  50.367  34.749  0.00  0.00     0.078 A 
ATOM      2  C2  MOL d          47.153  51.033  34.046  0.00  0.00     0.021 A 
ATOM      3  C3  MOL d          47.492  51.583  32.781  0.00  0.00     0.060 A 
ATOM      4  N4  MOL d          48.689  51.546  32.210  0.00  0.00    -0.067 NA
ATOM      5  N5  MOL d          49.372  50.342  34.208  0.00  0.00    -0.150 N 
ATOM      6  C6  MOL d          49.681  50.903  32.937  0.00  0.00     0.734 A 
ATOM      7  N7  MOL d          50.991  50.707  32.612  0.00  0.00    -0.055 NA
ATOM      8  C8  MOL d          51.490  50.010  33.720  0.00  0.00     0.160 A 
ATOM      9  C9  MOL d          50.542  49.774  34.694  0.00  0.00     0.037 A 
ATOM     10  H1  MOL d          50.682  49.254  35.640  0.00  0.00     0.117 H 
ENDROOT
BRANCH   8  11
ATOM     11  C10 MOL d          52.901  49.562  33.788  0.00  0.00     0.274 C 
ATOM     12  O11 MOL d          53.358  48.829  32.887  0.00  0.00    -0.266 OA
ATOM     13  N12 MOL d          53.534  49.683  35.036  0.00  0.00    -0.343 N 
ATOM     14  C24 MOL d          53.478  50.892  35.888  0.00  0.00     0.018 C 
ATOM     15  C28 MOL d          54.709  48.840  35.341  0.00  0.00     0.018 C 
ATOM     16  C25 MOL d          54.797  51.738  35.693  0.00  0.00     0.034 C 
ATOM     17  H13 MOL d          53.388  50.592  36.942  0.00  0.00     0.067 H 
ATOM     18  H14 MOL d          52.607  51.500  35.604  0.00  0.00     0.067 H 
ATOM     19  O26 MOL d          56.005  50.952  35.796  0.00  0.00    -0.388 OA
ATOM     20  H15 MOL d          54.826  52.523  36.464  0.00  0.00     0.076 H 
ATOM     21  H16 MOL d          54.769  52.204  34.697  0.00  0.00     0.076 H 
ATOM     22  C27 MOL d          55.995  49.680  35.099  0.00  0.00     0.034 C 
ATOM     23  H17 MOL d          56.861  49.092  35.438  0.00  0.00     0.076 H 
ATOM     24  H18 MOL d          56.083  49.875  34.020  0.00  0.00     0.076 H 
ATOM     25  H19 MOL d          54.712  47.958  34.684  0.00  0.00     0.067 H 
ATOM     26  H20 MOL d          54.670  48.516  36.391  0.00  0.00     0.067 H 
ENDBRANCH   8  11
BRANCH   1  27
ATOM     27  C14 MOL d          47.952  49.789  36.092  0.00  0.00     0.014 A 
ATOM     28  C17 MOL d          47.438  48.511  36.221  0.00  0.00    -0.068 A 
ATOM     29  C18 MOL d          47.306  47.964  37.492  0.00  0.00    -0.061 A 
ATOM     30  H10 MOL d          47.143  47.945  35.345  0.00  0.00     0.085 H 
ATOM     31  C19 MOL d          47.703  48.716  38.600  0.00  0.00     0.035 A 
ATOM     32  H11 MOL d          46.900  46.967  37.622  0.00  0.00     0.086 H 
ATOM     33  C20 MOL d          48.208  49.976  38.505  0.00  0.00    -0.040 A 
ATOM     34 CL23 MOL d          47.605  48.038  40.154  0.00  0.00    -0.084 Cl
ATOM     35  C21 MOL d          48.336  50.493  37.245  0.00  0.00     0.048 A 
ATOM     36  H12 MOL d          48.495  50.542  39.383  0.00  0.00     0.088 H 
ATOM     37 CL22 MOL d          48.987  52.054  37.115  0.00  0.00    -0.083 Cl
ENDBRANCH   1  27
BRANCH   3  38
ATOM     38  C13 MOL d          46.472  52.312  31.979  0.00  0.00    -0.034 C 
ATOM     39  H2  MOL d          45.951  51.604  31.317  0.00  0.00     0.035 H 
ATOM     40  H3  MOL d          46.965  53.086  31.373  0.00  0.00     0.035 H 
ATOM     41  H4  MOL d          45.743  52.784  32.656  0.00  0.00     0.035 H 
ENDBRANCH   3  38
BRANCH   2  42
ATOM     42  C15 MOL d          45.734  51.099  34.543  0.00  0.00     0.107 C 
ATOM     43  H5  MOL d          45.275  52.048  34.234  0.00  0.00     0.083 H 
ATOM     44  H6  MOL d          45.720  51.024  35.641  0.00  0.00     0.083 H 
BRANCH  42  45
ATOM     45  N16 MOL d          45.012  49.998  33.970  0.00  0.00    -0.075 N 
ATOM     46  H7  MOL d          44.026  50.204  33.977  0.00  0.00     0.274 HD
ATOM     47  H8  MOL d          45.185  49.165  34.510  0.00  0.00     0.274 HD
ATOM     48  H9  MOL d          45.319  49.854  33.021  0.00  0.00     0.274 HD
ENDBRANCH  42  45
ENDBRANCH   2  42
TORSDOF 5
ENDMDL
MODEL 2
REMARK VINA RESULT:      -6.5      1.034      1.378
REMARK  5 active torsions:
REMARK  status: ('A' for Active; 'I' for Inactive)
REMARK    1  A    between atoms: C1_1  and  C14_14 
REMARK    2  A    between atoms: C2_2  and  C15_15 
REMARK    3  A    between atoms: C3_3  and  C13_13 
REMARK    4  A    between atoms: C8_8  and  C10_10 
REMARK       I    between atoms: C10_10  and  N12_12 
REMARK    5  A    between atoms: C15_15  and  N16_16 
ROOT
ATOM      1  C1  MOL d          48.234  50.678  34.548  0.00  0.00     0.078 A 
ATOM      2  C2  MOL d          47.257  51.311  33.821  0.00  0.00     0.021 A 
ATOM      3  C3  MOL d          47.574  51.755  32.509  0.00  0.00     0.060 A 
ATOM      4  N4  MOL d          48.754  51.646  31.913  0.00  0.00    -0.067 NA
ATOM      5  N5  MOL d          49.464  50.581  33.980  0.00  0.00    -0.150 N 
ATOM      6  C6  MOL d          49.751  51.036  32.663  0.00  0.00     0.734 A 
ATOM      7  N7  MOL d          51.047  50.784  32.320  0.00  0.00    -0.055 NA
ATOM      8  C8  MOL d          51.560  50.162  33.466  0.00  0.00     0.160 A 
ATOM      9  C9  MOL d          50.634  50.024  34.478  0.00  0.00     0.037 A 
ATOM     10  H1  MOL d          50.787  49.574  35.458  0.00  0.00     0.117 H 
ENDROOT
BRANCH   8  11
ATOM     11  C10 MOL d          52.962  49.687  33.533  0.00  0.00     0.274 C 
ATOM     12  O11 MOL d          53.442  49.051  32.572  0.00  0.00    -0.266 OA
ATOM     13  N12 MOL d          53.550  49.658  34.808  0.00  0.00    -0.343 N 
ATOM     14  C24 MOL d          53.478  50.765  35.787  0.00  0.00     0.018 C 
ATOM     15  C28 MOL d          54.703  48.768  35.057  0.00  0.00     0.018 C 
ATOM     16  C25 MOL d          54.814  51.607  35.734  0.00  0.00     0.034 C 
ATOM     17  H13 MOL d          53.346  50.351  36.798  0.00  0.00     0.067 H 
ATOM     18  H14 MOL d          52.625  51.415  35.542  0.00  0.00     0.067 H 
ATOM     19  O26 MOL d          56.007  50.795  35.791  0.00  0.00    -0.388 OA
ATOM     20  H15 MOL d          54.823  52.300  36.588  0.00  0.00     0.076 H 
ATOM     21  H16 MOL d          54.827  52.181  34.796  0.00  0.00     0.076 H 
ATOM     22  C27 MOL d          56.007  49.608  34.956  0.00  0.00     0.034 C 
ATOM     23  H17 MOL d          56.853  48.973  35.258  0.00  0.00     0.076 H 
ATOM     24  H18 MOL d          56.137  49.921  33.909  0.00  0.00     0.076 H 
ATOM     25  H19 MOL d          54.720  47.964  34.307  0.00  0.00     0.067 H 
ATOM     26  H20 MOL d          54.622  48.329  36.062  0.00  0.00     0.067 H 
ENDBRANCH   8  11
BRANCH   1  27
ATOM     27  C14 MOL d          48.083  50.207  35.935  0.00  0.00     0.014 A 
ATOM     28  C17 MOL d          48.510  51.011  36.977  0.00  0.00    -0.068 A 
ATOM     29  C18 MOL d          48.335  50.569  38.284  0.00  0.00    -0.061 A 
ATOM     30  H10 MOL d          48.974  51.970  36.778  0.00  0.00     0.085 H 
ATOM     31  C19 MOL d          47.726  49.332  38.507  0.00  0.00     0.035 A 
ATOM     32  H11 MOL d          48.666  51.177  39.118  0.00  0.00     0.086 H 
ATOM     33  C20 MOL d          47.299  48.518  37.502  0.00  0.00    -0.040 A 
ATOM     34 CL23 MOL d          47.449  48.806  40.098  0.00  0.00    -0.084 Cl
ATOM     35  C21 MOL d          47.475  48.974  36.225  0.00  0.00     0.048 A 
ATOM     36  H12 MOL d          46.843  47.556  37.705  0.00  0.00     0.088 H 
ATOM     37 CL22 MOL d          46.925  47.977  34.968  0.00  0.00    -0.083 Cl
ENDBRANCH   1  27
BRANCH   3  38
ATOM     38  C13 MOL d          46.549  52.444  31.680  0.00  0.00    -0.034 C 
ATOM     39  H2  MOL d          45.879  53.025  32.332  0.00  0.00     0.035 H 
ATOM     40  H3  MOL d          45.962  51.697  31.124  0.00  0.00     0.035 H 
ATOM     41  H4  MOL d          47.047  53.122  30.970  0.00  0.00     0.035 H 
ENDBRANCH   3  38
BRANCH   2  42
ATOM     42  C15 MOL d          45.854  51.448  34.347  0.00  0.00     0.107 C 
ATOM     43  H5  MOL d          45.425  52.406  34.019  0.00  0.00     0.083 H 
ATOM     44  H6  MOL d          45.862  51.407  35.446  0.00  0.00     0.083 H 
BRANCH  42  45
ATOM     45  N16 MOL d          45.076  50.361  33.824  0.00  0.00    -0.075 N 
ATOM     46  H7  MOL d          44.253  50.724  33.370  0.00  0.00     0.274 HD
ATOM     47  H8  MOL d          44.802  49.751  34.579  0.00  0.00     0.274 HD
ATOM     48  H9  MOL d          45.627  49.844  33.157  0.00  0.00     0.274 HD
ENDBRANCH  42  45
ENDBRANCH   2  42
TORSDOF 5
ENDMDL
MODEL 3
REMARK VINA RESULT:      -5.5      2.065      2.707
REMARK  5 active torsions:
REMARK  status: ('A' for Active; 'I' for Inactive)
REMARK    1  A    between atoms: C1_1  and  C14_14 
REMARK    2  A    between atoms: C2_2  and  C15_15 
REMARK    3  A    between atoms: C3_3  and  C13_13 
REMARK    4  A    between atoms: C8_8  and  C10_10 
REMARK       I    between atoms: C10_10  and  N12_12 
REMARK    5  A    between atoms: C15_15  and  N16_16 
ROOT
ATOM      1  C1  MOL d          47.942  50.945  33.716  0.00  0.00     0.078 A 
ATOM      2  C2  MOL d          46.859  51.460  33.046  0.00  0.00     0.021 A 
ATOM      3  C3  MOL d          47.045  51.911  31.712  0.00  0.00     0.060 A 
ATOM      4  N4  MOL d          48.190  51.915  31.042  0.00  0.00    -0.067 NA
ATOM      5  N5  MOL d          49.137  50.967  33.071  0.00  0.00    -0.150 N 
ATOM      6  C6  MOL d          49.291  51.427  31.733  0.00  0.00     0.734 A 
ATOM      7  N7  MOL d          50.582  51.305  31.310  0.00  0.00    -0.055 NA
ATOM      8  C8  MOL d          51.229  50.760  32.427  0.00  0.00     0.160 A 
ATOM      9  C9  MOL d          50.388  50.544  33.499  0.00  0.00     0.037 A 
ATOM     10  H1  MOL d          50.649  50.130  34.472  0.00  0.00     0.117 H 
ENDROOT
BRANCH   8  11
ATOM     11  C10 MOL d          52.674  50.435  32.408  0.00  0.00     0.274 C 
ATOM     12  O11 MOL d          53.512  51.349  32.551  0.00  0.00    -0.266 OA
ATOM     13  N12 MOL d          53.025  49.187  31.869  0.00  0.00    -0.343 N 
ATOM     14  C24 MOL d          52.356  47.912  32.206  0.00  0.00     0.018 C 
ATOM     15  C28 MOL d          54.394  48.977  31.351  0.00  0.00     0.018 C 
ATOM     16  C25 MOL d          53.211  47.132  33.281  0.00  0.00     0.034 C 
ATOM     17  H13 MOL d          52.260  47.297  31.299  0.00  0.00     0.067 H 
ATOM     18  H14 MOL d          51.356  48.120  32.615  0.00  0.00     0.067 H 
ATOM     19  O26 MOL d          54.611  47.035  32.940  0.00  0.00    -0.388 OA
ATOM     20  H15 MOL d          52.805  46.114  33.379  0.00  0.00     0.076 H 
ATOM     21  H16 MOL d          53.122  47.656  34.244  0.00  0.00     0.076 H 
ATOM     22  C27 MOL d          55.228  48.249  32.441  0.00  0.00     0.034 C 
ATOM     23  H17 MOL d          56.207  47.989  32.012  0.00  0.00     0.076 H 
ATOM     24  H18 MOL d          55.369  48.939  33.287  0.00  0.00     0.076 H 
ATOM     25  H19 MOL d          54.854  49.948  31.116  0.00  0.00     0.067 H 
ATOM     26  H20 MOL d          54.355  48.361  30.441  0.00  0.00     0.067 H 
ENDBRANCH   8  11
BRANCH   1  27
ATOM     27  C14 MOL d          47.929  50.486  35.115  0.00  0.00     0.014 A 
ATOM     28  C17 MOL d          48.306  51.358  36.121  0.00  0.00    -0.068 A 
ATOM     29  C18 MOL d          48.261  50.923  37.441  0.00  0.00    -0.061 A 
ATOM     30  H10 MOL d          48.631  52.364  35.884  0.00  0.00     0.085 H 
ATOM     31  C19 MOL d          47.829  49.623  37.714  0.00  0.00     0.035 A 
ATOM     32  H11 MOL d          48.557  51.584  38.248  0.00  0.00     0.086 H 
ATOM     33  C20 MOL d          47.455  48.742  36.745  0.00  0.00    -0.040 A 
ATOM     34 CL23 MOL d          47.710  49.097  39.324  0.00  0.00    -0.084 Cl
ATOM     35  C21 MOL d          47.501  49.192  35.455  0.00  0.00     0.048 A 
ATOM     36  H12 MOL d          47.138  47.734  36.985  0.00  0.00     0.088 H 
ATOM     37 CL22 MOL d          47.015  48.109  34.243  0.00  0.00    -0.083 Cl
ENDBRANCH   1  27
BRANCH   3  38
ATOM     38  C13 MOL d          45.902  52.475  30.943  0.00  0.00    -0.034 C 
ATOM     39  H2  MOL d          45.804  51.941  29.987  0.00  0.00     0.035 H 
ATOM     40  H3  MOL d          46.082  53.544  30.750  0.00  0.00     0.035 H 
ATOM     41  H4  MOL d          44.975  52.358  31.525  0.00  0.00     0.035 H 
ENDBRANCH   3  38
BRANCH   2  42
ATOM     42  C15 MOL d          45.486  51.460  33.661  0.00  0.00     0.107 C 
ATOM     43  H5  MOL d          44.931  52.351  33.334  0.00  0.00     0.083 H 
ATOM     44  H6  MOL d          45.568  51.460  34.757  0.00  0.00     0.083 H 
BRANCH  42  45
ATOM     45  N16 MOL d          44.804  50.275  33.223  0.00  0.00    -0.075 N 
ATOM     46  H7  MOL d          45.431  49.487  33.279  0.00  0.00     0.274 HD
ATOM     47  H8  MOL d          44.501  50.395  32.269  0.00  0.00     0.274 HD
ATOM     48  H9  MOL d          44.004  50.110  33.813  0.00  0.00     0.274 HD
ENDBRANCH  42  45
ENDBRANCH   2  42
TORSDOF 5
ENDMDL
MODEL 4
REMARK VINA RESULT:      -5.5      2.829      4.521
REMARK  5 active torsions:
REMARK  status: ('A' for Active; 'I' for Inactive)
REMARK    1  A    between atoms: C1_1  and  C14_14 
REMARK    2  A    between atoms: C2_2  and  C15_15 
REMARK    3  A    between atoms: C3_3  and  C13_13 
REMARK    4  A    between atoms: C8_8  and  C10_10 
REMARK       I    between atoms: C10_10  and  N12_12 
REMARK    5  A    between atoms: C15_15  and  N16_16 
ROOT
ATOM      1  C1  MOL d          48.301  50.596  34.704  0.00  0.00     0.078 A 
ATOM      2  C2  MOL d          48.127  50.974  36.013  0.00  0.00     0.021 A 
ATOM      3  C3  MOL d          49.281  51.155  36.821  0.00  0.00     0.060 A 
ATOM      4  N4  MOL d          50.537  50.959  36.442  0.00  0.00    -0.067 NA
ATOM      5  N5  MOL d          49.573  50.354  34.294  0.00  0.00    -0.150 N 
ATOM      6  C6  MOL d          50.710  50.543  35.129  0.00  0.00     0.734 A 
ATOM      7  N7  MOL d          51.868  50.268  34.463  0.00  0.00    -0.055 NA
ATOM      8  C8  MOL d          51.418  49.898  33.189  0.00  0.00     0.160 A 
ATOM      9  C9  MOL d          50.046  49.941  33.055  0.00  0.00     0.037 A 
ATOM     10  H1  MOL d          49.460  49.704  32.170  0.00  0.00     0.117 H 
ENDROOT
BRANCH   8  11
ATOM     11  C10 MOL d          52.361  49.529  32.107  0.00  0.00     0.274 C 
ATOM     12  O11 MOL d          52.485  50.278  31.117  0.00  0.00    -0.266 OA
ATOM     13  N12 MOL d          52.785  48.190  32.080  0.00  0.00    -0.343 N 
ATOM     14  C24 MOL d          53.253  47.437  33.264  0.00  0.00     0.018 C 
ATOM     15  C28 MOL d          53.289  47.612  30.817  0.00  0.00     0.018 C 
ATOM     16  C25 MOL d          54.833  47.418  33.289  0.00  0.00     0.034 C 
ATOM     17  H13 MOL d          52.876  46.405  33.214  0.00  0.00     0.067 H 
ATOM     18  H14 MOL d          52.879  47.922  34.178  0.00  0.00     0.067 H 
ATOM     19  O26 MOL d          55.422  47.035  32.027  0.00  0.00    -0.388 OA
ATOM     20  H15 MOL d          55.161  46.703  34.058  0.00  0.00     0.076 H 
ATOM     21  H16 MOL d          55.190  48.426  33.548  0.00  0.00     0.076 H 
ATOM     22  C27 MOL d          54.843  47.645  30.845  0.00  0.00     0.034 C 
ATOM     23  H17 MOL d          55.217  47.109  29.960  0.00  0.00     0.076 H 
ATOM     24  H18 MOL d          55.168  48.695  30.803  0.00  0.00     0.076 H 
ATOM     25  H19 MOL d          52.921  48.203  29.965  0.00  0.00     0.067 H 
ATOM     26  H20 MOL d          52.942  46.573  30.719  0.00  0.00     0.067 H 
ENDBRANCH   8  11
BRANCH   1  27
ATOM     27  C14 MOL d          47.212  50.318  33.753  0.00  0.00     0.014 A 
ATOM     28  C17 MOL d          46.845  51.285  32.835  0.00  0.00    -0.068 A 
ATOM     29  C18 MOL d          45.835  51.000  31.923  0.00  0.00    -0.061 A 
ATOM     30  H10 MOL d          47.338  52.251  32.827  0.00  0.00     0.085 H 
ATOM     31  C19 MOL d          45.226  49.743  31.955  0.00  0.00     0.035 A 
ATOM     32  H11 MOL d          45.525  51.743  31.197  0.00  0.00     0.086 H 
ATOM     33  C20 MOL d          45.563  48.773  32.848  0.00  0.00    -0.040 A 
ATOM     34 CL23 MOL d          44.035  49.358  30.808  0.00  0.00    -0.084 Cl
ATOM     35  C21 MOL d          46.563  49.071  33.732  0.00  0.00     0.048 A 
ATOM     36  H12 MOL d          45.063  47.812  32.859  0.00  0.00     0.088 H 
ATOM     37 CL22 MOL d          47.005  47.860  34.834  0.00  0.00    -0.083 Cl
ENDBRANCH   1  27
BRANCH   3  38
ATOM     38  C13 MOL d          49.145  51.566  38.245  0.00  0.00    -0.034 C 
ATOM     39  H2  MOL d          49.028  50.672  38.875  0.00  0.00     0.035 H 
ATOM     40  H3  MOL d          48.261  52.213  38.357  0.00  0.00     0.035 H 
ATOM     41  H4  MOL d          50.045  52.118  38.554  0.00  0.00     0.035 H 
ENDBRANCH   3  38
BRANCH   2  42
ATOM     42  C15 MOL d          46.762  51.292  36.560  0.00  0.00     0.107 C 
ATOM     43  H5  MOL d          46.071  51.513  35.735  0.00  0.00     0.083 H 
ATOM     44  H6  MOL d          46.823  52.162  37.231  0.00  0.00     0.083 H 
BRANCH  42  45
ATOM     45  N16 MOL d          46.299  50.145  37.290  0.00  0.00    -0.075 N 
ATOM     46  H7  MOL d          47.009  49.430  37.277  0.00  0.00     0.274 HD
ATOM     47  H8  MOL d          45.458  49.792  36.862  0.00  0.00     0.274 HD
ATOM     48  H9  MOL d          46.107  50.410  38.243  0.00  0.00     0.274 HD
ENDBRANCH  42  45
ENDBRANCH   2  42
TORSDOF 5
ENDMDL
MODEL 5
REMARK VINA RESULT:      -5.2      1.723      2.057
REMARK  5 active torsions:
REMARK  status: ('A' for Active; 'I' for Inactive)
REMARK    1  A    between atoms: C1_1  and  C14_14 
REMARK    2  A    between atoms: C2_2  and  C15_15 
REMARK    3  A    between atoms: C3_3  and  C13_13 
REMARK    4  A    between atoms: C8_8  and  C10_10 
REMARK       I    between atoms: C10_10  and  N12_12 
REMARK    5  A    between atoms: C15_15  and  N16_16 
ROOT
ATOM      1  C1  MOL d          48.084  50.995  33.552  0.00  0.00     0.078 A 
ATOM      2  C2  MOL d          47.121  51.808  33.007  0.00  0.00     0.021 A 
ATOM      3  C3  MOL d          47.421  52.491  31.799  0.00  0.00     0.060 A 
ATOM      4  N4  MOL d          48.574  52.449  31.144  0.00  0.00    -0.067 NA
ATOM      5  N5  MOL d          49.289  50.957  32.926  0.00  0.00    -0.150 N 
ATOM      6  C6  MOL d          49.559  51.655  31.715  0.00  0.00     0.734 A 
ATOM      7  N7  MOL d          50.828  51.416  31.276  0.00  0.00    -0.055 NA
ATOM      8  C8  MOL d          51.342  50.552  32.252  0.00  0.00     0.160 A 
ATOM      9  C9  MOL d          50.442  50.256  33.254  0.00  0.00     0.037 A 
ATOM     10  H1  MOL d          50.600  49.612  34.117  0.00  0.00     0.117 H 
ENDROOT
BRANCH   8  11
ATOM     11  C10 MOL d          52.717  50.008  32.164  0.00  0.00     0.274 C 
ATOM     12  O11 MOL d          53.075  49.404  31.132  0.00  0.00    -0.266 OA
ATOM     13  N12 MOL d          53.415  49.879  33.376  0.00  0.00    -0.343 N 
ATOM     14  C24 MOL d          53.490  50.931  34.414  0.00  0.00     0.018 C 
ATOM     15  C28 MOL d          54.537  48.922  33.472  0.00  0.00     0.018 C 
ATOM     16  C25 MOL d          54.857  51.710  34.281  0.00  0.00     0.034 C 
ATOM     17  H13 MOL d          53.427  50.468  35.409  0.00  0.00     0.067 H 
ATOM     18  H14 MOL d          52.654  51.634  34.283  0.00  0.00     0.067 H 
ATOM     19  O26 MOL d          56.006  50.840  34.185  0.00  0.00    -0.388 OA
ATOM     20  H15 MOL d          54.980  52.353  35.165  0.00  0.00     0.076 H 
ATOM     21  H16 MOL d          54.817  52.335  33.376  0.00  0.00     0.076 H 
ATOM     22  C27 MOL d          55.869  49.703  33.294  0.00  0.00     0.034 C 
ATOM     23  H17 MOL d          56.704  49.013  33.483  0.00  0.00     0.076 H 
ATOM     24  H18 MOL d          55.921  50.068  32.257  0.00  0.00     0.076 H 
ATOM     25  H19 MOL d          54.444  48.161  32.682  0.00  0.00     0.067 H 
ATOM     26  H20 MOL d          54.523  48.432  34.456  0.00  0.00     0.067 H 
ENDBRANCH   8  11
BRANCH   1  27
ATOM     27  C14 MOL d          47.951  50.262  34.823  0.00  0.00     0.014 A 
ATOM     28  C17 MOL d          48.460  50.815  35.984  0.00  0.00    -0.068 A 
ATOM     29  C18 MOL d          48.302  50.128  37.182  0.00  0.00    -0.061 A 
ATOM     30  H10 MOL d          48.974  51.769  35.960  0.00  0.00     0.085 H 
ATOM     31  C19 MOL d          47.628  48.905  37.180  0.00  0.00     0.035 A 
ATOM     32  H11 MOL d          48.696  50.536  38.106  0.00  0.00     0.086 H 
ATOM     33  C20 MOL d          47.119  48.335  36.053  0.00  0.00    -0.040 A 
ATOM     34 CL23 MOL d          47.372  48.084  38.645  0.00  0.00    -0.084 Cl
ATOM     35  C21 MOL d          47.280  49.030  34.887  0.00  0.00     0.048 A 
ATOM     36  H12 MOL d          46.613  47.377  36.080  0.00  0.00     0.088 H 
ATOM     37 CL22 MOL d          46.630  48.338  33.481  0.00  0.00    -0.083 Cl
ENDBRANCH   1  27
BRANCH   3  38
ATOM     38  C13 MOL d          46.409  53.382  31.167  0.00  0.00    -0.034 C 
ATOM     39  H2  MOL d          45.959  54.028  31.935  0.00  0.00     0.035 H 
ATOM     40  H3  MOL d          45.625  52.771  30.696  0.00  0.00     0.035 H 
ATOM     41  H4  MOL d          46.897  54.006  30.403  0.00  0.00     0.035 H 
ENDBRANCH   3  38
BRANCH   2  42
ATOM     42  C15 MOL d          45.745  51.902  33.608  0.00  0.00     0.107 C 
ATOM     43  H5  MOL d          45.545  52.937  33.922  0.00  0.00     0.083 H 
ATOM     44  H6  MOL d          45.672  51.234  34.479  0.00  0.00     0.083 H 
BRANCH  42  45
ATOM     45  N16 MOL d          44.796  51.505  32.607  0.00  0.00    -0.075 N 
ATOM     46  H7  MOL d          44.745  50.499  32.573  0.00  0.00     0.274 HD
ATOM     47  H8  MOL d          45.087  51.857  31.709  0.00  0.00     0.274 HD
ATOM     48  H9  MOL d          43.889  51.879  32.838  0.00  0.00     0.274 HD
ENDBRANCH  42  45
ENDBRANCH   2  42
TORSDOF 5
ENDMDL
MODEL 6
REMARK VINA RESULT:      -4.9      2.913      4.193
REMARK  5 active torsions:
REMARK  status: ('A' for Active; 'I' for Inactive)
REMARK    1  A    between atoms: C1_1  and  C14_14 
REMARK    2  A    between atoms: C2_2  and  C15_15 
REMARK    3  A    between atoms: C3_3  and  C13_13 
REMARK    4  A    between atoms: C8_8  and  C10_10 
REMARK       I    between atoms: C10_10  and  N12_12 
REMARK    5  A    between atoms: C15_15  and  N16_16 
ROOT
ATOM      1  C1  MOL d          48.287  50.429  34.705  0.00  0.00     0.078 A 
ATOM      2  C2  MOL d          48.024  50.635  36.037  0.00  0.00     0.021 A 
ATOM      3  C3  MOL d          49.098  51.019  36.884  0.00  0.00     0.060 A 
ATOM      4  N4  MOL d          50.364  51.171  36.518  0.00  0.00    -0.067 NA
ATOM      5  N5  MOL d          49.579  50.542  34.305  0.00  0.00    -0.150 N 
ATOM      6  C6  MOL d          50.635  50.928  35.178  0.00  0.00     0.734 A 
ATOM      7  N7  MOL d          51.825  51.005  34.517  0.00  0.00    -0.055 NA
ATOM      8  C8  MOL d          51.481  50.651  33.206  0.00  0.00     0.160 A 
ATOM      9  C9  MOL d          50.140  50.370  33.046  0.00  0.00     0.037 A 
ATOM     10  H1  MOL d          49.630  50.075  32.130  0.00  0.00     0.117 H 
ENDROOT
BRANCH   8  11
ATOM     11  C10 MOL d          52.486  50.621  32.118  0.00  0.00     0.274 C 
ATOM     12  O11 MOL d          52.143  50.259  30.974  0.00  0.00    -0.266 OA
ATOM     13  N12 MOL d          53.833  50.647  32.514  0.00  0.00    -0.343 N 
ATOM     14  C24 MOL d          54.392  51.577  33.519  0.00  0.00     0.018 C 
ATOM     15  C28 MOL d          54.871  50.129  31.597  0.00  0.00     0.018 C 
ATOM     16  C25 MOL d          55.098  52.786  32.789  0.00  0.00     0.034 C 
ATOM     17  H13 MOL d          55.127  51.045  34.141  0.00  0.00     0.067 H 
ATOM     18  H14 MOL d          53.580  51.958  34.156  0.00  0.00     0.067 H 
ATOM     19  O26 MOL d          56.005  52.373  31.742  0.00  0.00    -0.388 OA
ATOM     20  H15 MOL d          55.666  53.361  33.535  0.00  0.00     0.076 H 
ATOM     21  H16 MOL d          54.322  53.427  32.344  0.00  0.00     0.076 H 
ATOM     22  C27 MOL d          55.521  51.331  30.857  0.00  0.00     0.034 C 
ATOM     23  H17 MOL d          56.369  50.957  30.266  0.00  0.00     0.076 H 
ATOM     24  H18 MOL d          54.769  51.770  30.184  0.00  0.00     0.076 H 
ATOM     25  H19 MOL d          54.413  49.446  30.866  0.00  0.00     0.067 H 
ATOM     26  H20 MOL d          55.637  49.589  32.172  0.00  0.00     0.067 H 
ENDBRANCH   8  11
BRANCH   1  27
ATOM     27  C14 MOL d          47.299  49.978  33.710  0.00  0.00     0.014 A 
ATOM     28  C17 MOL d          47.035  48.627  33.577  0.00  0.00    -0.068 A 
ATOM     29  C18 MOL d          46.079  48.215  32.655  0.00  0.00    -0.061 A 
ATOM     30  H10 MOL d          47.565  47.900  34.182  0.00  0.00     0.085 H 
ATOM     31  C19 MOL d          45.408  49.177  31.896  0.00  0.00     0.035 A 
ATOM     32  H11 MOL d          45.857  47.162  32.527  0.00  0.00     0.086 H 
ATOM     33  C20 MOL d          45.650  50.513  32.002  0.00  0.00    -0.040 A 
ATOM     34 CL23 MOL d          44.195  48.695  30.811  0.00  0.00    -0.084 Cl
ATOM     35  C21 MOL d          46.588  50.897  32.919  0.00  0.00     0.048 A 
ATOM     36  H12 MOL d          45.124  51.236  31.390  0.00  0.00     0.088 H 
ATOM     37 CL22 MOL d          46.879  52.561  33.075  0.00  0.00    -0.083 Cl
ENDBRANCH   1  27
BRANCH   3  38
ATOM     38  C13 MOL d          48.864  51.257  38.334  0.00  0.00    -0.034 C 
ATOM     39  H2  MOL d          49.709  51.823  38.754  0.00  0.00     0.035 H 
ATOM     40  H3  MOL d          48.774  50.292  38.855  0.00  0.00     0.035 H 
ATOM     41  H4  MOL d          47.935  51.833  38.466  0.00  0.00     0.035 H 
ENDBRANCH   3  38
BRANCH   2  42
ATOM     42  C15 MOL d          46.623  50.560  36.580  0.00  0.00     0.107 C 
ATOM     43  H5  MOL d          46.651  50.462  37.674  0.00  0.00     0.083 H 
ATOM     44  H6  MOL d          46.102  49.693  36.148  0.00  0.00     0.083 H 
BRANCH  42  45
ATOM     45  N16 MOL d          45.940  51.769  36.216  0.00  0.00    -0.075 N 
ATOM     46  H7  MOL d          46.576  52.548  36.286  0.00  0.00     0.274 HD
ATOM     47  H8  MOL d          45.161  51.915  36.837  0.00  0.00     0.274 HD
ATOM     48  H9  MOL d          45.606  51.694  35.268  0.00  0.00     0.274 HD
ENDBRANCH  42  45
ENDBRANCH   2  42
TORSDOF 5
ENDMDL
