MODEL 1
REMARK VINA RESULT:      -6.7      0.000      0.000
REMARK  5 active torsions:
REMARK  status: ('A' for Active; 'I' for Inactive)
REMARK    1  A    between atoms: C1_1  and  C14_14 
REMARK    2  A    between atoms: C2_2  and  C15_15 
REMARK    3  A    between atoms: C3_3  and  C13_13 
REMARK    4  A    between atoms: C8_8  and  C10_10 
REMARK       I    between atoms: C10_10  and  N12_12 
REMARK    5  A    between atoms: C15_15  and  N16_16 
ROOT
ATOM      1  C1  MOL d          48.139  50.409  34.790  0.00  0.00     0.078 A 
ATOM      2  C2  MOL d          47.170  51.080  34.086  0.00  0.00     0.021 A 
ATOM      3  C3  MOL d          47.516  51.637  32.826  0.00  0.00     0.060 A 
ATOM      4  N4  MOL d          48.716  51.602  32.260  0.00  0.00    -0.067 NA
ATOM      5  N5  MOL d          49.388  50.385  34.255  0.00  0.00    -0.150 N 
ATOM      6  C6  MOL d          49.704  50.953  32.989  0.00  0.00     0.734 A 
ATOM      7  N7  MOL d          51.014  50.756  32.669  0.00  0.00    -0.055 NA
ATOM      8  C8  MOL d          51.507  50.052  33.775  0.00  0.00     0.160 A 
ATOM      9  C9  MOL d          50.554  49.812  34.743  0.00  0.00     0.037 A 
ATOM     10  H1  MOL d          50.688  49.287  35.687  0.00  0.00     0.117 H 
ENDROOT
BRANCH   8  11
ATOM     11  C10 MOL d          52.917  49.602  33.847  0.00  0.00     0.274 C 
ATOM     12  O11 MOL d          53.381  48.884  32.938  0.00  0.00    -0.266 OA
ATOM     13  N12 MOL d          53.539  49.702  35.103  0.00  0.00    -0.343 N 
ATOM     14  C24 MOL d          53.478  50.896  35.974  0.00  0.00     0.018 C 
ATOM     15  C28 MOL d          54.711  48.853  35.403  0.00  0.00     0.018 C 
ATOM     16  C25 MOL d          54.799  51.744  35.804  0.00  0.00     0.034 C 
ATOM     17  H13 MOL d          53.379  50.578  37.023  0.00  0.00     0.067 H 
ATOM     18  H14 MOL d          52.610  51.510  35.693  0.00  0.00     0.067 H 
ATOM     19  O26 MOL d          56.005  50.955  35.904  0.00  0.00    -0.388 OA
ATOM     20  H15 MOL d          54.822  52.515  36.589  0.00  0.00     0.076 H 
ATOM     21  H16 MOL d          54.780  52.227  34.816  0.00  0.00     0.076 H 
ATOM     22  C27 MOL d          56.000  49.694  35.186  0.00  0.00     0.034 C 
ATOM     23  H17 MOL d          56.862  49.101  35.523  0.00  0.00     0.076 H 
ATOM     24  H18 MOL d          56.097  49.908  34.112  0.00  0.00     0.076 H 
ATOM     25  H19 MOL d          54.719  47.981  34.732  0.00  0.00     0.067 H 
ATOM     26  H20 MOL d          54.663  48.510  36.447  0.00  0.00     0.067 H 
ENDBRANCH   8  11
BRANCH   1  27
ATOM     27  C14 MOL d          47.957  49.823  36.128  0.00  0.00     0.014 A 
ATOM     28  C17 MOL d          47.435  48.548  36.248  0.00  0.00    -0.068 A 
ATOM     29  C18 MOL d          47.296  47.993  37.515  0.00  0.00    -0.061 A 
ATOM     30  H10 MOL d          47.139  47.989  35.367  0.00  0.00     0.085 H 
ATOM     31  C19 MOL d          47.694  48.736  38.629  0.00  0.00     0.035 A 
ATOM     32  H11 MOL d          46.883  46.998  37.637  0.00  0.00     0.086 H 
ATOM     33  C20 MOL d          48.208  49.993  38.543  0.00  0.00    -0.040 A 
ATOM     34 CL23 MOL d          47.588  48.048  40.179  0.00  0.00    -0.084 Cl
ATOM     35  C21 MOL d          48.343  50.518  37.287  0.00  0.00     0.048 A 
ATOM     36  H12 MOL d          48.496  50.551  39.426  0.00  0.00     0.088 H 
ATOM     37 CL22 MOL d          49.003  52.075  37.169  0.00  0.00    -0.083 Cl
ENDBRANCH   1  27
BRANCH   3  38
ATOM     38  C13 MOL d          46.501  52.372  32.024  0.00  0.00    -0.034 C 
ATOM     39  H2  MOL d          46.071  53.183  32.630  0.00  0.00     0.035 H 
ATOM     40  H3  MOL d          45.702  51.679  31.719  0.00  0.00     0.035 H 
ATOM     41  H4  MOL d          46.979  52.797  31.128  0.00  0.00     0.035 H 
ENDBRANCH   3  38
BRANCH   2  42
ATOM     42  C15 MOL d          45.749  51.145  34.577  0.00  0.00     0.107 C 
ATOM     43  H5  MOL d          45.285  52.088  34.253  0.00  0.00     0.083 H 
ATOM     44  H6  MOL d          45.731  51.086  35.675  0.00  0.00     0.083 H 
BRANCH  42  45
ATOM     45  N16 MOL d          45.035  50.033  34.016  0.00  0.00    -0.075 N 
ATOM     46  H7  MOL d          44.365  50.369  33.343  0.00  0.00     0.274 HD
ATOM     47  H8  MOL d          44.554  49.538  34.751  0.00  0.00     0.274 HD
ATOM     48  H9  MOL d          45.686  49.411  33.562  0.00  0.00     0.274 HD
ENDBRANCH  42  45
ENDBRANCH   2  42
TORSDOF 5
ENDMDL
MODEL 2
REMARK VINA RESULT:      -6.5      1.056      1.394
REMARK  5 active torsions:
REMARK  status: ('A' for Active; 'I' for Inactive)
REMARK    1  A    between atoms: C1_1  and  C14_14 
REMARK    2  A    between atoms: C2_2  and  C15_15 
REMARK    3  A    between atoms: C3_3  and  C13_13 
REMARK    4  A    between atoms: C8_8  and  C10_10 
REMARK       I    between atoms: C10_10  and  N12_12 
REMARK    5  A    between atoms: C15_15  and  N16_16 
ROOT
ATOM      1  C1  MOL d          48.235  50.684  34.507  0.00  0.00     0.078 A 
ATOM      2  C2  MOL d          47.262  51.322  33.777  0.00  0.00     0.021 A 
ATOM      3  C3  MOL d          47.587  51.770  32.469  0.00  0.00     0.060 A 
ATOM      4  N4  MOL d          48.770  51.662  31.878  0.00  0.00    -0.067 NA
ATOM      5  N5  MOL d          49.467  50.588  33.945  0.00  0.00    -0.150 N 
ATOM      6  C6  MOL d          49.762  51.048  32.631  0.00  0.00     0.734 A 
ATOM      7  N7  MOL d          51.059  50.795  32.295  0.00  0.00    -0.055 NA
ATOM      8  C8  MOL d          51.566  50.167  33.440  0.00  0.00     0.160 A 
ATOM      9  C9  MOL d          50.634  50.027  34.447  0.00  0.00     0.037 A 
ATOM     10  H1  MOL d          50.781  49.573  35.426  0.00  0.00     0.117 H 
ENDROOT
BRANCH   8  11
ATOM     11  C10 MOL d          52.966  49.690  33.513  0.00  0.00     0.274 C 
ATOM     12  O11 MOL d          53.448  49.050  32.555  0.00  0.00    -0.266 OA
ATOM     13  N12 MOL d          53.551  49.664  34.790  0.00  0.00    -0.343 N 
ATOM     14  C24 MOL d          53.478  50.774  35.765  0.00  0.00     0.018 C 
ATOM     15  C28 MOL d          54.701  48.772  35.045  0.00  0.00     0.018 C 
ATOM     16  C25 MOL d          54.815  51.613  35.713  0.00  0.00     0.034 C 
ATOM     17  H13 MOL d          53.342  50.364  36.776  0.00  0.00     0.067 H 
ATOM     18  H14 MOL d          52.627  51.426  35.516  0.00  0.00     0.067 H 
ATOM     19  O26 MOL d          56.007  50.799  35.776  0.00  0.00    -0.388 OA
ATOM     20  H15 MOL d          54.824  52.309  36.565  0.00  0.00     0.076 H 
ATOM     21  H16 MOL d          54.833  52.184  34.773  0.00  0.00     0.076 H 
ATOM     22  C27 MOL d          56.007  49.610  34.945  0.00  0.00     0.034 C 
ATOM     23  H17 MOL d          56.851  48.974  35.251  0.00  0.00     0.076 H 
ATOM     24  H18 MOL d          56.140  49.919  33.898  0.00  0.00     0.076 H 
ATOM     25  H19 MOL d          54.719  47.966  34.297  0.00  0.00     0.067 H 
ATOM     26  H20 MOL d          54.616  48.337  36.051  0.00  0.00     0.067 H 
ENDBRANCH   8  11
BRANCH   1  27
ATOM     27  C14 MOL d          48.075  50.208  35.891  0.00  0.00     0.014 A 
ATOM     28  C17 MOL d          48.495  51.009  36.939  0.00  0.00    -0.068 A 
ATOM     29  C18 MOL d          48.311  50.562  38.243  0.00  0.00    -0.061 A 
ATOM     30  H10 MOL d          48.958  51.970  36.746  0.00  0.00     0.085 H 
ATOM     31  C19 MOL d          47.704  49.323  38.458  0.00  0.00     0.035 A 
ATOM     32  H11 MOL d          48.636  51.167  39.082  0.00  0.00     0.086 H 
ATOM     33  C20 MOL d          47.284  48.512  37.448  0.00  0.00    -0.040 A 
ATOM     34 CL23 MOL d          47.417  48.792  40.045  0.00  0.00    -0.084 Cl
ATOM     35  C21 MOL d          47.467  48.973  36.173  0.00  0.00     0.048 A 
ATOM     36  H12 MOL d          46.828  47.549  37.644  0.00  0.00     0.088 H 
ATOM     37 CL22 MOL d          46.927  47.980  34.909  0.00  0.00    -0.083 Cl
ENDBRANCH   1  27
BRANCH   3  38
ATOM     38  C13 MOL d          46.567  52.465  31.637  0.00  0.00    -0.034 C 
ATOM     39  H2  MOL d          46.813  52.337  30.572  0.00  0.00     0.035 H 
ATOM     40  H3  MOL d          46.559  53.537  31.885  0.00  0.00     0.035 H 
ATOM     41  H4  MOL d          45.575  52.034  31.838  0.00  0.00     0.035 H 
ENDBRANCH   3  38
BRANCH   2  42
ATOM     42  C15 MOL d          45.857  51.459  34.296  0.00  0.00     0.107 C 
ATOM     43  H5  MOL d          45.431  52.419  33.970  0.00  0.00     0.083 H 
ATOM     44  H6  MOL d          45.859  51.413  35.395  0.00  0.00     0.083 H 
BRANCH  42  45
ATOM     45  N16 MOL d          45.080  50.376  33.764  0.00  0.00    -0.075 N 
ATOM     46  H7  MOL d          45.650  49.547  33.714  0.00  0.00     0.274 HD
ATOM     47  H8  MOL d          44.754  50.617  32.841  0.00  0.00     0.274 HD
ATOM     48  H9  MOL d          44.289  50.204  34.366  0.00  0.00     0.274 HD
ENDBRANCH  42  45
ENDBRANCH   2  42
TORSDOF 5
ENDMDL
MODEL 3
REMARK VINA RESULT:      -5.5      1.910      2.318
REMARK  5 active torsions:
REMARK  status: ('A' for Active; 'I' for Inactive)
REMARK    1  A    between atoms: C1_1  and  C14_14 
REMARK    2  A    between atoms: C2_2  and  C15_15 
REMARK    3  A    between atoms: C3_3  and  C13_13 
REMARK    4  A    between atoms: C8_8  and  C10_10 
REMARK       I    between atoms: C10_10  and  N12_12 
REMARK    5  A    between atoms: C15_15  and  N16_16 
ROOT
ATOM      1  C1  MOL d          48.095  50.610  34.079  0.00  0.00     0.078 A 
ATOM      2  C2  MOL d          47.153  51.391  33.455  0.00  0.00     0.021 A 
ATOM      3  C3  MOL d          47.358  51.734  32.092  0.00  0.00     0.060 A 
ATOM      4  N4  MOL d          48.407  51.397  31.352  0.00  0.00    -0.067 NA
ATOM      5  N5  MOL d          49.198  50.277  33.360  0.00  0.00    -0.150 N 
ATOM      6  C6  MOL d          49.375  50.637  31.994  0.00  0.00     0.734 A 
ATOM      7  N7  MOL d          50.546  50.145  31.498  0.00  0.00    -0.055 NA
ATOM      8  C8  MOL d          51.095  49.471  32.596  0.00  0.00     0.160 A 
ATOM      9  C9  MOL d          50.309  49.530  33.727  0.00  0.00     0.037 A 
ATOM     10  H1  MOL d          50.515  49.087  34.700  0.00  0.00     0.117 H 
ENDROOT
BRANCH   8  11
ATOM     11  C10 MOL d          52.387  48.752  32.502  0.00  0.00     0.274 C 
ATOM     12  O11 MOL d          52.395  47.505  32.443  0.00  0.00    -0.266 OA
ATOM     13  N12 MOL d          53.534  49.484  32.852  0.00  0.00    -0.343 N 
ATOM     14  C24 MOL d          53.829  50.854  32.379  0.00  0.00     0.018 C 
ATOM     15  C28 MOL d          54.756  48.765  33.270  0.00  0.00     0.018 C 
ATOM     16  C25 MOL d          54.842  50.791  31.169  0.00  0.00     0.034 C 
ATOM     17  H13 MOL d          54.273  51.436  33.199  0.00  0.00     0.067 H 
ATOM     18  H14 MOL d          52.896  51.336  32.050  0.00  0.00     0.067 H 
ATOM     19  O26 MOL d          55.992  49.955  31.426  0.00  0.00    -0.388 OA
ATOM     20  H15 MOL d          55.194  51.811  30.955  0.00  0.00     0.076 H 
ATOM     21  H16 MOL d          54.313  50.394  30.290  0.00  0.00     0.076 H 
ATOM     22  C27 MOL d          55.718  48.676  32.053  0.00  0.00     0.034 C 
ATOM     23  H17 MOL d          56.672  48.247  32.396  0.00  0.00     0.076 H 
ATOM     24  H18 MOL d          55.266  48.012  31.302  0.00  0.00     0.076 H 
ATOM     25  H19 MOL d          54.492  47.752  33.610  0.00  0.00     0.067 H 
ATOM     26  H20 MOL d          55.245  49.311  34.090  0.00  0.00     0.067 H 
ENDBRANCH   8  11
BRANCH   1  27
ATOM     27  C14 MOL d          48.057  50.212  35.496  0.00  0.00     0.014 A 
ATOM     28  C17 MOL d          48.606  51.048  36.453  0.00  0.00    -0.068 A 
ATOM     29  C18 MOL d          48.537  50.676  37.791  0.00  0.00    -0.061 A 
ATOM     30  H10 MOL d          49.080  51.978  36.164  0.00  0.00     0.085 H 
ATOM     31  C19 MOL d          47.911  49.474  38.131  0.00  0.00     0.035 A 
ATOM     32  H11 MOL d          48.965  51.309  38.560  0.00  0.00     0.086 H 
ATOM     33  C20 MOL d          47.366  48.630  37.212  0.00  0.00    -0.040 A 
ATOM     34 CL23 MOL d          47.766  49.036  39.765  0.00  0.00    -0.084 Cl
ATOM     35  C21 MOL d          47.438  49.018  35.903  0.00  0.00     0.048 A 
ATOM     36  H12 MOL d          46.899  47.698  37.504  0.00  0.00     0.088 H 
ATOM     37 CL22 MOL d          46.741  47.984  34.753  0.00  0.00    -0.083 Cl
ENDBRANCH   1  27
BRANCH   3  38
ATOM     38  C13 MOL d          46.365  52.576  31.371  0.00  0.00    -0.034 C 
ATOM     39  H2  MOL d          45.454  52.673  31.980  0.00  0.00     0.035 H 
ATOM     40  H3  MOL d          46.115  52.105  30.409  0.00  0.00     0.035 H 
ATOM     41  H4  MOL d          46.793  53.574  31.191  0.00  0.00     0.035 H 
ENDBRANCH   3  38
BRANCH   2  42
ATOM     42  C15 MOL d          45.883  51.794  34.154  0.00  0.00     0.107 C 
ATOM     43  H5  MOL d          45.523  52.751  33.750  0.00  0.00     0.083 H 
ATOM     44  H6  MOL d          46.068  51.897  35.233  0.00  0.00     0.083 H 
BRANCH  42  45
ATOM     45  N16 MOL d          44.905  50.769  33.922  0.00  0.00    -0.075 N 
ATOM     46  H7  MOL d          44.396  50.975  33.077  0.00  0.00     0.274 HD
ATOM     47  H8  MOL d          44.264  50.735  34.700  0.00  0.00     0.274 HD
ATOM     48  H9  MOL d          45.368  49.879  33.828  0.00  0.00     0.274 HD
ENDBRANCH  42  45
ENDBRANCH   2  42
TORSDOF 5
ENDMDL
MODEL 4
REMARK VINA RESULT:      -5.4      3.068      4.303
REMARK  5 active torsions:
REMARK  status: ('A' for Active; 'I' for Inactive)
REMARK    1  A    between atoms: C1_1  and  C14_14 
REMARK    2  A    between atoms: C2_2  and  C15_15 
REMARK    3  A    between atoms: C3_3  and  C13_13 
REMARK    4  A    between atoms: C8_8  and  C10_10 
REMARK       I    between atoms: C10_10  and  N12_12 
REMARK    5  A    between atoms: C15_15  and  N16_16 
ROOT
ATOM      1  C1  MOL d          48.529  50.235  34.627  0.00  0.00     0.078 A 
ATOM      2  C2  MOL d          48.321  50.930  35.793  0.00  0.00     0.021 A 
ATOM      3  C3  MOL d          49.433  51.162  36.646  0.00  0.00     0.060 A 
ATOM      4  N4  MOL d          50.674  50.738  36.443  0.00  0.00    -0.067 NA
ATOM      5  N5  MOL d          49.781  49.757  34.406  0.00  0.00    -0.150 N 
ATOM      6  C6  MOL d          50.876  50.006  35.281  0.00  0.00     0.734 A 
ATOM      7  N7  MOL d          52.027  49.450  34.808  0.00  0.00    -0.055 NA
ATOM      8  C8  MOL d          51.617  48.843  33.614  0.00  0.00     0.160 A 
ATOM      9  C9  MOL d          50.275  49.012  33.344  0.00  0.00     0.037 A 
ATOM     10  H1  MOL d          49.722  48.640  32.483  0.00  0.00     0.117 H 
ENDROOT
BRANCH   8  11
ATOM     11  C10 MOL d          52.571  48.122  32.739  0.00  0.00     0.274 C 
ATOM     12  O11 MOL d          52.234  47.035  32.226  0.00  0.00    -0.266 OA
ATOM     13  N12 MOL d          53.917  48.511  32.831  0.00  0.00    -0.343 N 
ATOM     14  C24 MOL d          54.384  49.915  32.824  0.00  0.00     0.018 C 
ATOM     15  C28 MOL d          54.977  47.570  32.413  0.00  0.00     0.018 C 
ATOM     16  C25 MOL d          54.887  50.299  31.376  0.00  0.00     0.034 C 
ATOM     17  H13 MOL d          55.210  50.029  33.541  0.00  0.00     0.067 H 
ATOM     18  H14 MOL d          53.555  50.578  33.111  0.00  0.00     0.067 H 
ATOM     19  O26 MOL d          55.798  49.331  30.810  0.00  0.00    -0.388 OA
ATOM     20  H15 MOL d          55.401  51.270  31.431  0.00  0.00     0.076 H 
ATOM     21  H16 MOL d          54.013  50.383  30.714  0.00  0.00     0.076 H 
ATOM     22  C27 MOL d          55.424  47.938  30.971  0.00  0.00     0.034 C 
ATOM     23  H17 MOL d          56.291  47.315  30.707  0.00  0.00     0.076 H 
ATOM     24  H18 MOL d          54.593  47.721  30.284  0.00  0.00     0.076 H 
ATOM     25  H19 MOL d          54.587  46.541  32.430  0.00  0.00     0.067 H 
ATOM     26  H20 MOL d          55.834  47.648  33.098  0.00  0.00     0.067 H 
ENDBRANCH   8  11
BRANCH   1  27
ATOM     27  C14 MOL d          47.477  49.867  33.664  0.00  0.00     0.014 A 
ATOM     28  C17 MOL d          46.662  48.782  33.929  0.00  0.00    -0.068 A 
ATOM     29  C18 MOL d          45.652  48.463  33.028  0.00  0.00    -0.061 A 
ATOM     30  H10 MOL d          46.806  48.190  34.826  0.00  0.00     0.085 H 
ATOM     31  C19 MOL d          45.486  49.250  31.886  0.00  0.00     0.035 A 
ATOM     32  H11 MOL d          45.003  47.613  33.208  0.00  0.00     0.086 H 
ATOM     33  C20 MOL d          46.275  50.321  31.597  0.00  0.00    -0.040 A 
ATOM     34 CL23 MOL d          44.220  48.910  30.808  0.00  0.00    -0.084 Cl
ATOM     35  C21 MOL d          47.257  50.622  32.500  0.00  0.00     0.048 A 
ATOM     36  H12 MOL d          46.132  50.906  30.696  0.00  0.00     0.088 H 
ATOM     37 CL22 MOL d          48.231  51.969  32.159  0.00  0.00    -0.083 Cl
ENDBRANCH   1  27
BRANCH   3  38
ATOM     38  C13 MOL d          49.260  51.912  37.920  0.00  0.00    -0.034 C 
ATOM     39  H2  MOL d          50.192  52.443  38.162  0.00  0.00     0.035 H 
ATOM     40  H3  MOL d          49.017  51.208  38.730  0.00  0.00     0.035 H 
ATOM     41  H4  MOL d          48.442  52.640  37.809  0.00  0.00     0.035 H 
ENDBRANCH   3  38
BRANCH   2  42
ATOM     42  C15 MOL d          46.979  51.524  36.122  0.00  0.00     0.107 C 
ATOM     43  H5  MOL d          46.438  51.760  35.194  0.00  0.00     0.083 H 
ATOM     44  H6  MOL d          47.112  52.442  36.713  0.00  0.00     0.083 H 
BRANCH  42  45
ATOM     45  N16 MOL d          46.240  50.557  36.883  0.00  0.00    -0.075 N 
ATOM     46  H7  MOL d          46.329  50.764  37.866  0.00  0.00     0.274 HD
ATOM     47  H8  MOL d          46.606  49.635  36.701  0.00  0.00     0.274 HD
ATOM     48  H9  MOL d          45.268  50.592  36.619  0.00  0.00     0.274 HD
ENDBRANCH  42  45
ENDBRANCH   2  42
TORSDOF 5
ENDMDL
MODEL 5
REMARK VINA RESULT:      -4.8      2.901      4.369
REMARK  5 active torsions:
REMARK  status: ('A' for Active; 'I' for Inactive)
REMARK    1  A    between atoms: C1_1  and  C14_14 
REMARK    2  A    between atoms: C2_2  and  C15_15 
REMARK    3  A    between atoms: C3_3  and  C13_13 
REMARK    4  A    between atoms: C8_8  and  C10_10 
REMARK       I    between atoms: C10_10  and  N12_12 
REMARK    5  A    between atoms: C15_15  and  N16_16 
ROOT
ATOM      1  C1  MOL d          48.050  50.206  35.024  0.00  0.00     0.078 A 
ATOM      2  C2  MOL d          47.816  50.285  36.375  0.00  0.00     0.021 A 
ATOM      3  C3  MOL d          48.930  50.435  37.243  0.00  0.00     0.060 A 
ATOM      4  N4  MOL d          50.205  50.475  36.878  0.00  0.00    -0.067 NA
ATOM      5  N5  MOL d          49.346  50.209  34.619  0.00  0.00    -0.150 N 
ATOM      6  C6  MOL d          50.442  50.360  35.515  0.00  0.00     0.734 A 
ATOM      7  N7  MOL d          51.632  50.370  34.849  0.00  0.00    -0.055 NA
ATOM      8  C8  MOL d          51.245  50.216  33.511  0.00  0.00     0.160 A 
ATOM      9  C9  MOL d          49.880  50.119  33.340  0.00  0.00     0.037 A 
ATOM     10  H1  MOL d          49.337  49.997  32.404  0.00  0.00     0.117 H 
ENDROOT
BRANCH   8  11
ATOM     11  C10 MOL d          52.238  50.193  32.411  0.00  0.00     0.274 C 
ATOM     12  O11 MOL d          51.981  49.565  31.364  0.00  0.00    -0.266 OA
ATOM     13  N12 MOL d          53.550  50.566  32.748  0.00  0.00    -0.343 N 
ATOM     14  C24 MOL d          53.900  51.759  33.549  0.00  0.00     0.018 C 
ATOM     15  C28 MOL d          54.675  50.112  31.904  0.00  0.00     0.018 C 
ATOM     16  C25 MOL d          54.342  52.932  32.588  0.00  0.00     0.034 C 
ATOM     17  H13 MOL d          54.728  51.512  34.230  0.00  0.00     0.067 H 
ATOM     18  H14 MOL d          53.025  52.077  34.135  0.00  0.00     0.067 H 
ATOM     19  O26 MOL d          55.318  52.529  31.602  0.00  0.00    -0.388 OA
ATOM     20  H15 MOL d          54.776  53.738  33.197  0.00  0.00     0.076 H 
ATOM     21  H16 MOL d          53.452  53.308  32.063  0.00  0.00     0.076 H 
ATOM     22  C27 MOL d          55.063  51.265  30.936  0.00  0.00     0.034 C 
ATOM     23  H17 MOL d          55.973  50.970  30.393  0.00  0.00     0.076 H 
ATOM     24  H18 MOL d          54.239  51.410  30.222  0.00  0.00     0.076 H 
ATOM     25  H19 MOL d          54.370  49.227  31.325  0.00  0.00     0.067 H 
ATOM     26  H20 MOL d          55.535  49.856  32.539  0.00  0.00     0.067 H 
ENDBRANCH   8  11
BRANCH   1  27
ATOM     27  C14 MOL d          47.014  49.997  33.998  0.00  0.00     0.014 A 
ATOM     28  C17 MOL d          46.596  51.065  33.225  0.00  0.00    -0.068 A 
ATOM     29  C18 MOL d          45.639  50.849  32.240  0.00  0.00    -0.061 A 
ATOM     30  H10 MOL d          47.009  52.054  33.384  0.00  0.00     0.085 H 
ATOM     31  C19 MOL d          45.133  49.560  32.054  0.00  0.00     0.035 A 
ATOM     32  H11 MOL d          45.290  51.670  31.623  0.00  0.00     0.086 H 
ATOM     33  C20 MOL d          45.522  48.491  32.802  0.00  0.00    -0.040 A 
ATOM     34 CL23 MOL d          44.010  49.269  30.814  0.00  0.00    -0.084 Cl
ATOM     35  C21 MOL d          46.469  48.723  33.761  0.00  0.00     0.048 A 
ATOM     36  H12 MOL d          45.102  47.505  32.645  0.00  0.00     0.088 H 
ATOM     37 CL22 MOL d          46.977  47.393  34.682  0.00  0.00    -0.083 Cl
ENDBRANCH   1  27
BRANCH   3  38
ATOM     38  C13 MOL d          48.728  50.528  38.715  0.00  0.00    -0.034 C 
ATOM     39  H2  MOL d          48.394  51.543  38.976  0.00  0.00     0.035 H 
ATOM     40  H3  MOL d          49.676  50.309  39.229  0.00  0.00     0.035 H 
ATOM     41  H4  MOL d          47.965  49.799  39.027  0.00  0.00     0.035 H 
ENDBRANCH   3  38
BRANCH   2  42
ATOM     42  C15 MOL d          46.417  50.315  36.926  0.00  0.00     0.107 C 
ATOM     43  H5  MOL d          46.448  50.287  38.025  0.00  0.00     0.083 H 
ATOM     44  H6  MOL d          45.850  49.450  36.554  0.00  0.00     0.083 H 
BRANCH  42  45
ATOM     45  N16 MOL d          45.793  51.532  36.488  0.00  0.00    -0.075 N 
ATOM     46  H7  MOL d          45.317  51.964  37.264  0.00  0.00     0.274 HD
ATOM     47  H8  MOL d          45.129  51.325  35.758  0.00  0.00     0.274 HD
ATOM     48  H9  MOL d          46.497  52.161  36.134  0.00  0.00     0.274 HD
ENDBRANCH  42  45
ENDBRANCH   2  42
TORSDOF 5
ENDMDL
MODEL 6
REMARK VINA RESULT:      -4.2      1.495      2.001
REMARK  5 active torsions:
REMARK  status: ('A' for Active; 'I' for Inactive)
REMARK    1  A    between atoms: C1_1  and  C14_14 
REMARK    2  A    between atoms: C2_2  and  C15_15 
REMARK    3  A    between atoms: C3_3  and  C13_13 
REMARK    4  A    between atoms: C8_8  and  C10_10 
REMARK       I    between atoms: C10_10  and  N12_12 
REMARK    5  A    between atoms: C15_15  and  N16_16 
ROOT
ATOM      1  C1  MOL d          47.902  50.088  34.579  0.00  0.00     0.078 A 
ATOM      2  C2  MOL d          46.838  50.424  33.778  0.00  0.00     0.021 A 
ATOM      3  C3  MOL d          47.106  50.908  32.470  0.00  0.00     0.060 A 
ATOM      4  N4  MOL d          48.308  51.104  31.942  0.00  0.00    -0.067 NA
ATOM      5  N5  MOL d          49.146  50.310  34.081  0.00  0.00    -0.150 N 
ATOM      6  C6  MOL d          49.382  50.797  32.765  0.00  0.00     0.734 A 
ATOM      7  N7  MOL d          50.717  50.891  32.502  0.00  0.00    -0.055 NA
ATOM      8  C8  MOL d          51.306  50.451  33.695  0.00  0.00     0.160 A 
ATOM      9  C9  MOL d          50.388  50.094  34.661  0.00  0.00     0.037 A 
ATOM     10  H1  MOL d          50.595  49.722  35.663  0.00  0.00     0.117 H 
ENDROOT
BRANCH   8  11
ATOM     11  C10 MOL d          52.776  50.367  33.853  0.00  0.00     0.274 C 
ATOM     12  O11 MOL d          53.259  50.071  34.966  0.00  0.00    -0.266 OA
ATOM     13  N12 MOL d          53.547  50.979  32.850  0.00  0.00    -0.343 N 
ATOM     14  C24 MOL d          53.312  50.814  31.399  0.00  0.00     0.018 C 
ATOM     15  C28 MOL d          54.936  51.387  33.148  0.00  0.00     0.018 C 
ATOM     16  C25 MOL d          54.312  49.737  30.819  0.00  0.00     0.034 C 
ATOM     17  H13 MOL d          53.475  51.776  30.891  0.00  0.00     0.067 H 
ATOM     18  H14 MOL d          52.277  50.481  31.231  0.00  0.00     0.067 H 
ATOM     19  O26 MOL d          55.684  49.958  31.213  0.00  0.00    -0.388 OA
ATOM     20  H15 MOL d          54.256  49.765  29.721  0.00  0.00     0.076 H 
ATOM     21  H16 MOL d          54.002  48.745  31.178  0.00  0.00     0.076 H 
ATOM     22  C27 MOL d          55.898  50.292  32.608  0.00  0.00     0.034 C 
ATOM     23  H17 MOL d          56.931  50.652  32.724  0.00  0.00     0.076 H 
ATOM     24  H18 MOL d          55.757  49.381  33.209  0.00  0.00     0.076 H 
ATOM     25  H19 MOL d          55.066  51.494  34.235  0.00  0.00     0.067 H 
ATOM     26  H20 MOL d          55.153  52.346  32.656  0.00  0.00     0.067 H 
ENDBRANCH   8  11
BRANCH   1  27
ATOM     27  C14 MOL d          47.796  49.624  35.973  0.00  0.00     0.014 A 
ATOM     28  C17 MOL d          47.339  48.344  36.231  0.00  0.00    -0.068 A 
ATOM     29  C18 MOL d          47.272  47.906  37.549  0.00  0.00    -0.061 A 
ATOM     30  H10 MOL d          47.040  47.692  35.418  0.00  0.00     0.085 H 
ATOM     31  C19 MOL d          47.674  48.768  38.573  0.00  0.00     0.035 A 
ATOM     32  H11 MOL d          46.913  46.909  37.779  0.00  0.00     0.086 H 
ATOM     33  C20 MOL d          48.123  50.033  38.349  0.00  0.00    -0.040 A 
ATOM     34 CL23 MOL d          47.656  48.226  40.182  0.00  0.00    -0.084 Cl
ATOM     35  C21 MOL d          48.188  50.442  37.046  0.00  0.00     0.048 A 
ATOM     36  H12 MOL d          48.415  50.685  39.164  0.00  0.00     0.088 H 
ATOM     37 CL22 MOL d          48.769  52.009  36.757  0.00  0.00    -0.083 Cl
ENDBRANCH   1  27
BRANCH   3  38
ATOM     38  C13 MOL d          45.988  51.284  31.563  0.00  0.00    -0.034 C 
ATOM     39  H2  MOL d          45.028  51.103  32.070  0.00  0.00     0.035 H 
ATOM     40  H3  MOL d          46.039  50.677  30.647  0.00  0.00     0.035 H 
ATOM     41  H4  MOL d          46.070  52.350  31.302  0.00  0.00     0.035 H 
ENDBRANCH   3  38
BRANCH   2  42
ATOM     42  C15 MOL d          45.419  50.195  34.224  0.00  0.00     0.107 C 
ATOM     43  H5  MOL d          44.793  51.049  33.929  0.00  0.00     0.083 H 
ATOM     44  H6  MOL d          45.386  50.077  35.317  0.00  0.00     0.083 H 
BRANCH  42  45
ATOM     45  N16 MOL d          44.943  48.999  33.589  0.00  0.00    -0.075 N 
ATOM     46  H7  MOL d          44.967  49.117  32.588  0.00  0.00     0.274 HD
ATOM     47  H8  MOL d          43.996  48.818  33.882  0.00  0.00     0.274 HD
ATOM     48  H9  MOL d          45.531  48.223  33.850  0.00  0.00     0.274 HD
ENDBRANCH  42  45
ENDBRANCH   2  42
TORSDOF 5
ENDMDL
