REMARK  3 active torsions:
REMARK  status: ('A' for Active; 'I' for Inactive)
REMARK    1  A    between atoms: C1_3  and  C_1 
REMARK    2  A    between atoms: C7_10  and  N1_4 
REMARK    3  A    between atoms: C4_7  and  C7_10 
ROOT
ATOM      1  C1  MOL d         -27.997  86.995 -11.595  0.00  0.00     0.040 A 
ATOM      2  C2  MOL d         -28.298  86.999 -10.187  0.00  0.00    -0.066 A 
ATOM      3  C3  MOL d         -29.490  87.579  -9.719  0.00  0.00    -0.074 A 
ATOM      4  C4  MOL d         -30.397  88.159 -10.631  0.00  0.00    -0.033 A 
ATOM      5  C5  MOL d         -30.107  88.156 -12.011  0.00  0.00    -0.074 A 
ATOM      6  C6  MOL d         -28.921  87.580 -12.491  0.00  0.00    -0.066 A 
ATOM      7  H4  MOL d         -27.603  86.553  -9.485  0.00  0.00     0.085 H 
ATOM      8  H5  MOL d         -29.712  87.581  -8.658  0.00  0.00     0.084 H 
ATOM      9  H6  MOL d         -30.807  88.603 -12.708  0.00  0.00     0.084 H 
ATOM     10  H7  MOL d         -28.712  87.584 -13.555  0.00  0.00     0.085 H 
ENDROOT
BRANCH   4  11
ATOM     11  C7  MOL d         -31.680  88.779 -10.128  0.00  0.00     0.103 C 
ATOM     12  H8  MOL d         -32.496  88.047 -10.220  0.00  0.00     0.082 H 
ATOM     13  H9  MOL d         -31.556  89.059  -9.071  0.00  0.00     0.082 H 
BRANCH  11  14
ATOM     14  N1  MOL d         -32.018  89.983 -10.912  0.00  0.00    -0.075 N 
ATOM     15  H1  MOL d         -32.875  90.382 -10.562  0.00  0.00     0.274 HD
ATOM     16  H2  MOL d         -32.135  89.731 -11.881  0.00  0.00     0.274 HD
ATOM     17  H3  MOL d         -31.274  90.658 -10.828  0.00  0.00     0.274 HD
ENDBRANCH  11  14
ENDBRANCH   4  11
BRANCH   1  18
ATOM     18  C   MOL d         -26.862  86.438 -12.003  0.00  0.00     0.209 C 
ATOM     19  O   MOL d         -26.045  85.937 -11.296  0.00  0.00    -0.644 OA
ATOM     20  OXT MOL d         -26.334  86.304 -13.150  0.00  0.00    -0.644 OA
ENDBRANCH   1  18
TORSDOF 3
