MODEL 1
REMARK VINA RESULT:      -5.0      0.000      0.000
REMARK  3 active torsions:
REMARK  status: ('A' for Active; 'I' for Inactive)
REMARK    1  A    between atoms: C1_3  and  C_1 
REMARK    2  A    between atoms: C7_10  and  N1_4 
REMARK    3  A    between atoms: C4_7  and  C7_10 
ROOT
ATOM      1  C1  MOL d         -28.225  87.086 -11.599  0.00  0.00     0.040 A 
ATOM      2  C2  MOL d         -28.724  87.138 -10.249  0.00  0.00    -0.066 A 
ATOM      3  C3  MOL d         -29.923  87.814  -9.962  0.00  0.00    -0.074 A 
ATOM      4  C4  MOL d         -30.643  88.443 -11.000  0.00  0.00    -0.033 A 
ATOM      5  C5  MOL d         -30.159  88.393 -12.323  0.00  0.00    -0.074 A 
ATOM      6  C6  MOL d         -28.964  87.722 -12.623  0.00  0.00    -0.066 A 
ATOM      7  H4  MOL d         -28.173  86.654  -9.451  0.00  0.00     0.085 H 
ATOM      8  H5  MOL d         -30.294  87.851  -8.944  0.00  0.00     0.084 H 
ATOM      9  H6  MOL d         -30.715  88.878 -13.117  0.00  0.00     0.084 H 
ATOM     10  H7  MOL d         -28.605  87.691 -13.646  0.00  0.00     0.085 H 
ENDROOT
BRANCH   4  11
ATOM     11  C7  MOL d         -31.933  89.166 -10.692  0.00  0.00     0.103 C 
ATOM     12  H8  MOL d         -32.780  88.568 -11.061  0.00  0.00     0.082 H 
ATOM     13  H9  MOL d         -32.023  89.297  -9.603  0.00  0.00     0.082 H 
BRANCH  11  14
ATOM     14  N1  MOL d         -31.955  90.491 -11.343  0.00  0.00    -0.075 N 
ATOM     15  H1  MOL d         -32.822  90.957 -11.126  0.00  0.00     0.274 HD
ATOM     16  H2  MOL d         -31.876  90.376 -12.341  0.00  0.00     0.274 HD
ATOM     17  H3  MOL d         -31.183  91.043 -11.005  0.00  0.00     0.274 HD
ENDBRANCH  11  14
ENDBRANCH   4  11
BRANCH   1  18
ATOM     18  C   MOL d         -27.090  86.438 -11.835  0.00  0.00     0.209 C 
ATOM     19  O   MOL d         -26.378  85.967 -11.004  0.00  0.00    -0.644 OA
ATOM     20  OXT MOL d         -26.458  86.171 -12.903  0.00  0.00    -0.644 OA
ENDBRANCH   1  18
TORSDOF 3
ENDMDL
