MODEL 1
REMARK VINA RESULT:      -5.7      0.000      0.000
REMARK  3 active torsions:
REMARK  status: ('A' for Active; 'I' for Inactive)
REMARK    1  A    between atoms: C1_3  and  C_1 
REMARK    2  A    between atoms: C7_10  and  N1_4 
REMARK    3  A    between atoms: C4_7  and  C7_10 
ROOT
ATOM      1  C1  MOL d         -28.278  87.217 -10.862  0.00  0.00     0.040 A 
ATOM      2  C2  MOL d         -28.640  87.829 -12.114  0.00  0.00    -0.066 A 
ATOM      3  C3  MOL d         -29.844  88.544 -12.231  0.00  0.00    -0.074 A 
ATOM      4  C4  MOL d         -30.703  88.665 -11.117  0.00  0.00    -0.033 A 
ATOM      5  C5  MOL d         -30.351  88.069  -9.889  0.00  0.00    -0.074 A 
ATOM      6  C6  MOL d         -29.152  87.353  -9.759  0.00  0.00    -0.066 A 
ATOM      7  H4  MOL d         -27.981  87.738 -12.970  0.00  0.00     0.085 H 
ATOM      8  H5  MOL d         -30.114  89.003 -13.175  0.00  0.00     0.084 H 
ATOM      9  H6  MOL d         -31.014  88.164  -9.036  0.00  0.00     0.084 H 
ATOM     10  H7  MOL d         -28.894  86.900  -8.808  0.00  0.00     0.085 H 
ENDROOT
BRANCH   4  11
ATOM     11  C7  MOL d         -31.996  89.437 -11.242  0.00  0.00     0.103 C 
ATOM     12  H8  MOL d         -32.803  88.747 -11.527  0.00  0.00     0.082 H 
ATOM     13  H9  MOL d         -32.235  89.901 -10.273  0.00  0.00     0.082 H 
BRANCH  11  14
ATOM     14  N1  MOL d         -31.875  90.492 -12.267  0.00  0.00    -0.075 N 
ATOM     15  H1  MOL d         -31.039  91.030 -12.099  0.00  0.00     0.274 HD
ATOM     16  H2  MOL d         -32.680  91.098 -12.223  0.00  0.00     0.274 HD
ATOM     17  H3  MOL d         -31.823  90.068 -13.180  0.00  0.00     0.274 HD
ENDBRANCH  11  14
ENDBRANCH   4  11
BRANCH   1  18
ATOM     18  C   MOL d         -27.132  86.549 -10.787  0.00  0.00     0.209 C 
ATOM     19  O   MOL d         -26.307  86.686  -9.939  0.00  0.00    -0.644 OA
ATOM     20  OXT MOL d         -26.600  85.669 -11.531  0.00  0.00    -0.644 OA
ENDBRANCH   1  18
TORSDOF 3
ENDMDL
MODEL 2
REMARK VINA RESULT:      -5.1      3.706      4.880
REMARK  3 active torsions:
REMARK  status: ('A' for Active; 'I' for Inactive)
REMARK    1  A    between atoms: C1_3  and  C_1 
REMARK    2  A    between atoms: C7_10  and  N1_4 
REMARK    3  A    between atoms: C4_7  and  C7_10 
ROOT
ATOM      1  C1  MOL d         -30.402  88.351 -11.183  0.00  0.00     0.040 A 
ATOM      2  C2  MOL d         -29.946  87.495 -10.118  0.00  0.00    -0.066 A 
ATOM      3  C3  MOL d         -28.779  86.727 -10.277  0.00  0.00    -0.074 A 
ATOM      4  C4  MOL d         -28.050  86.794 -11.482  0.00  0.00    -0.033 A 
ATOM      5  C5  MOL d         -28.491  87.632 -12.527  0.00  0.00    -0.074 A 
ATOM      6  C6  MOL d         -29.654  88.404 -12.381  0.00  0.00    -0.066 A 
ATOM      7  H4  MOL d         -30.505  87.442  -9.191  0.00  0.00     0.085 H 
ATOM      8  H5  MOL d         -28.441  86.083  -9.473  0.00  0.00     0.084 H 
ATOM      9  H6  MOL d         -27.927  87.681 -13.452  0.00  0.00     0.084 H 
ATOM     10  H7  MOL d         -29.981  89.045 -13.193  0.00  0.00     0.085 H 
ENDROOT
BRANCH   4  11
ATOM     11  C7  MOL d         -26.793  85.972 -11.651  0.00  0.00     0.103 C 
ATOM     12  H8  MOL d         -27.036  85.049 -12.198  0.00  0.00     0.082 H 
ATOM     13  H9  MOL d         -26.054  86.553 -12.222  0.00  0.00     0.082 H 
BRANCH  11  14
ATOM     14  N1  MOL d         -26.222  85.620 -10.336  0.00  0.00    -0.075 N 
ATOM     15  H1  MOL d         -25.239  85.421 -10.440  0.00  0.00     0.274 HD
ATOM     16  H2  MOL d         -26.694  84.808  -9.971  0.00  0.00     0.274 HD
ATOM     17  H3  MOL d         -26.342  86.393  -9.700  0.00  0.00     0.274 HD
ENDBRANCH  11  14
ENDBRANCH   4  11
BRANCH   1  18
ATOM     18  C   MOL d         -31.508  89.063 -11.000  0.00  0.00     0.209 C 
ATOM     19  O   MOL d         -32.127  89.129  -9.984  0.00  0.00    -0.644 OA
ATOM     20  OXT MOL d         -32.196  89.797 -11.774  0.00  0.00    -0.644 OA
ENDBRANCH   1  18
TORSDOF 3
ENDMDL
MODEL 3
REMARK VINA RESULT:      -4.9      3.717      4.674
REMARK  3 active torsions:
REMARK  status: ('A' for Active; 'I' for Inactive)
REMARK    1  A    between atoms: C1_3  and  C_1 
REMARK    2  A    between atoms: C7_10  and  N1_4 
REMARK    3  A    between atoms: C4_7  and  C7_10 
ROOT
ATOM      1  C1  MOL d         -30.720  88.643 -11.159  0.00  0.00     0.040 A 
ATOM      2  C2  MOL d         -29.863  88.552 -12.312  0.00  0.00    -0.066 A 
ATOM      3  C3  MOL d         -28.679  87.797 -12.257  0.00  0.00    -0.074 A 
ATOM      4  C4  MOL d         -28.328  87.123 -11.068  0.00  0.00    -0.033 A 
ATOM      5  C5  MOL d         -29.165  87.208  -9.936  0.00  0.00    -0.074 A 
ATOM      6  C6  MOL d         -30.350  87.958  -9.979  0.00  0.00    -0.066 A 
ATOM      7  H4  MOL d         -30.131  89.068 -13.227  0.00  0.00     0.085 H 
ATOM      8  H5  MOL d         -28.035  87.732 -13.127  0.00  0.00     0.084 H 
ATOM      9  H6  MOL d         -28.891  86.688  -9.025  0.00  0.00     0.084 H 
ATOM     10  H7  MOL d         -30.985  88.014  -9.101  0.00  0.00     0.085 H 
ENDROOT
BRANCH   4  11
ATOM     11  C7  MOL d         -27.057  86.308 -11.010  0.00  0.00     0.103 C 
ATOM     12  H8  MOL d         -27.314  85.244 -10.899  0.00  0.00     0.082 H 
ATOM     13  H9  MOL d         -26.491  86.453 -11.942  0.00  0.00     0.082 H 
BRANCH  11  14
ATOM     14  N1  MOL d         -26.222  86.726  -9.867  0.00  0.00    -0.075 N 
ATOM     15  H1  MOL d         -26.695  86.500  -9.005  0.00  0.00     0.274 HD
ATOM     16  H2  MOL d         -26.064  87.721  -9.913  0.00  0.00     0.274 HD
ATOM     17  H3  MOL d         -25.338  86.243  -9.902  0.00  0.00     0.274 HD
ENDBRANCH  11  14
ENDBRANCH   4  11
BRANCH   1  18
ATOM     18  C   MOL d         -31.832  89.365 -11.246  0.00  0.00     0.209 C 
ATOM     19  O   MOL d         -32.414  89.852 -10.328  0.00  0.00    -0.644 OA
ATOM     20  OXT MOL d         -32.562  89.705 -12.228  0.00  0.00    -0.644 OA
ENDBRANCH   1  18
TORSDOF 3
ENDMDL
MODEL 4
REMARK VINA RESULT:      -4.8      1.259      1.968
REMARK  3 active torsions:
REMARK  status: ('A' for Active; 'I' for Inactive)
REMARK    1  A    between atoms: C1_3  and  C_1 
REMARK    2  A    between atoms: C7_10  and  N1_4 
REMARK    3  A    between atoms: C4_7  and  C7_10 
ROOT
ATOM      1  C1  MOL d         -28.054  86.914 -11.678  0.00  0.00     0.040 A 
ATOM      2  C2  MOL d         -28.671  86.838 -10.379  0.00  0.00    -0.066 A 
ATOM      3  C3  MOL d         -29.845  87.562 -10.108  0.00  0.00    -0.074 A 
ATOM      4  C4  MOL d         -30.424  88.367 -11.112  0.00  0.00    -0.033 A 
ATOM      5  C5  MOL d         -29.824  88.443 -12.386  0.00  0.00    -0.074 A 
ATOM      6  C6  MOL d         -28.653  87.725 -12.670  0.00  0.00    -0.066 A 
ATOM      7  H4  MOL d         -28.229  86.219  -9.607  0.00  0.00     0.085 H 
ATOM      8  H5  MOL d         -30.305  87.503  -9.129  0.00  0.00     0.084 H 
ATOM      9  H6  MOL d         -30.272  89.063 -13.155  0.00  0.00     0.084 H 
ATOM     10  H7  MOL d         -28.203  87.793 -13.654  0.00  0.00     0.085 H 
ENDROOT
BRANCH   4  11
ATOM     11  C7  MOL d         -31.688  89.142 -10.822  0.00  0.00     0.103 C 
ATOM     12  H8  MOL d         -31.458  90.218 -10.811  0.00  0.00     0.082 H 
ATOM     13  H9  MOL d         -32.428  88.934 -11.610  0.00  0.00     0.082 H 
BRANCH  11  14
ATOM     14  N1  MOL d         -32.249  88.752  -9.514  0.00  0.00    -0.075 N 
ATOM     15  H1  MOL d         -31.682  88.023  -9.110  0.00  0.00     0.274 HD
ATOM     16  H2  MOL d         -33.191  88.417  -9.639  0.00  0.00     0.274 HD
ATOM     17  H3  MOL d         -32.255  89.552  -8.900  0.00  0.00     0.274 HD
ENDBRANCH  11  14
ENDBRANCH   4  11
BRANCH   1  18
ATOM     18  C   MOL d         -26.946  86.216 -11.900  0.00  0.00     0.209 C 
ATOM     19  O   MOL d         -26.204  85.812 -11.060  0.00  0.00    -0.644 OA
ATOM     20  OXT MOL d         -26.374  85.826 -12.964  0.00  0.00    -0.644 OA
ENDBRANCH   1  18
TORSDOF 3
ENDMDL
