MODEL 1
REMARK VINA RESULT:      -7.4      0.000      0.000
REMARK  11 active torsions:
REMARK  status: ('A' for Active; 'I' for Inactive)
REMARK    1  A    between atoms: CAB_1  and  CAR_2 
REMARK    2  A    between atoms: CAR_2  and  CAC_3 
REMARK    3  A    between atoms: CAG_4  and  CAN_5 
REMARK    4  A    between atoms: CAN_5  and  CAX_6 
REMARK    5  A    between atoms: CAW_7  and  OAQ_9 
REMARK    6  A    between atoms: OAQ_9  and  CAA_10 
REMARK    7  A    between atoms: CAU_11  and  OAF_12 
REMARK    8  A    between atoms: CAY_13  and  CAS_14 
REMARK    9  A    between atoms: CAV_17  and  CAP_18 
REMARK   10  A    between atoms: CAP_18  and  CAO_19 
REMARK   11  A    between atoms: CAO_19  and  CAT_20 
ROOT
ATOM      1  CAX YFE d          17.049  20.373  47.812  0.00  0.00     0.013 A 
ATOM      2  CAW YFE d          15.696  20.718  47.832  0.00  0.00     0.078 A 
ATOM      3  CAM YFE d          15.265  21.997  48.185  0.00  0.00    -0.043 A 
ATOM      4  CAU YFE d          17.950  21.370  48.186  0.00  0.00     0.092 A 
ATOM      5  CAY YFE d          17.535  22.656  48.540  0.00  0.00     0.080 A 
ATOM      6  CAV YFE d          16.169  22.979  48.560  0.00  0.00    -0.035 A 
ATOM      7  H10 YFE d          14.206  22.226  48.167  0.00  0.00     0.088 H 
ENDROOT
BRANCH   6   8
ATOM      8  CAP YFE d          15.566  24.352  48.910  0.00  0.00    -0.036 C 
ATOM      9  H15 YFE d          15.017  24.722  48.031  0.00  0.00     0.040 H 
ATOM     10  H16 YFE d          16.390  25.042  49.145  0.00  0.00     0.040 H 
BRANCH   8  11
ATOM     11  CAO YFE d          14.613  24.330  50.092  0.00  0.00    -0.037 C 
ATOM     12  H17 YFE d          14.514  23.293  50.447  0.00  0.00     0.040 H 
ATOM     13  H18 YFE d          13.631  24.700  49.761  0.00  0.00     0.040 H 
BRANCH  11  14
ATOM     14  CAT YFE d          15.108  25.209  51.257  0.00  0.00    -0.058 A 
ATOM     15  CAK YFE d          16.460  25.305  51.579  0.00  0.00    -0.077 A 
ATOM     16  CAI YFE d          16.883  26.115  52.641  0.00  0.00    -0.082 A 
ATOM     17  H19 YFE d          17.191  24.749  51.003  0.00  0.00     0.084 H 
ATOM     18  CAH YFE d          15.941  26.826  53.384  0.00  0.00    -0.083 A 
ATOM     19  H20 YFE d          17.937  26.188  52.884  0.00  0.00     0.083 H 
ATOM     20  CAJ YFE d          14.578  26.734  53.066  0.00  0.00    -0.082 A 
ATOM     21  H21 YFE d          16.264  27.451  54.209  0.00  0.00     0.083 H 
ATOM     22  CAL YFE d          14.170  25.925  52.006  0.00  0.00    -0.077 A 
ATOM     23  H22 YFE d          13.846  27.289  53.641  0.00  0.00     0.083 H 
ATOM     24  H23 YFE d          13.117  25.850  51.761  0.00  0.00     0.084 H 
ENDBRANCH  11  14
ENDBRANCH   8  11
ENDBRANCH   6   8
BRANCH   5  25
ATOM     25  CAS YFE d          18.612  23.685  48.935  0.00  0.00     0.212 C 
ATOM     26  OAE YFE d          19.159  23.532  50.053  0.00  0.00    -0.644 OA
ATOM     27  OAD YFE d          18.864  24.629  48.151  0.00  0.00    -0.644 OA
ENDBRANCH   5  25
BRANCH   2  28
ATOM     28  OAQ YFE d          14.760  19.785  47.503  0.00  0.00    -0.355 OA
BRANCH  28  29
ATOM     29  CAA YFE d          13.429  20.262  47.847  0.00  0.00     0.010 C 
ATOM     30  H11 YFE d          13.508  21.221  48.380  0.00  0.00     0.066 H 
ATOM     31  H12 YFE d          12.930  19.524  48.492  0.00  0.00     0.066 H 
ATOM     32  H13 YFE d          12.840  20.401  46.928  0.00  0.00     0.066 H 
ENDBRANCH  28  29
ENDBRANCH   2  28
BRANCH   4  33
ATOM     33  OAF YFE d          19.281  21.091  48.194  0.00  0.00    -0.359 OA
ATOM     34  H14 YFE d          19.683  21.441  47.408  0.00  0.00     0.217 HD
ENDBRANCH   4  33
BRANCH   1  35
ATOM     35  CAN YFE d          17.546  18.957  47.397  0.00  0.00    -0.020 C 
ATOM     36  H8  YFE d          18.484  18.727  47.921  0.00  0.00     0.046 H 
ATOM     37  H9  YFE d          16.785  18.208  47.660  0.00  0.00     0.046 H 
BRANCH  35  38
ATOM     38  CAG YFE d          17.765  18.942  46.008  0.00  0.00    -0.097 C 
ATOM     39  CAR YFE d          17.120  18.318  44.918  0.00  0.00    -0.091 C 
ATOM     40  H7  YFE d          18.621  19.544  45.707  0.00  0.00     0.077 H 
BRANCH  39  41
ATOM     41  CAB YFE d          15.867  17.433  45.051  0.00  0.00    -0.055 C 
ATOM     42  H1  YFE d          15.752  17.116  46.098  0.00  0.00     0.033 H 
ATOM     43  H2  YFE d          15.975  16.547  44.408  0.00  0.00     0.033 H 
ATOM     44  H3  YFE d          14.980  18.004  44.741  0.00  0.00     0.033 H 
ENDBRANCH  39  41
BRANCH  39  45
ATOM     45  CAC YFE d          17.672  18.551  43.492  0.00  0.00    -0.055 C 
ATOM     46  H4  YFE d          17.754  17.587  42.969  0.00  0.00     0.033 H 
ATOM     47  H5  YFE d          18.666  19.020  43.556  0.00  0.00     0.033 H 
ATOM     48  H6  YFE d          16.990  19.211  42.938  0.00  0.00     0.033 H 
ENDBRANCH  39  45
ENDBRANCH  35  38
ENDBRANCH   1  35
TORSDOF 11
ENDMDL
MODEL 2
REMARK VINA RESULT:      -6.9      1.362      3.508
REMARK  11 active torsions:
REMARK  status: ('A' for Active; 'I' for Inactive)
REMARK    1  A    between atoms: CAB_1  and  CAR_2 
REMARK    2  A    between atoms: CAR_2  and  CAC_3 
REMARK    3  A    between atoms: CAG_4  and  CAN_5 
REMARK    4  A    between atoms: CAN_5  and  CAX_6 
REMARK    5  A    between atoms: CAW_7  and  OAQ_9 
REMARK    6  A    between atoms: OAQ_9  and  CAA_10 
REMARK    7  A    between atoms: CAU_11  and  OAF_12 
REMARK    8  A    between atoms: CAY_13  and  CAS_14 
REMARK    9  A    between atoms: CAV_17  and  CAP_18 
REMARK   10  A    between atoms: CAP_18  and  CAO_19 
REMARK   11  A    between atoms: CAO_19  and  CAT_20 
ROOT
ATOM      1  CAX YFE d          17.293  19.780  47.424  0.00  0.00     0.013 A 
ATOM      2  CAW YFE d          17.690  21.086  47.719  0.00  0.00     0.078 A 
ATOM      3  CAM YFE d          16.850  21.982  48.381  0.00  0.00    -0.043 A 
ATOM      4  CAU YFE d          16.000  19.423  47.806  0.00  0.00     0.092 A 
ATOM      5  CAY YFE d          15.148  20.307  48.471  0.00  0.00     0.080 A 
ATOM      6  CAV YFE d          15.564  21.618  48.752  0.00  0.00    -0.035 A 
ATOM      7  H10 YFE d          17.207  22.979  48.609  0.00  0.00     0.088 H 
ENDROOT
BRANCH   6   8
ATOM      8  CAP YFE d          14.745  22.692  49.490  0.00  0.00    -0.036 C 
ATOM      9  H15 YFE d          14.817  22.499  50.570  0.00  0.00     0.040 H 
ATOM     10  H16 YFE d          13.696  22.606  49.171  0.00  0.00     0.040 H 
BRANCH   8  11
ATOM     11  CAO YFE d          15.207  24.114  49.228  0.00  0.00    -0.037 C 
ATOM     12  H17 YFE d          14.456  24.621  48.604  0.00  0.00     0.040 H 
ATOM     13  H18 YFE d          16.167  24.082  48.693  0.00  0.00     0.040 H 
BRANCH  11  14
ATOM     14  CAT YFE d          15.392  24.918  50.531  0.00  0.00    -0.058 A 
ATOM     15  CAK YFE d          14.314  25.519  51.180  0.00  0.00    -0.077 A 
ATOM     16  CAI YFE d          14.510  26.240  52.364  0.00  0.00    -0.082 A 
ATOM     17  H19 YFE d          13.317  25.428  50.764  0.00  0.00     0.084 H 
ATOM     18  CAH YFE d          15.793  26.360  52.896  0.00  0.00    -0.083 A 
ATOM     19  H20 YFE d          13.667  26.702  52.866  0.00  0.00     0.083 H 
ATOM     20  CAJ YFE d          16.883  25.757  52.249  0.00  0.00    -0.082 A 
ATOM     21  H21 YFE d          15.950  26.919  53.811  0.00  0.00     0.083 H 
ATOM     22  CAL YFE d          16.675  25.042  51.070  0.00  0.00    -0.077 A 
ATOM     23  H22 YFE d          17.880  25.847  52.663  0.00  0.00     0.083 H 
ATOM     24  H23 YFE d          17.515  24.578  50.567  0.00  0.00     0.084 H 
ENDBRANCH  11  14
ENDBRANCH   8  11
ENDBRANCH   6   8
BRANCH   5  25
ATOM     25  CAS YFE d          13.738  19.810  48.850  0.00  0.00     0.212 C 
ATOM     26  OAE YFE d          13.618  19.239  49.959  0.00  0.00    -0.644 OA
ATOM     27  OAD YFE d          12.801  19.966  48.033  0.00  0.00    -0.644 OA
ENDBRANCH   5  25
BRANCH   2  28
ATOM     28  OAQ YFE d          18.931  21.511  47.353  0.00  0.00    -0.355 OA
BRANCH  28  29
ATOM     29  CAA YFE d          19.150  22.878  47.800  0.00  0.00     0.010 C 
ATOM     30  H11 YFE d          18.185  23.340  48.055  0.00  0.00     0.066 H 
ATOM     31  H12 YFE d          19.632  23.455  46.996  0.00  0.00     0.066 H 
ATOM     32  H13 YFE d          19.801  22.874  48.687  0.00  0.00     0.066 H 
ENDBRANCH  28  29
ENDBRANCH   2  28
BRANCH   4  33
ATOM     33  OAF YFE d          15.554  18.167  47.537  0.00  0.00    -0.359 OA
ATOM     34  H14 YFE d          15.201  18.139  46.655  0.00  0.00     0.217 HD
ENDBRANCH   4  33
BRANCH   1  35
ATOM     35  CAN YFE d          18.229  18.763  46.708  0.00  0.00    -0.020 C 
ATOM     36  H8  YFE d          19.234  19.198  46.602  0.00  0.00     0.046 H 
ATOM     37  H9  YFE d          18.290  17.838  47.300  0.00  0.00     0.046 H 
BRANCH  35  38
ATOM     38  CAG YFE d          17.702  18.478  45.436  0.00  0.00    -0.097 C 
ATOM     39  CAR YFE d          18.161  17.740  44.325  0.00  0.00    -0.091 C 
ATOM     40  H7  YFE d          16.722  18.927  45.273  0.00  0.00     0.077 H 
BRANCH  39  41
ATOM     41  CAB YFE d          19.499  16.978  44.291  0.00  0.00    -0.055 C 
ATOM     42  H1  YFE d          19.478  16.237  43.478  0.00  0.00     0.033 H 
ATOM     43  H2  YFE d          19.653  16.464  45.252  0.00  0.00     0.033 H 
ATOM     44  H3  YFE d          20.321  17.687  44.118  0.00  0.00     0.033 H 
ENDBRANCH  39  41
BRANCH  39  45
ATOM     45  CAC YFE d          17.267  17.653  43.065  0.00  0.00    -0.055 C 
ATOM     46  H4  YFE d          16.392  18.307  43.191  0.00  0.00     0.033 H 
ATOM     47  H5  YFE d          16.931  16.614  42.926  0.00  0.00     0.033 H 
ATOM     48  H6  YFE d          17.841  17.974  42.185  0.00  0.00     0.033 H 
ENDBRANCH  39  45
ENDBRANCH  35  38
ENDBRANCH   1  35
TORSDOF 11
ENDMDL
MODEL 3
REMARK VINA RESULT:      -6.7      1.237      7.418
REMARK  11 active torsions:
REMARK  status: ('A' for Active; 'I' for Inactive)
REMARK    1  A    between atoms: CAB_1  and  CAR_2 
REMARK    2  A    between atoms: CAR_2  and  CAC_3 
REMARK    3  A    between atoms: CAG_4  and  CAN_5 
REMARK    4  A    between atoms: CAN_5  and  CAX_6 
REMARK    5  A    between atoms: CAW_7  and  OAQ_9 
REMARK    6  A    between atoms: OAQ_9  and  CAA_10 
REMARK    7  A    between atoms: CAU_11  and  OAF_12 
REMARK    8  A    between atoms: CAY_13  and  CAS_14 
REMARK    9  A    between atoms: CAV_17  and  CAP_18 
REMARK   10  A    between atoms: CAP_18  and  CAO_19 
REMARK   11  A    between atoms: CAO_19  and  CAT_20 
ROOT
ATOM      1  CAX YFE d          15.571  23.303  48.961  0.00  0.00     0.013 A 
ATOM      2  CAW YFE d          15.252  21.972  48.683  0.00  0.00     0.078 A 
ATOM      3  CAM YFE d          16.218  21.049  48.283  0.00  0.00    -0.043 A 
ATOM      4  CAU YFE d          16.907  23.669  48.795  0.00  0.00     0.092 A 
ATOM      5  CAY YFE d          17.886  22.756  48.398  0.00  0.00     0.080 A 
ATOM      6  CAV YFE d          17.543  21.424  48.117  0.00  0.00    -0.035 A 
ATOM      7  H10 YFE d          15.929  20.021  48.099  0.00  0.00     0.088 H 
ENDROOT
BRANCH   6   8
ATOM      8  CAP YFE d          18.512  20.307  47.689  0.00  0.00    -0.036 C 
ATOM      9  H15 YFE d          19.413  20.374  48.316  0.00  0.00     0.040 H 
ATOM     10  H16 YFE d          18.785  20.471  46.636  0.00  0.00     0.040 H 
BRANCH   8  11
ATOM     11  CAO YFE d          17.943  18.906  47.821  0.00  0.00    -0.037 C 
ATOM     12  H17 YFE d          17.070  18.940  48.490  0.00  0.00     0.040 H 
ATOM     13  H18 YFE d          18.713  18.251  48.254  0.00  0.00     0.040 H 
BRANCH  11  14
ATOM     14  CAT YFE d          17.504  18.324  46.463  0.00  0.00    -0.058 A 
ATOM     15  CAK YFE d          18.405  18.156  45.412  0.00  0.00    -0.077 A 
ATOM     16  CAI YFE d          17.980  17.621  44.190  0.00  0.00    -0.082 A 
ATOM     17  H19 YFE d          19.442  18.442  45.543  0.00  0.00     0.084 H 
ATOM     18  CAH YFE d          16.645  17.257  44.022  0.00  0.00    -0.083 A 
ATOM     19  H20 YFE d          18.687  17.489  43.378  0.00  0.00     0.083 H 
ATOM     20  CAJ YFE d          15.732  17.423  45.074  0.00  0.00    -0.082 A 
ATOM     21  H21 YFE d          16.311  16.845  43.076  0.00  0.00     0.083 H 
ATOM     22  CAL YFE d          16.167  17.957  46.287  0.00  0.00    -0.077 A 
ATOM     23  H22 YFE d          14.694  17.138  44.946  0.00  0.00     0.083 H 
ATOM     24  H23 YFE d          15.463  18.089  47.100  0.00  0.00     0.084 H 
ENDBRANCH  11  14
ENDBRANCH   8  11
ENDBRANCH   6   8
BRANCH   5  25
ATOM     25  CAS YFE d          19.334  23.264  48.247  0.00  0.00     0.212 C 
ATOM     26  OAE YFE d          19.909  23.655  49.291  0.00  0.00    -0.644 OA
ATOM     27  OAD YFE d          19.849  23.295  47.106  0.00  0.00    -0.644 OA
ENDBRANCH   5  25
BRANCH   2  28
ATOM     28  OAQ YFE d          13.962  21.551  48.799  0.00  0.00    -0.355 OA
BRANCH  28  29
ATOM     29  CAA YFE d          13.701  20.459  47.874  0.00  0.00     0.010 C 
ATOM     30  H11 YFE d          12.822  19.891  48.215  0.00  0.00     0.066 H 
ATOM     31  H12 YFE d          14.575  19.793  47.837  0.00  0.00     0.066 H 
ATOM     32  H13 YFE d          13.507  20.866  46.870  0.00  0.00     0.066 H 
ENDBRANCH  28  29
ENDBRANCH   2  28
BRANCH   4  33
ATOM     33  OAF YFE d          17.276  24.954  49.042  0.00  0.00    -0.359 OA
ATOM     34  H14 YFE d          16.700  25.328  49.699  0.00  0.00     0.217 HD
ENDBRANCH   4  33
BRANCH   1  35
ATOM     35  CAN YFE d          14.507  24.337  49.430  0.00  0.00    -0.020 C 
ATOM     36  H8  YFE d          14.563  25.237  48.800  0.00  0.00     0.046 H 
ATOM     37  H9  YFE d          13.503  23.896  49.352  0.00  0.00     0.046 H 
BRANCH  35  38
ATOM     38  CAG YFE d          14.769  24.682  50.768  0.00  0.00    -0.097 C 
ATOM     39  CAR YFE d          14.548  25.839  51.547  0.00  0.00    -0.091 C 
ATOM     40  H7  YFE d          15.247  23.879  51.328  0.00  0.00     0.077 H 
BRANCH  39  41
ATOM     41  CAB YFE d          13.864  27.113  51.020  0.00  0.00    -0.055 C 
ATOM     42  H1  YFE d          13.077  27.424  51.722  0.00  0.00     0.033 H 
ATOM     43  H2  YFE d          13.417  26.909  50.035  0.00  0.00     0.033 H 
ATOM     44  H3  YFE d          14.608  27.917  50.924  0.00  0.00     0.033 H 
ENDBRANCH  39  41
BRANCH  39  45
ATOM     45  CAC YFE d          14.986  25.834  53.030  0.00  0.00    -0.055 C 
ATOM     46  H4  YFE d          16.002  26.247  53.114  0.00  0.00     0.033 H 
ATOM     47  H5  YFE d          14.976  24.803  53.412  0.00  0.00     0.033 H 
ATOM     48  H6  YFE d          14.292  26.450  53.619  0.00  0.00     0.033 H 
ENDBRANCH  39  45
ENDBRANCH  35  38
ENDBRANCH   1  35
TORSDOF 11
ENDMDL
MODEL 4
REMARK VINA RESULT:      -6.7      1.488      8.283
REMARK  11 active torsions:
REMARK  status: ('A' for Active; 'I' for Inactive)
REMARK    1  A    between atoms: CAB_1  and  CAR_2 
REMARK    2  A    between atoms: CAR_2  and  CAC_3 
REMARK    3  A    between atoms: CAG_4  and  CAN_5 
REMARK    4  A    between atoms: CAN_5  and  CAX_6 
REMARK    5  A    between atoms: CAW_7  and  OAQ_9 
REMARK    6  A    between atoms: OAQ_9  and  CAA_10 
REMARK    7  A    between atoms: CAU_11  and  OAF_12 
REMARK    8  A    between atoms: CAY_13  and  CAS_14 
REMARK    9  A    between atoms: CAV_17  and  CAP_18 
REMARK   10  A    between atoms: CAP_18  and  CAO_19 
REMARK   11  A    between atoms: CAO_19  and  CAT_20 
ROOT
ATOM      1  CAX YFE d          16.346  22.925  48.537  0.00  0.00     0.013 A 
ATOM      2  CAW YFE d          17.582  22.351  48.231  0.00  0.00     0.078 A 
ATOM      3  CAM YFE d          17.714  20.994  47.939  0.00  0.00    -0.043 A 
ATOM      4  CAU YFE d          15.249  22.063  48.559  0.00  0.00     0.092 A 
ATOM      5  CAY YFE d          15.365  20.702  48.267  0.00  0.00     0.080 A 
ATOM      6  CAV YFE d          16.618  20.145  47.968  0.00  0.00    -0.035 A 
ATOM      7  H10 YFE d          18.689  20.595  47.686  0.00  0.00     0.088 H 
ENDROOT
BRANCH   6   8
ATOM      8  CAP YFE d          16.895  18.673  47.611  0.00  0.00    -0.036 C 
ATOM      9  H15 YFE d          16.298  18.415  46.723  0.00  0.00     0.040 H 
ATOM     10  H16 YFE d          16.580  18.047  48.459  0.00  0.00     0.040 H 
BRANCH   8  11
ATOM     11  CAO YFE d          18.352  18.370  47.311  0.00  0.00    -0.037 C 
ATOM     12  H17 YFE d          18.678  17.536  47.949  0.00  0.00     0.040 H 
ATOM     13  H18 YFE d          18.953  19.263  47.537  0.00  0.00     0.040 H 
BRANCH  11  14
ATOM     14  CAT YFE d          18.576  17.982  45.836  0.00  0.00    -0.058 A 
ATOM     15  CAK YFE d          17.721  18.420  44.826  0.00  0.00    -0.077 A 
ATOM     16  CAI YFE d          17.950  18.056  43.493  0.00  0.00    -0.082 A 
ATOM     17  H19 YFE d          16.871  19.046  45.074  0.00  0.00     0.084 H 
ATOM     18  CAH YFE d          19.040  17.247  43.175  0.00  0.00    -0.083 A 
ATOM     19  H20 YFE d          17.283  18.402  42.712  0.00  0.00     0.083 H 
ATOM     20  CAJ YFE d          19.905  16.803  44.187  0.00  0.00    -0.082 A 
ATOM     21  H21 YFE d          19.220  16.960  42.145  0.00  0.00     0.083 H 
ATOM     22  CAL YFE d          19.666  17.172  45.510  0.00  0.00    -0.077 A 
ATOM     23  H22 YFE d          20.755  16.176  43.941  0.00  0.00     0.083 H 
ATOM     24  H23 YFE d          20.332  16.827  46.293  0.00  0.00     0.084 H 
ENDBRANCH  11  14
ENDBRANCH   8  11
ENDBRANCH   6   8
BRANCH   5  25
ATOM     25  CAS YFE d          14.089  19.838  48.317  0.00  0.00     0.212 C 
ATOM     26  OAE YFE d          13.436  19.728  47.252  0.00  0.00    -0.644 OA
ATOM     27  OAD YFE d          13.750  19.322  49.407  0.00  0.00    -0.644 OA
ENDBRANCH   5  25
BRANCH   2  28
ATOM     28  OAQ YFE d          18.699  23.130  48.217  0.00  0.00    -0.355 OA
BRANCH  28  29
ATOM     29  CAA YFE d          19.879  22.317  47.959  0.00  0.00     0.010 C 
ATOM     30  H11 YFE d          19.614  21.491  47.283  0.00  0.00     0.066 H 
ATOM     31  H12 YFE d          20.256  21.908  48.908  0.00  0.00     0.066 H 
ATOM     32  H13 YFE d          20.658  22.938  47.493  0.00  0.00     0.066 H 
ENDBRANCH  28  29
ENDBRANCH   2  28
BRANCH   4  33
ATOM     33  OAF YFE d          14.021  22.563  48.860  0.00  0.00    -0.359 OA
ATOM     34  H14 YFE d          13.353  21.939  48.599  0.00  0.00     0.217 HD
ENDBRANCH   4  33
BRANCH   1  35
ATOM     35  CAN YFE d          16.181  24.443  48.841  0.00  0.00    -0.020 C 
ATOM     36  H8  YFE d          17.034  24.998  48.424  0.00  0.00     0.046 H 
ATOM     37  H9  YFE d          15.248  24.810  48.389  0.00  0.00     0.046 H 
BRANCH  35  38
ATOM     38  CAG YFE d          16.135  24.625  50.234  0.00  0.00    -0.097 C 
ATOM     39  CAR YFE d          15.393  25.465  51.092  0.00  0.00    -0.091 C 
ATOM     40  H7  YFE d          16.824  23.973  50.770  0.00  0.00     0.077 H 
BRANCH  39  41
ATOM     41  CAB YFE d          14.328  26.465  50.607  0.00  0.00    -0.055 C 
ATOM     42  H1  YFE d          14.244  26.409  49.512  0.00  0.00     0.033 H 
ATOM     43  H2  YFE d          14.620  27.484  50.901  0.00  0.00     0.033 H 
ATOM     44  H3  YFE d          13.358  26.217  51.062  0.00  0.00     0.033 H 
ENDBRANCH  39  41
BRANCH  39  45
ATOM     45  CAC YFE d          15.629  25.369  52.618  0.00  0.00    -0.055 C 
ATOM     46  H4  YFE d          16.646  24.996  52.809  0.00  0.00     0.033 H 
ATOM     47  H5  YFE d          14.896  24.678  53.059  0.00  0.00     0.033 H 
ATOM     48  H6  YFE d          15.514  26.365  53.070  0.00  0.00     0.033 H 
ENDBRANCH  39  45
ENDBRANCH  35  38
ENDBRANCH   1  35
TORSDOF 11
ENDMDL
MODEL 5
REMARK VINA RESULT:      -6.2      1.642      8.205
REMARK  11 active torsions:
REMARK  status: ('A' for Active; 'I' for Inactive)
REMARK    1  A    between atoms: CAB_1  and  CAR_2 
REMARK    2  A    between atoms: CAR_2  and  CAC_3 
REMARK    3  A    between atoms: CAG_4  and  CAN_5 
REMARK    4  A    between atoms: CAN_5  and  CAX_6 
REMARK    5  A    between atoms: CAW_7  and  OAQ_9 
REMARK    6  A    between atoms: OAQ_9  and  CAA_10 
REMARK    7  A    between atoms: CAU_11  and  OAF_12 
REMARK    8  A    between atoms: CAY_13  and  CAS_14 
REMARK    9  A    between atoms: CAV_17  and  CAP_18 
REMARK   10  A    between atoms: CAP_18  and  CAO_19 
REMARK   11  A    between atoms: CAO_19  and  CAT_20 
ROOT
ATOM      1  CAX YFE d          17.710  23.530  49.534  0.00  0.00     0.013 A 
ATOM      2  CAW YFE d          18.717  23.350  48.584  0.00  0.00     0.078 A 
ATOM      3  CAM YFE d          18.602  22.417  47.553  0.00  0.00    -0.043 A 
ATOM      4  CAU YFE d          16.587  22.711  49.412  0.00  0.00     0.092 A 
ATOM      5  CAY YFE d          16.456  21.774  48.384  0.00  0.00     0.080 A 
ATOM      6  CAV YFE d          17.484  21.605  47.443  0.00  0.00    -0.035 A 
ATOM      7  H10 YFE d          19.400  22.327  46.825  0.00  0.00     0.088 H 
ENDROOT
BRANCH   6   8
ATOM      8  CAP YFE d          17.473  20.631  46.251  0.00  0.00    -0.036 C 
ATOM      9  H15 YFE d          18.163  21.014  45.486  0.00  0.00     0.040 H 
ATOM     10  H16 YFE d          16.452  20.598  45.841  0.00  0.00     0.040 H 
BRANCH   8  11
ATOM     11  CAO YFE d          17.889  19.214  46.602  0.00  0.00    -0.037 C 
ATOM     12  H17 YFE d          17.230  18.838  47.400  0.00  0.00     0.040 H 
ATOM     13  H18 YFE d          18.929  19.229  46.962  0.00  0.00     0.040 H 
BRANCH  11  14
ATOM     14  CAT YFE d          17.797  18.261  45.394  0.00  0.00    -0.058 A 
ATOM     15  CAK YFE d          18.935  17.708  44.809  0.00  0.00    -0.077 A 
ATOM     16  CAI YFE d          18.823  16.842  43.714  0.00  0.00    -0.082 A 
ATOM     17  H19 YFE d          19.915  17.950  45.205  0.00  0.00     0.084 H 
ATOM     18  CAH YFE d          17.562  16.535  43.203  0.00  0.00    -0.083 A 
ATOM     19  H20 YFE d          19.712  16.412  43.267  0.00  0.00     0.083 H 
ATOM     20  CAJ YFE d          16.412  17.088  43.786  0.00  0.00    -0.082 A 
ATOM     21  H21 YFE d          17.471  15.868  42.354  0.00  0.00     0.083 H 
ATOM     22  CAL YFE d          16.538  17.949  44.876  0.00  0.00    -0.077 A 
ATOM     23  H22 YFE d          15.432  16.848  43.391  0.00  0.00     0.083 H 
ATOM     24  H23 YFE d          15.650  18.380  45.325  0.00  0.00     0.084 H 
ENDBRANCH  11  14
ENDBRANCH   8  11
ENDBRANCH   6   8
BRANCH   5  25
ATOM     25  CAS YFE d          15.173  20.921  48.338  0.00  0.00     0.212 C 
ATOM     26  OAE YFE d          15.267  19.735  48.736  0.00  0.00    -0.644 OA
ATOM     27  OAD YFE d          14.123  21.429  47.883  0.00  0.00    -0.644 OA
ENDBRANCH   5  25
BRANCH   2  28
ATOM     28  OAQ YFE d          19.853  24.098  48.658  0.00  0.00    -0.355 OA
BRANCH  28  29
ATOM     29  CAA YFE d          19.909  25.043  47.554  0.00  0.00     0.010 C 
ATOM     30  H11 YFE d          19.055  24.874  46.882  0.00  0.00     0.066 H 
ATOM     31  H12 YFE d          20.847  24.902  46.997  0.00  0.00     0.066 H 
ATOM     32  H13 YFE d          19.869  26.070  47.947  0.00  0.00     0.066 H 
ENDBRANCH  28  29
ENDBRANCH   2  28
BRANCH   4  33
ATOM     33  OAF YFE d          15.577  22.834  50.314  0.00  0.00    -0.359 OA
ATOM     34  H14 YFE d          15.897  22.612  51.180  0.00  0.00     0.217 HD
ENDBRANCH   4  33
BRANCH   1  35
ATOM     35  CAN YFE d          17.815  24.582  50.676  0.00  0.00    -0.020 C 
ATOM     36  H8  YFE d          17.360  24.180  51.593  0.00  0.00     0.046 H 
ATOM     37  H9  YFE d          18.872  24.818  50.864  0.00  0.00     0.046 H 
BRANCH  35  38
ATOM     38  CAG YFE d          17.133  25.748  50.283  0.00  0.00    -0.097 C 
ATOM     39  CAR YFE d          15.945  26.382  50.707  0.00  0.00    -0.091 C 
ATOM     40  H7  YFE d          17.632  26.278  49.472  0.00  0.00     0.077 H 
BRANCH  39  41
ATOM     41  CAB YFE d          15.057  25.866  51.854  0.00  0.00    -0.055 C 
ATOM     42  H1  YFE d          15.323  24.825  52.084  0.00  0.00     0.033 H 
ATOM     43  H2  YFE d          14.000  25.916  51.549  0.00  0.00     0.033 H 
ATOM     44  H3  YFE d          15.211  26.490  52.746  0.00  0.00     0.033 H 
ENDBRANCH  39  41
BRANCH  39  45
ATOM     45  CAC YFE d          15.510  27.693  50.010  0.00  0.00    -0.055 C 
ATOM     46  H4  YFE d          16.178  28.510  50.317  0.00  0.00     0.033 H 
ATOM     47  H5  YFE d          14.476  27.935  50.299  0.00  0.00     0.033 H 
ATOM     48  H6  YFE d          15.565  27.564  48.920  0.00  0.00     0.033 H 
ENDBRANCH  39  45
ENDBRANCH  35  38
ENDBRANCH   1  35
TORSDOF 11
ENDMDL
MODEL 6
REMARK VINA RESULT:      -6.1      1.901      3.314
REMARK  11 active torsions:
REMARK  status: ('A' for Active; 'I' for Inactive)
REMARK    1  A    between atoms: CAB_1  and  CAR_2 
REMARK    2  A    between atoms: CAR_2  and  CAC_3 
REMARK    3  A    between atoms: CAG_4  and  CAN_5 
REMARK    4  A    between atoms: CAN_5  and  CAX_6 
REMARK    5  A    between atoms: CAW_7  and  OAQ_9 
REMARK    6  A    between atoms: OAQ_9  and  CAA_10 
REMARK    7  A    between atoms: CAU_11  and  OAF_12 
REMARK    8  A    between atoms: CAY_13  and  CAS_14 
REMARK    9  A    between atoms: CAV_17  and  CAP_18 
REMARK   10  A    between atoms: CAP_18  and  CAO_19 
REMARK   11  A    between atoms: CAO_19  and  CAT_20 
ROOT
ATOM      1  CAX YFE d          17.002  19.282  47.322  0.00  0.00     0.013 A 
ATOM      2  CAW YFE d          18.282  19.837  47.248  0.00  0.00     0.078 A 
ATOM      3  CAM YFE d          18.537  21.156  47.625  0.00  0.00    -0.043 A 
ATOM      4  CAU YFE d          15.985  20.123  47.772  0.00  0.00     0.092 A 
ATOM      5  CAY YFE d          16.225  21.445  48.154  0.00  0.00     0.080 A 
ATOM      6  CAV YFE d          17.517  21.985  48.066  0.00  0.00    -0.035 A 
ATOM      7  H10 YFE d          19.549  21.539  47.572  0.00  0.00     0.088 H 
ENDROOT
BRANCH   6   8
ATOM      8  CAP YFE d          17.934  23.412  48.466  0.00  0.00    -0.036 C 
ATOM      9  H15 YFE d          17.026  24.029  48.538  0.00  0.00     0.040 H 
ATOM     10  H16 YFE d          18.590  23.814  47.680  0.00  0.00     0.040 H 
BRANCH   8  11
ATOM     11  CAO YFE d          18.673  23.495  49.790  0.00  0.00    -0.037 C 
ATOM     12  H17 YFE d          19.703  23.830  49.599  0.00  0.00     0.040 H 
ATOM     13  H18 YFE d          18.691  22.496  50.248  0.00  0.00     0.040 H 
BRANCH  11  14
ATOM     14  CAT YFE d          18.005  24.479  50.771  0.00  0.00    -0.058 A 
ATOM     15  CAK YFE d          16.638  24.748  50.721  0.00  0.00    -0.077 A 
ATOM     16  CAI YFE d          16.057  25.643  51.628  0.00  0.00    -0.082 A 
ATOM     17  H19 YFE d          16.021  24.261  49.975  0.00  0.00     0.084 H 
ATOM     18  CAH YFE d          16.852  26.273  52.584  0.00  0.00    -0.083 A 
ATOM     19  H20 YFE d          14.992  25.845  51.586  0.00  0.00     0.083 H 
ATOM     20  CAJ YFE d          18.229  26.007  52.640  0.00  0.00    -0.082 A 
ATOM     21  H21 YFE d          16.407  26.969  53.286  0.00  0.00     0.083 H 
ATOM     22  CAL YFE d          18.796  25.114  51.732  0.00  0.00    -0.077 A 
ATOM     23  H22 YFE d          18.848  26.493  53.385  0.00  0.00     0.083 H 
ATOM     24  H23 YFE d          19.860  24.909  51.772  0.00  0.00     0.084 H 
ENDBRANCH  11  14
ENDBRANCH   8  11
ENDBRANCH   6   8
BRANCH   5  25
ATOM     25  CAS YFE d          15.029  22.289  48.638  0.00  0.00     0.212 C 
ATOM     26  OAE YFE d          14.436  21.893  49.669  0.00  0.00    -0.644 OA
ATOM     27  OAD YFE d          14.690  23.295  47.973  0.00  0.00    -0.644 OA
ENDBRANCH   5  25
BRANCH   2  28
ATOM     28  OAQ YFE d          19.318  19.080  46.794  0.00  0.00    -0.355 OA
BRANCH  28  29
ATOM     29  CAA YFE d          19.905  18.318  47.885  0.00  0.00     0.010 C 
ATOM     30  H11 YFE d          20.784  17.767  47.517  0.00  0.00     0.066 H 
ATOM     31  H12 YFE d          19.164  17.606  48.276  0.00  0.00     0.066 H 
ATOM     32  H13 YFE d          20.213  19.004  48.688  0.00  0.00     0.066 H 
ENDBRANCH  28  29
ENDBRANCH   2  28
BRANCH   4  33
ATOM     33  OAF YFE d          14.716  19.641  47.856  0.00  0.00    -0.359 OA
ATOM     34  H14 YFE d          14.275  20.038  48.597  0.00  0.00     0.217 HD
ENDBRANCH   4  33
BRANCH   1  35
ATOM     35  CAN YFE d          16.708  17.805  46.928  0.00  0.00    -0.020 C 
ATOM     36  H8  YFE d          17.605  17.192  47.096  0.00  0.00     0.046 H 
ATOM     37  H9  YFE d          15.880  17.418  47.540  0.00  0.00     0.046 H 
BRANCH  35  38
ATOM     38  CAG YFE d          16.353  17.760  45.568  0.00  0.00    -0.097 C 
ATOM     39  CAR YFE d          17.070  17.541  44.372  0.00  0.00    -0.091 C 
ATOM     40  H7  YFE d          15.290  17.931  45.401  0.00  0.00     0.077 H 
BRANCH  39  41
ATOM     41  CAB YFE d          18.580  17.245  44.315  0.00  0.00    -0.055 C 
ATOM     42  H1  YFE d          18.737  16.205  43.994  0.00  0.00     0.033 H 
ATOM     43  H2  YFE d          19.020  17.392  45.313  0.00  0.00     0.033 H 
ATOM     44  H3  YFE d          19.061  17.926  43.598  0.00  0.00     0.033 H 
ENDBRANCH  39  41
BRANCH  39  45
ATOM     45  CAC YFE d          16.304  17.566  43.028  0.00  0.00    -0.055 C 
ATOM     46  H4  YFE d          16.902  17.062  42.256  0.00  0.00     0.033 H 
ATOM     47  H5  YFE d          16.123  18.610  42.729  0.00  0.00     0.033 H 
ATOM     48  H6  YFE d          15.342  17.046  43.144  0.00  0.00     0.033 H 
ENDBRANCH  39  45
ENDBRANCH  35  38
ENDBRANCH   1  35
TORSDOF 11
ENDMDL
MODEL 7
REMARK VINA RESULT:      -5.8      1.935      7.495
REMARK  11 active torsions:
REMARK  status: ('A' for Active; 'I' for Inactive)
REMARK    1  A    between atoms: CAB_1  and  CAR_2 
REMARK    2  A    between atoms: CAR_2  and  CAC_3 
REMARK    3  A    between atoms: CAG_4  and  CAN_5 
REMARK    4  A    between atoms: CAN_5  and  CAX_6 
REMARK    5  A    between atoms: CAW_7  and  OAQ_9 
REMARK    6  A    between atoms: OAQ_9  and  CAA_10 
REMARK    7  A    between atoms: CAU_11  and  OAF_12 
REMARK    8  A    between atoms: CAY_13  and  CAS_14 
REMARK    9  A    between atoms: CAV_17  and  CAP_18 
REMARK   10  A    between atoms: CAP_18  and  CAO_19 
REMARK   11  A    between atoms: CAO_19  and  CAT_20 
ROOT
ATOM      1  CAX YFE d          16.520  26.039  49.805  0.00  0.00     0.013 A 
ATOM      2  CAW YFE d          15.255  25.540  50.124  0.00  0.00     0.078 A 
ATOM      3  CAM YFE d          14.925  24.196  49.946  0.00  0.00    -0.043 A 
ATOM      4  CAU YFE d          17.433  25.126  49.276  0.00  0.00     0.092 A 
ATOM      5  CAY YFE d          17.118  23.778  49.094  0.00  0.00     0.080 A 
ATOM      6  CAV YFE d          15.838  23.298  49.415  0.00  0.00    -0.035 A 
ATOM      7  H10 YFE d          13.938  23.848  50.227  0.00  0.00     0.088 H 
ENDROOT
BRANCH   6   8
ATOM      8  CAP YFE d          15.355  21.842  49.285  0.00  0.00    -0.036 C 
ATOM      9  H15 YFE d          14.444  21.726  49.890  0.00  0.00     0.040 H 
ATOM     10  H16 YFE d          16.142  21.181  49.678  0.00  0.00     0.040 H 
BRANCH   8  11
ATOM     11  CAO YFE d          15.041  21.415  47.863  0.00  0.00    -0.037 C 
ATOM     12  H17 YFE d          15.375  22.206  47.174  0.00  0.00     0.040 H 
ATOM     13  H18 YFE d          13.954  21.279  47.766  0.00  0.00     0.040 H 
BRANCH  11  14
ATOM     14  CAT YFE d          15.742  20.096  47.481  0.00  0.00    -0.058 A 
ATOM     15  CAK YFE d          16.725  20.049  46.494  0.00  0.00    -0.077 A 
ATOM     16  CAI YFE d          17.348  18.837  46.169  0.00  0.00    -0.082 A 
ATOM     17  H19 YFE d          17.010  20.957  45.974  0.00  0.00     0.084 H 
ATOM     18  CAH YFE d          16.978  17.670  46.835  0.00  0.00    -0.083 A 
ATOM     19  H20 YFE d          18.115  18.808  45.404  0.00  0.00     0.083 H 
ATOM     20  CAJ YFE d          15.989  17.710  47.829  0.00  0.00    -0.082 A 
ATOM     21  H21 YFE d          17.456  16.729  46.585  0.00  0.00     0.083 H 
ATOM     22  CAL YFE d          15.376  18.922  48.144  0.00  0.00    -0.077 A 
ATOM     23  H22 YFE d          15.702  16.803  48.350  0.00  0.00     0.083 H 
ATOM     24  H23 YFE d          14.609  18.954  48.909  0.00  0.00     0.084 H 
ENDBRANCH  11  14
ENDBRANCH   8  11
ENDBRANCH   6   8
BRANCH   5  25
ATOM     25  CAS YFE d          18.201  22.853  48.504  0.00  0.00     0.212 C 
ATOM     26  OAE YFE d          18.930  22.241  49.320  0.00  0.00    -0.644 OA
ATOM     27  OAD YFE d          18.323  22.781  47.259  0.00  0.00    -0.644 OA
ENDBRANCH   5  25
BRANCH   2  28
ATOM     28  OAQ YFE d          14.306  26.381  50.621  0.00  0.00    -0.355 OA
BRANCH  28  29
ATOM     29  CAA YFE d          14.018  26.055  52.009  0.00  0.00     0.010 C 
ATOM     30  H11 YFE d          13.822  24.977  52.100  0.00  0.00     0.066 H 
ATOM     31  H12 YFE d          13.133  26.618  52.342  0.00  0.00     0.066 H 
ATOM     32  H13 YFE d          14.881  26.325  52.636  0.00  0.00     0.066 H 
ENDBRANCH  28  29
ENDBRANCH   2  28
BRANCH   4  33
ATOM     33  OAF YFE d          18.678  25.556  48.938  0.00  0.00    -0.359 OA
ATOM     34  H14 YFE d          18.994  26.159  49.600  0.00  0.00     0.217 HD
ENDBRANCH   4  33
BRANCH   1  35
ATOM     35  CAN YFE d          16.909  27.530  50.021  0.00  0.00    -0.020 C 
ATOM     36  H8  YFE d          17.829  27.756  49.463  0.00  0.00     0.046 H 
ATOM     37  H9  YFE d          16.096  28.179  49.665  0.00  0.00     0.046 H 
BRANCH  35  38
ATOM     38  CAG YFE d          17.124  27.749  51.393  0.00  0.00    -0.097 C 
ATOM     39  CAR YFE d          18.182  27.461  52.281  0.00  0.00    -0.091 C 
ATOM     40  H7  YFE d          16.288  28.253  51.879  0.00  0.00     0.077 H 
BRANCH  39  41
ATOM     41  CAB YFE d          19.498  26.781  51.860  0.00  0.00    -0.055 C 
ATOM     42  H1  YFE d          20.264  27.548  51.675  0.00  0.00     0.033 H 
ATOM     43  H2  YFE d          19.332  26.199  50.940  0.00  0.00     0.033 H 
ATOM     44  H3  YFE d          19.838  26.110  52.662  0.00  0.00     0.033 H 
ENDBRANCH  39  41
BRANCH  39  45
ATOM     45  CAC YFE d          18.045  27.874  53.766  0.00  0.00    -0.055 C 
ATOM     46  H4  YFE d          17.661  27.023  54.349  0.00  0.00     0.033 H 
ATOM     47  H5  YFE d          17.346  28.720  53.848  0.00  0.00     0.033 H 
ATOM     48  H6  YFE d          19.029  28.171  54.156  0.00  0.00     0.033 H 
ENDBRANCH  39  45
ENDBRANCH  35  38
ENDBRANCH   1  35
TORSDOF 11
ENDMDL
MODEL 8
REMARK VINA RESULT:      -5.7      1.834      3.367
REMARK  11 active torsions:
REMARK  status: ('A' for Active; 'I' for Inactive)
REMARK    1  A    between atoms: CAB_1  and  CAR_2 
REMARK    2  A    between atoms: CAR_2  and  CAC_3 
REMARK    3  A    between atoms: CAG_4  and  CAN_5 
REMARK    4  A    between atoms: CAN_5  and  CAX_6 
REMARK    5  A    between atoms: CAW_7  and  OAQ_9 
REMARK    6  A    between atoms: OAQ_9  and  CAA_10 
REMARK    7  A    between atoms: CAU_11  and  OAF_12 
REMARK    8  A    between atoms: CAY_13  and  CAS_14 
REMARK    9  A    between atoms: CAV_17  and  CAP_18 
REMARK   10  A    between atoms: CAP_18  and  CAO_19 
REMARK   11  A    between atoms: CAO_19  and  CAT_20 
ROOT
ATOM      1  CAX YFE d          17.323  21.952  47.782  0.00  0.00     0.013 A 
ATOM      2  CAW YFE d          18.620  22.278  48.183  0.00  0.00     0.078 A 
ATOM      3  CAM YFE d          18.892  23.406  48.958  0.00  0.00    -0.043 A 
ATOM      4  CAU YFE d          16.311  22.827  48.179  0.00  0.00     0.092 A 
ATOM      5  CAY YFE d          16.567  23.958  48.957  0.00  0.00     0.080 A 
ATOM      6  CAV YFE d          17.880  24.272  49.343  0.00  0.00    -0.035 A 
ATOM      7  H10 YFE d          19.912  23.609  49.265  0.00  0.00     0.088 H 
ENDROOT
BRANCH   6   8
ATOM      8  CAP YFE d          18.310  25.468  50.211  0.00  0.00    -0.036 C 
ATOM      9  H15 YFE d          17.714  26.343  49.911  0.00  0.00     0.040 H 
ATOM     10  H16 YFE d          19.375  25.668  50.021  0.00  0.00     0.040 H 
BRANCH   8  11
ATOM     11  CAO YFE d          18.124  25.254  51.702  0.00  0.00    -0.037 C 
ATOM     12  H17 YFE d          19.014  25.631  52.228  0.00  0.00     0.040 H 
ATOM     13  H18 YFE d          18.015  24.176  51.893  0.00  0.00     0.040 H 
BRANCH  11  14
ATOM     14  CAT YFE d          16.880  25.983  52.247  0.00  0.00    -0.058 A 
ATOM     15  CAK YFE d          16.149  25.480  53.322  0.00  0.00    -0.077 A 
ATOM     16  CAI YFE d          15.025  26.165  53.800  0.00  0.00    -0.082 A 
ATOM     17  H19 YFE d          16.453  24.551  53.792  0.00  0.00     0.084 H 
ATOM     18  CAH YFE d          14.632  27.357  53.193  0.00  0.00    -0.083 A 
ATOM     19  H20 YFE d          14.463  25.770  54.639  0.00  0.00     0.083 H 
ATOM     20  CAJ YFE d          15.363  27.869  52.110  0.00  0.00    -0.082 A 
ATOM     21  H21 YFE d          13.761  27.888  53.558  0.00  0.00     0.083 H 
ATOM     22  CAL YFE d          16.481  27.178  51.644  0.00  0.00    -0.077 A 
ATOM     23  H22 YFE d          15.061  28.797  51.639  0.00  0.00     0.083 H 
ATOM     24  H23 YFE d          17.044  27.571  50.806  0.00  0.00     0.084 H 
ENDBRANCH  11  14
ENDBRANCH   8  11
ENDBRANCH   6   8
BRANCH   5  25
ATOM     25  CAS YFE d          15.377  24.858  49.343  0.00  0.00     0.212 C 
ATOM     26  OAE YFE d          14.561  24.394  50.174  0.00  0.00    -0.644 OA
ATOM     27  OAD YFE d          15.261  25.978  48.792  0.00  0.00    -0.644 OA
ENDBRANCH   5  25
BRANCH   2  28
ATOM     28  OAQ YFE d          19.660  21.482  47.809  0.00  0.00    -0.355 OA
BRANCH  28  29
ATOM     29  CAA YFE d          19.601  20.210  48.512  0.00  0.00     0.010 C 
ATOM     30  H11 YFE d          20.246  19.479  48.002  0.00  0.00     0.066 H 
ATOM     31  H12 YFE d          18.564  19.842  48.519  0.00  0.00     0.066 H 
ATOM     32  H13 YFE d          19.948  20.345  49.547  0.00  0.00     0.066 H 
ENDBRANCH  28  29
ENDBRANCH   2  28
BRANCH   4  33
ATOM     33  OAF YFE d          15.029  22.566  47.810  0.00  0.00    -0.359 OA
ATOM     34  H14 YFE d          14.973  21.683  47.465  0.00  0.00     0.217 HD
ENDBRANCH   4  33
BRANCH   1  35
ATOM     35  CAN YFE d          17.003  20.685  46.937  0.00  0.00    -0.020 C 
ATOM     36  H8  YFE d          16.601  20.985  45.958  0.00  0.00     0.046 H 
ATOM     37  H9  YFE d          17.921  20.096  46.792  0.00  0.00     0.046 H 
BRANCH  35  38
ATOM     38  CAG YFE d          16.049  19.912  47.622  0.00  0.00    -0.097 C 
ATOM     39  CAR YFE d          15.451  18.654  47.388  0.00  0.00    -0.091 C 
ATOM     40  H7  YFE d          15.691  20.389  48.533  0.00  0.00     0.077 H 
BRANCH  39  41
ATOM     41  CAB YFE d          15.791  17.749  46.190  0.00  0.00    -0.055 C 
ATOM     42  H1  YFE d          16.876  17.770  46.012  0.00  0.00     0.033 H 
ATOM     43  H2  YFE d          15.265  18.113  45.295  0.00  0.00     0.033 H 
ATOM     44  H3  YFE d          15.476  16.718  46.408  0.00  0.00     0.033 H 
ENDBRANCH  39  41
BRANCH  39  45
ATOM     45  CAC YFE d          14.412  18.122  48.403  0.00  0.00    -0.055 C 
ATOM     46  H4  YFE d          13.798  17.345  47.926  0.00  0.00     0.033 H 
ATOM     47  H5  YFE d          13.766  18.949  48.733  0.00  0.00     0.033 H 
ATOM     48  H6  YFE d          14.933  17.694  49.271  0.00  0.00     0.033 H 
ENDBRANCH  39  45
ENDBRANCH  35  38
ENDBRANCH   1  35
TORSDOF 11
ENDMDL
MODEL 9
REMARK VINA RESULT:      -5.7      1.477      8.214
REMARK  11 active torsions:
REMARK  status: ('A' for Active; 'I' for Inactive)
REMARK    1  A    between atoms: CAB_1  and  CAR_2 
REMARK    2  A    between atoms: CAR_2  and  CAC_3 
REMARK    3  A    between atoms: CAG_4  and  CAN_5 
REMARK    4  A    between atoms: CAN_5  and  CAX_6 
REMARK    5  A    between atoms: CAW_7  and  OAQ_9 
REMARK    6  A    between atoms: OAQ_9  and  CAA_10 
REMARK    7  A    between atoms: CAU_11  and  OAF_12 
REMARK    8  A    between atoms: CAY_13  and  CAS_14 
REMARK    9  A    between atoms: CAV_17  and  CAP_18 
REMARK   10  A    between atoms: CAP_18  and  CAO_19 
REMARK   11  A    between atoms: CAO_19  and  CAT_20 
ROOT
ATOM      1  CAX YFE d          16.489  22.649  48.434  0.00  0.00     0.013 A 
ATOM      2  CAW YFE d          17.602  22.045  47.845  0.00  0.00     0.078 A 
ATOM      3  CAM YFE d          17.602  20.700  47.473  0.00  0.00    -0.043 A 
ATOM      4  CAU YFE d          15.382  21.830  48.654  0.00  0.00     0.092 A 
ATOM      5  CAY YFE d          15.366  20.483  48.285  0.00  0.00     0.080 A 
ATOM      6  CAV YFE d          16.498  19.894  47.700  0.00  0.00    -0.035 A 
ATOM      7  H10 YFE d          18.481  20.279  46.998  0.00  0.00     0.088 H 
ENDROOT
BRANCH   6   8
ATOM      8  CAP YFE d          16.620  18.434  47.228  0.00  0.00    -0.036 C 
ATOM      9  H15 YFE d          16.188  17.783  48.003  0.00  0.00     0.040 H 
ATOM     10  H16 YFE d          17.688  18.198  47.106  0.00  0.00     0.040 H 
BRANCH   8  11
ATOM     11  CAO YFE d          15.915  18.144  45.915  0.00  0.00    -0.037 C 
ATOM     12  H17 YFE d          15.221  18.969  45.696  0.00  0.00     0.040 H 
ATOM     13  H18 YFE d          15.350  17.206  46.017  0.00  0.00     0.040 H 
BRANCH  11  14
ATOM     14  CAT YFE d          16.903  18.002  44.741  0.00  0.00    -0.058 A 
ATOM     15  CAK YFE d          17.359  19.111  44.029  0.00  0.00    -0.077 A 
ATOM     16  CAI YFE d          18.260  18.953  42.969  0.00  0.00    -0.082 A 
ATOM     17  H19 YFE d          17.013  20.102  44.299  0.00  0.00     0.084 H 
ATOM     18  CAH YFE d          18.701  17.678  42.620  0.00  0.00    -0.083 A 
ATOM     19  H20 YFE d          18.613  19.820  42.422  0.00  0.00     0.083 H 
ATOM     20  CAJ YFE d          18.247  16.557  43.331  0.00  0.00    -0.082 A 
ATOM     21  H21 YFE d          19.396  17.551  41.797  0.00  0.00     0.083 H 
ATOM     22  CAL YFE d          17.350  16.727  44.385  0.00  0.00    -0.077 A 
ATOM     23  H22 YFE d          18.591  15.565  43.063  0.00  0.00     0.083 H 
ATOM     24  H23 YFE d          16.995  15.861  44.934  0.00  0.00     0.084 H 
ENDBRANCH  11  14
ENDBRANCH   8  11
ENDBRANCH   6   8
BRANCH   5  25
ATOM     25  CAS YFE d          14.089  19.667  48.572  0.00  0.00     0.212 C 
ATOM     26  OAE YFE d          13.255  19.574  47.641  0.00  0.00    -0.644 OA
ATOM     27  OAD YFE d          13.931  19.171  49.711  0.00  0.00    -0.644 OA
ENDBRANCH   5  25
BRANCH   2  28
ATOM     28  OAQ YFE d          18.728  22.779  47.624  0.00  0.00    -0.355 OA
BRANCH  28  29
ATOM     29  CAA YFE d          19.910  22.018  48.000  0.00  0.00     0.010 C 
ATOM     30  H11 YFE d          20.519  21.821  47.105  0.00  0.00     0.066 H 
ATOM     31  H12 YFE d          19.603  21.064  48.452  0.00  0.00     0.066 H 
ATOM     32  H13 YFE d          20.501  22.595  48.727  0.00  0.00     0.066 H 
ENDBRANCH  28  29
ENDBRANCH   2  28
BRANCH   4  33
ATOM     33  OAF YFE d          14.272  22.360  49.234  0.00  0.00    -0.359 OA
ATOM     34  H14 YFE d          13.578  21.711  49.240  0.00  0.00     0.217 HD
ENDBRANCH   4  33
BRANCH   1  35
ATOM     35  CAN YFE d          16.467  24.153  48.832  0.00  0.00    -0.020 C 
ATOM     36  H8  YFE d          16.650  24.773  47.942  0.00  0.00     0.046 H 
ATOM     37  H9  YFE d          15.487  24.407  49.261  0.00  0.00     0.046 H 
BRANCH  35  38
ATOM     38  CAG YFE d          17.475  24.386  49.784  0.00  0.00    -0.097 C 
ATOM     39  CAR YFE d          17.532  25.101  51.000  0.00  0.00    -0.091 C 
ATOM     40  H7  YFE d          18.421  23.911  49.526  0.00  0.00     0.077 H 
BRANCH  39  41
ATOM     41  CAB YFE d          16.334  25.844  51.619  0.00  0.00    -0.055 C 
ATOM     42  H1  YFE d          15.822  25.184  52.333  0.00  0.00     0.033 H 
ATOM     43  H2  YFE d          15.634  26.138  50.822  0.00  0.00     0.033 H 
ATOM     44  H3  YFE d          16.691  26.743  52.143  0.00  0.00     0.033 H 
ENDBRANCH  39  41
BRANCH  39  45
ATOM     45  CAC YFE d          18.862  25.124  51.790  0.00  0.00    -0.055 C 
ATOM     46  H4  YFE d          19.052  26.143  52.158  0.00  0.00     0.033 H 
ATOM     47  H5  YFE d          19.685  24.812  51.131  0.00  0.00     0.033 H 
ATOM     48  H6  YFE d          18.794  24.434  52.644  0.00  0.00     0.033 H 
ENDBRANCH  39  45
ENDBRANCH  35  38
ENDBRANCH   1  35
TORSDOF 11
ENDMDL
MODEL 10
REMARK VINA RESULT:      -5.4      1.349      7.719
REMARK  11 active torsions:
REMARK  status: ('A' for Active; 'I' for Inactive)
REMARK    1  A    between atoms: CAB_1  and  CAR_2 
REMARK    2  A    between atoms: CAR_2  and  CAC_3 
REMARK    3  A    between atoms: CAG_4  and  CAN_5 
REMARK    4  A    between atoms: CAN_5  and  CAX_6 
REMARK    5  A    between atoms: CAW_7  and  OAQ_9 
REMARK    6  A    between atoms: OAQ_9  and  CAA_10 
REMARK    7  A    between atoms: CAU_11  and  OAF_12 
REMARK    8  A    between atoms: CAY_13  and  CAS_14 
REMARK    9  A    between atoms: CAV_17  and  CAP_18 
REMARK   10  A    between atoms: CAP_18  and  CAO_19 
REMARK   11  A    between atoms: CAO_19  and  CAT_20 
ROOT
ATOM      1  CAX YFE d          15.571  21.957  48.492  0.00  0.00     0.013 A 
ATOM      2  CAW YFE d          14.922  20.766  48.162  0.00  0.00     0.078 A 
ATOM      3  CAM YFE d          15.626  19.613  47.814  0.00  0.00    -0.043 A 
ATOM      4  CAU YFE d          16.965  21.942  48.433  0.00  0.00     0.092 A 
ATOM      5  CAY YFE d          17.684  20.795  48.089  0.00  0.00     0.080 A 
ATOM      6  CAV YFE d          17.011  19.609  47.754  0.00  0.00    -0.035 A 
ATOM      7  H10 YFE d          15.081  18.704  47.587  0.00  0.00     0.088 H 
ENDROOT
BRANCH   6   8
ATOM      8  CAP YFE d          17.667  18.270  47.375  0.00  0.00    -0.036 C 
ATOM      9  H15 YFE d          16.883  17.499  47.343  0.00  0.00     0.040 H 
ATOM     10  H16 YFE d          18.402  18.012  48.151  0.00  0.00     0.040 H 
BRANCH   8  11
ATOM     11  CAO YFE d          18.377  18.283  46.033  0.00  0.00    -0.037 C 
ATOM     12  H17 YFE d          19.261  17.631  46.094  0.00  0.00     0.040 H 
ATOM     13  H18 YFE d          18.695  19.312  45.812  0.00  0.00     0.040 H 
BRANCH  11  14
ATOM     14  CAT YFE d          17.472  17.786  44.888  0.00  0.00    -0.058 A 
ATOM     15  CAK YFE d          16.122  17.508  45.090  0.00  0.00    -0.077 A 
ATOM     16  CAI YFE d          15.322  17.062  44.031  0.00  0.00    -0.082 A 
ATOM     17  H19 YFE d          15.687  17.638  46.075  0.00  0.00     0.084 H 
ATOM     18  CAH YFE d          15.882  16.891  42.766  0.00  0.00    -0.083 A 
ATOM     19  H20 YFE d          14.271  16.850  44.194  0.00  0.00     0.083 H 
ATOM     20  CAJ YFE d          17.241  17.169  42.555  0.00  0.00    -0.082 A 
ATOM     21  H21 YFE d          15.267  16.543  41.944  0.00  0.00     0.083 H 
ATOM     22  CAL YFE d          18.027  17.613  43.618  0.00  0.00    -0.077 A 
ATOM     23  H22 YFE d          17.678  17.040  41.571  0.00  0.00     0.083 H 
ATOM     24  H23 YFE d          19.078  17.826  43.457  0.00  0.00     0.084 H 
ENDBRANCH  11  14
ENDBRANCH   8  11
ENDBRANCH   6   8
BRANCH   5  25
ATOM     25  CAS YFE d          19.222  20.885  48.057  0.00  0.00     0.212 C 
ATOM     26  OAE YFE d          19.858  19.914  48.532  0.00  0.00    -0.644 OA
ATOM     27  OAD YFE d          19.759  21.920  47.597  0.00  0.00    -0.644 OA
ENDBRANCH   5  25
BRANCH   2  28
ATOM     28  OAQ YFE d          13.561  20.716  48.173  0.00  0.00    -0.355 OA
BRANCH  28  29
ATOM     29  CAA YFE d          13.106  19.348  48.370  0.00  0.00     0.010 C 
ATOM     30  H11 YFE d          12.160  19.195  47.829  0.00  0.00     0.066 H 
ATOM     31  H12 YFE d          12.948  19.165  49.444  0.00  0.00     0.066 H 
ATOM     32  H13 YFE d          13.865  18.650  47.987  0.00  0.00     0.066 H 
ENDBRANCH  28  29
ENDBRANCH   2  28
BRANCH   4  33
ATOM     33  OAF YFE d          17.652  23.076  48.735  0.00  0.00    -0.359 OA
ATOM     34  H14 YFE d          17.658  23.201  49.676  0.00  0.00     0.217 HD
ENDBRANCH   4  33
BRANCH   1  35
ATOM     35  CAN YFE d          14.799  23.244  48.905  0.00  0.00    -0.020 C 
ATOM     36  H8  YFE d          14.384  23.729  48.009  0.00  0.00     0.046 H 
ATOM     37  H9  YFE d          13.981  22.979  49.591  0.00  0.00     0.046 H 
BRANCH  35  38
ATOM     38  CAG YFE d          15.690  24.122  49.547  0.00  0.00    -0.097 C 
ATOM     39  CAR YFE d          15.573  25.027  50.623  0.00  0.00    -0.091 C 
ATOM     40  H7  YFE d          16.692  24.098  49.119  0.00  0.00     0.077 H 
BRANCH  39  41
ATOM     41  CAB YFE d          14.279  25.243  51.430  0.00  0.00    -0.055 C 
ATOM     42  H1  YFE d          14.521  25.299  52.502  0.00  0.00     0.033 H 
ATOM     43  H2  YFE d          13.592  24.403  51.252  0.00  0.00     0.033 H 
ATOM     44  H3  YFE d          13.801  26.181  51.113  0.00  0.00     0.033 H 
ENDBRANCH  39  41
BRANCH  39  45
ATOM     45  CAC YFE d          16.817  25.840  51.054  0.00  0.00    -0.055 C 
ATOM     46  H4  YFE d          16.513  26.637  51.748  0.00  0.00     0.033 H 
ATOM     47  H5  YFE d          17.288  26.286  50.165  0.00  0.00     0.033 H 
ATOM     48  H6  YFE d          17.535  25.174  51.554  0.00  0.00     0.033 H 
ENDBRANCH  39  45
ENDBRANCH  35  38
ENDBRANCH   1  35
TORSDOF 11
ENDMDL
