MODEL 1
REMARK VINA RESULT:      -7.7      0.000      0.000
REMARK  5 active torsions:
REMARK  status: ('A' for Active; 'I' for Inactive)
REMARK    1  A    between atoms: C22_2  and  C31_3 
REMARK       I    between atoms: C22_2  and  N21_12 
REMARK    2  A    between atoms: C34_6  and  C41_9 
REMARK    3  A    between atoms: C41_9  and  C42_10 
REMARK    4  A    between atoms: C41_9  and  N43_11 
REMARK    5  A    between atoms: N21_12  and  C14_13 
ROOT
ATOM      1  C31 Y27 d           8.504   9.025   4.075  0.00  0.00     0.024 C 
ATOM      2  C36 Y27 d           7.874  10.039   5.035  0.00  0.00    -0.053 C 
ATOM      3  C35 Y27 d           6.395   9.705   5.254  0.00  0.00    -0.059 C 
ATOM      4  C34 Y27 d           5.684   9.929   3.914  0.00  0.00    -0.027 C 
ATOM      5  C33 Y27 d           6.227   8.921   2.866  0.00  0.00    -0.059 C 
ATOM      6  C32 Y27 d           7.786   9.006   2.711  0.00  0.00    -0.053 C 
ATOM      7  H1  Y27 d           8.380   8.025   4.517  0.00  0.00     0.054 H 
ATOM      8  H2  Y27 d           7.959  11.048   4.605  0.00  0.00     0.034 H 
ATOM      9  H3  Y27 d           8.401  10.005   5.999  0.00  0.00     0.034 H 
ATOM     10  H4  Y27 d           5.968  10.365   6.023  0.00  0.00     0.033 H 
ATOM     11  H5  Y27 d           6.287   8.657   5.569  0.00  0.00     0.033 H 
ATOM     12  H6  Y27 d           5.943  10.934   3.553  0.00  0.00     0.043 H 
ATOM     13  H7  Y27 d           5.762   9.137   1.893  0.00  0.00     0.033 H 
ATOM     14  H8  Y27 d           5.958   7.902   3.183  0.00  0.00     0.033 H 
ATOM     15  H9  Y27 d           8.134   8.134   2.139  0.00  0.00     0.034 H 
ATOM     16  H10 Y27 d           8.039   9.927   2.165  0.00  0.00     0.034 H 
ENDROOT
BRANCH   1  17
ATOM     17  C22 Y27 d           9.984   9.289   3.966  0.00  0.00     0.226 C 
ATOM     18  O23 Y27 d          10.513  10.345   4.324  0.00  0.00    -0.273 OA
ATOM     19  N21 Y27 d          10.721   8.192   3.438  0.00  0.00    -0.327 N 
ATOM     20  H18 Y27 d          10.196   7.495   2.950  0.00  0.00     0.169 HD
BRANCH  19  21
ATOM     21  C14 Y27 d          12.145   7.979   3.530  0.00  0.00     0.037 A 
ATOM     22  C15 Y27 d          12.890   8.345   2.397  0.00  0.00    -0.040 A 
ATOM     23  C16 Y27 d          14.268   8.125   2.470  0.00  0.00     0.004 A 
ATOM     24  H19 Y27 d          12.423   8.772   1.517  0.00  0.00     0.089 H 
ATOM     25  N11 Y27 d          14.856   7.606   3.568  0.00  0.00    -0.273 NA
ATOM     26  H20 Y27 d          14.884   8.380   1.615  0.00  0.00     0.114 H 
ATOM     27  C12 Y27 d          14.157   7.251   4.657  0.00  0.00     0.004 A 
ATOM     28  C13 Y27 d          12.780   7.421   4.677  0.00  0.00    -0.040 A 
ATOM     29  H21 Y27 d          14.666   6.834   5.518  0.00  0.00     0.114 H 
ATOM     30  H22 Y27 d          12.200   7.135   5.547  0.00  0.00     0.089 H 
ENDBRANCH  19  21
ENDBRANCH   1  17
BRANCH   4  31
ATOM     31  C41 Y27 d           4.141   9.913   4.140  0.00  0.00     0.100 C 
ATOM     32  H11 Y27 d           3.763  10.936   3.999  0.00  0.00     0.083 H 
BRANCH  31  33
ATOM     33  C42 Y27 d           3.453   8.987   3.120  0.00  0.00    -0.049 C 
ATOM     34  H12 Y27 d           3.638   7.938   3.394  0.00  0.00     0.030 H 
ATOM     35  H13 Y27 d           3.860   9.181   2.116  0.00  0.00     0.030 H 
ATOM     36  H14 Y27 d           2.370   9.181   3.121  0.00  0.00     0.030 H 
ENDBRANCH  31  33
BRANCH  31  37
ATOM     37  N43 Y27 d           3.790   9.462   5.534  0.00  0.00    -0.075 N 
ATOM     38  H15 Y27 d           2.786   9.439   5.636  0.00  0.00     0.274 HD
ATOM     39  H16 Y27 d           4.182  10.104   6.204  0.00  0.00     0.274 HD
ATOM     40  H17 Y27 d           4.164   8.539   5.693  0.00  0.00     0.274 HD
ENDBRANCH  31  37
ENDBRANCH   4  31
TORSDOF 5
ENDMDL
MODEL 2
REMARK VINA RESULT:      -7.6      1.378      1.981
REMARK  5 active torsions:
REMARK  status: ('A' for Active; 'I' for Inactive)
REMARK    1  A    between atoms: C22_2  and  C31_3 
REMARK       I    between atoms: C22_2  and  N21_12 
REMARK    2  A    between atoms: C34_6  and  C41_9 
REMARK    3  A    between atoms: C41_9  and  C42_10 
REMARK    4  A    between atoms: C41_9  and  N43_11 
REMARK    5  A    between atoms: N21_12  and  C14_13 
ROOT
ATOM      1  C31 Y27 d           8.511   9.360   3.732  0.00  0.00     0.024 C 
ATOM      2  C36 Y27 d           7.839  10.233   4.796  0.00  0.00    -0.053 C 
ATOM      3  C35 Y27 d           6.409   9.746   5.049  0.00  0.00    -0.059 C 
ATOM      4  C34 Y27 d           5.616  10.005   3.762  0.00  0.00    -0.027 C 
ATOM      5  C33 Y27 d           6.196   9.136   2.614  0.00  0.00    -0.059 C 
ATOM      6  C32 Y27 d           7.731   9.379   2.402  0.00  0.00    -0.053 C 
ATOM      7  H1  Y27 d           8.499   8.322   4.095  0.00  0.00     0.054 H 
ATOM      8  H2  Y27 d           7.812  11.276   4.447  0.00  0.00     0.034 H 
ATOM      9  H3  Y27 d           8.414  10.175   5.731  0.00  0.00     0.034 H 
ATOM     10  H4  Y27 d           5.963  10.301   5.886  0.00  0.00     0.033 H 
ATOM     11  H5  Y27 d           6.412   8.671   5.281  0.00  0.00     0.033 H 
ATOM     12  H6  Y27 d           5.766  11.055   3.473  0.00  0.00     0.043 H 
ATOM     13  H7  Y27 d           5.666   9.382   1.682  0.00  0.00     0.033 H 
ATOM     14  H8  Y27 d           6.036   8.075   2.858  0.00  0.00     0.033 H 
ATOM     15  H9  Y27 d           8.129   8.590   1.746  0.00  0.00     0.034 H 
ATOM     16  H10 Y27 d           7.873  10.360   1.923  0.00  0.00     0.034 H 
ENDROOT
BRANCH   1  17
ATOM     17  C22 Y27 d           9.954   9.769   3.583  0.00  0.00     0.226 C 
ATOM     18  O23 Y27 d          10.654  10.143   4.529  0.00  0.00    -0.273 OA
ATOM     19  N21 Y27 d          10.444   9.657   2.252  0.00  0.00    -0.327 N 
ATOM     20  H18 Y27 d           9.758   9.595   1.527  0.00  0.00     0.169 HD
BRANCH  19  21
ATOM     21  C14 Y27 d          11.825   9.624   1.835  0.00  0.00     0.037 A 
ATOM     22  C15 Y27 d          12.546   8.479   2.212  0.00  0.00    -0.040 A 
ATOM     23  C16 Y27 d          13.889   8.445   1.829  0.00  0.00     0.004 A 
ATOM     24  H19 Y27 d          12.087   7.669   2.768  0.00  0.00     0.089 H 
ATOM     25  N11 Y27 d          14.461   9.443   1.124  0.00  0.00    -0.273 NA
ATOM     26  H20 Y27 d          14.491   7.587   2.106  0.00  0.00     0.114 H 
ATOM     27  C12 Y27 d          13.784  10.544   0.758  0.00  0.00     0.004 A 
ATOM     28  C13 Y27 d          12.447  10.675   1.102  0.00  0.00    -0.040 A 
ATOM     29  H21 Y27 d          14.282  11.326   0.197  0.00  0.00     0.114 H 
ATOM     30  H22 Y27 d          11.887  11.559   0.819  0.00  0.00     0.089 H 
ENDBRANCH  19  21
ENDBRANCH   1  17
BRANCH   4  31
ATOM     31  C41 Y27 d           4.094   9.827   4.050  0.00  0.00     0.100 C 
ATOM     32  H11 Y27 d           3.599  10.796   3.891  0.00  0.00     0.083 H 
BRANCH  31  33
ATOM     33  C42 Y27 d           3.478   8.794   3.089  0.00  0.00    -0.049 C 
ATOM     34  H12 Y27 d           2.885   9.314   2.322  0.00  0.00     0.030 H 
ATOM     35  H13 Y27 d           2.827   8.110   3.654  0.00  0.00     0.030 H 
ATOM     36  H14 Y27 d           4.281   8.219   2.604  0.00  0.00     0.030 H 
ENDBRANCH  31  33
BRANCH  31  37
ATOM     37  N43 Y27 d           3.846   9.391   5.471  0.00  0.00    -0.075 N 
ATOM     38  H15 Y27 d           4.448   9.910   6.092  0.00  0.00     0.274 HD
ATOM     39  H16 Y27 d           4.040   8.406   5.559  0.00  0.00     0.274 HD
ATOM     40  H17 Y27 d           2.883   9.567   5.713  0.00  0.00     0.274 HD
ENDBRANCH  31  37
ENDBRANCH   4  31
TORSDOF 5
ENDMDL
MODEL 3
REMARK VINA RESULT:      -7.4      1.896      7.673
REMARK  5 active torsions:
REMARK  status: ('A' for Active; 'I' for Inactive)
REMARK    1  A    between atoms: C22_2  and  C31_3 
REMARK       I    between atoms: C22_2  and  N21_12 
REMARK    2  A    between atoms: C34_6  and  C41_9 
REMARK    3  A    between atoms: C41_9  and  C42_10 
REMARK    4  A    between atoms: C41_9  and  N43_11 
REMARK    5  A    between atoms: N21_12  and  C14_13 
ROOT
ATOM      1  C31 Y27 d           9.638   9.539   2.592  0.00  0.00     0.024 C 
ATOM      2  C36 Y27 d           9.962   8.089   2.964  0.00  0.00    -0.053 C 
ATOM      3  C35 Y27 d          11.456   7.947   3.270  0.00  0.00    -0.059 C 
ATOM      4  C34 Y27 d          12.206   8.198   1.956  0.00  0.00    -0.027 C 
ATOM      5  C33 Y27 d          11.972   9.663   1.500  0.00  0.00    -0.059 C 
ATOM      6  C32 Y27 d          10.448  10.009   1.367  0.00  0.00    -0.053 C 
ATOM      7  H1  Y27 d           9.937  10.175   3.438  0.00  0.00     0.054 H 
ATOM      8  H2  Y27 d           9.698   7.430   2.124  0.00  0.00     0.034 H 
ATOM      9  H3  Y27 d           9.380   7.802   3.852  0.00  0.00     0.034 H 
ATOM     10  H4  Y27 d          11.672   6.934   3.641  0.00  0.00     0.033 H 
ATOM     11  H5  Y27 d          11.759   8.686   4.026  0.00  0.00     0.033 H 
ATOM     12  H6  Y27 d          11.768   7.550   1.183  0.00  0.00     0.043 H 
ATOM     13  H7  Y27 d          12.455   9.811   0.523  0.00  0.00     0.033 H 
ATOM     14  H8  Y27 d          12.425  10.340   2.240  0.00  0.00     0.033 H 
ATOM     15  H9  Y27 d          10.338  11.099   1.267  0.00  0.00     0.034 H 
ATOM     16  H10 Y27 d          10.049   9.516   0.468  0.00  0.00     0.034 H 
ENDROOT
BRANCH   1  17
ATOM     17  C22 Y27 d           8.148   9.692   2.417  0.00  0.00     0.226 C 
ATOM     18  O23 Y27 d           7.586   9.640   1.320  0.00  0.00    -0.273 OA
ATOM     19  N21 Y27 d           7.446   9.873   3.641  0.00  0.00    -0.327 N 
ATOM     20  H18 Y27 d           7.991  10.151   4.432  0.00  0.00     0.169 HD
BRANCH  19  21
ATOM     21  C14 Y27 d           6.031   9.698   3.864  0.00  0.00     0.037 A 
ATOM     22  C15 Y27 d           5.545  10.177   5.091  0.00  0.00    -0.040 A 
ATOM     23  C16 Y27 d           4.180   9.996   5.324  0.00  0.00     0.004 A 
ATOM     24  H19 Y27 d           6.192  10.659   5.816  0.00  0.00     0.089 H 
ATOM     25  N11 Y27 d           3.367   9.410   4.420  0.00  0.00    -0.273 NA
ATOM     26  H20 Y27 d           3.759  10.339   6.263  0.00  0.00     0.114 H 
ATOM     27  C12 Y27 d           3.818   8.946   3.244  0.00  0.00     0.004 A 
ATOM     28  C13 Y27 d           5.163   9.070   2.925  0.00  0.00    -0.040 A 
ATOM     29  H21 Y27 d           3.134   8.477   2.546  0.00  0.00     0.114 H 
ATOM     30  H22 Y27 d           5.544   8.697   1.981  0.00  0.00     0.089 H 
ENDBRANCH  19  21
ENDBRANCH   1  17
BRANCH   4  31
ATOM     31  C41 Y27 d          13.694   7.764   2.121  0.00  0.00     0.100 C 
ATOM     32  H11 Y27 d          14.300   8.668   2.277  0.00  0.00     0.083 H 
BRANCH  31  33
ATOM     33  C42 Y27 d          13.858   6.842   3.344  0.00  0.00    -0.049 C 
ATOM     34  H12 Y27 d          14.577   7.290   4.046  0.00  0.00     0.030 H 
ATOM     35  H13 Y27 d          14.228   5.860   3.016  0.00  0.00     0.030 H 
ATOM     36  H14 Y27 d          12.885   6.720   3.843  0.00  0.00     0.030 H 
ENDBRANCH  31  33
BRANCH  31  37
ATOM     37  N43 Y27 d          14.203   7.053   0.894  0.00  0.00    -0.075 N 
ATOM     38  H15 Y27 d          14.491   6.118   1.142  0.00  0.00     0.274 HD
ATOM     39  H16 Y27 d          14.990   7.557   0.516  0.00  0.00     0.274 HD
ATOM     40  H17 Y27 d          13.471   7.006   0.203  0.00  0.00     0.274 HD
ENDBRANCH  31  37
ENDBRANCH   4  31
TORSDOF 5
ENDMDL
MODEL 4
REMARK VINA RESULT:      -7.3      1.915      7.604
REMARK  5 active torsions:
REMARK  status: ('A' for Active; 'I' for Inactive)
REMARK    1  A    between atoms: C22_2  and  C31_3 
REMARK       I    between atoms: C22_2  and  N21_12 
REMARK    2  A    between atoms: C34_6  and  C41_9 
REMARK    3  A    between atoms: C41_9  and  C42_10 
REMARK    4  A    between atoms: C41_9  and  N43_11 
REMARK    5  A    between atoms: N21_12  and  C14_13 
ROOT
ATOM      1  C31 Y27 d           9.801   9.348   3.434  0.00  0.00     0.024 C 
ATOM      2  C36 Y27 d          10.909   8.417   3.933  0.00  0.00    -0.053 C 
ATOM      3  C35 Y27 d          12.282   8.991   3.568  0.00  0.00    -0.059 C 
ATOM      4  C34 Y27 d          12.388   8.953   2.039  0.00  0.00    -0.027 C 
ATOM      5  C33 Y27 d          11.322   9.898   1.423  0.00  0.00    -0.059 C 
ATOM      6  C32 Y27 d           9.870   9.551   1.907  0.00  0.00    -0.053 C 
ATOM      7  H1  Y27 d           9.959  10.334   3.895  0.00  0.00     0.054 H 
ATOM      8  H2  Y27 d          10.792   7.428   3.465  0.00  0.00     0.034 H 
ATOM      9  H3  Y27 d          10.835   8.316   5.026  0.00  0.00     0.034 H 
ATOM     10  H4  Y27 d          13.078   8.381   4.018  0.00  0.00     0.033 H 
ATOM     11  H5  Y27 d          12.365  10.027   3.928  0.00  0.00     0.033 H 
ATOM     12  H6  Y27 d          12.143   7.935   1.704  0.00  0.00     0.043 H 
ATOM     13  H7  Y27 d          11.361   9.809   0.327  0.00  0.00     0.033 H 
ATOM     14  H8  Y27 d          11.555  10.933   1.716  0.00  0.00     0.033 H 
ATOM     15  H9  Y27 d           9.197  10.375   1.627  0.00  0.00     0.034 H 
ATOM     16  H10 Y27 d           9.542   8.625   1.411  0.00  0.00     0.034 H 
ENDROOT
BRANCH   1  17
ATOM     17  C22 Y27 d           8.463   8.838   3.907  0.00  0.00     0.226 C 
ATOM     18  O23 Y27 d           8.338   7.946   4.751  0.00  0.00    -0.273 OA
ATOM     19  N21 Y27 d           7.356   9.501   3.309  0.00  0.00    -0.327 N 
ATOM     20  H18 Y27 d           7.542  10.016   2.472  0.00  0.00     0.169 HD
BRANCH  19  21
ATOM     21  C14 Y27 d           5.993   9.512   3.780  0.00  0.00     0.037 A 
ATOM     22  C15 Y27 d           5.051   8.907   2.931  0.00  0.00    -0.040 A 
ATOM     23  C16 Y27 d           3.725   8.928   3.371  0.00  0.00     0.004 A 
ATOM     24  H19 Y27 d           5.336   8.451   1.990  0.00  0.00     0.089 H 
ATOM     25  N11 Y27 d           3.366   9.481   4.549  0.00  0.00    -0.273 NA
ATOM     26  H20 Y27 d           2.959   8.484   2.745  0.00  0.00     0.114 H 
ATOM     27  C12 Y27 d           4.255  10.063   5.369  0.00  0.00     0.004 A 
ATOM     28  C13 Y27 d           5.596  10.102   5.015  0.00  0.00    -0.040 A 
ATOM     29  H21 Y27 d           3.926  10.500   6.304  0.00  0.00     0.114 H 
ATOM     30  H22 Y27 d           6.326  10.572   5.664  0.00  0.00     0.089 H 
ENDBRANCH  19  21
ENDBRANCH   1  17
BRANCH   4  31
ATOM     31  C41 Y27 d          13.865   9.225   1.619  0.00  0.00     0.100 C 
ATOM     32  H11 Y27 d          14.340   9.829   2.405  0.00  0.00     0.083 H 
BRANCH  31  33
ATOM     33  C42 Y27 d          14.640   7.902   1.477  0.00  0.00    -0.049 C 
ATOM     34  H12 Y27 d          15.722   8.107   1.497  0.00  0.00     0.030 H 
ATOM     35  H13 Y27 d          14.375   7.422   0.524  0.00  0.00     0.030 H 
ATOM     36  H14 Y27 d          14.379   7.233   2.311  0.00  0.00     0.030 H 
ENDBRANCH  31  33
BRANCH  31  37
ATOM     37  N43 Y27 d          13.941   9.984   0.320  0.00  0.00    -0.075 N 
ATOM     38  H15 Y27 d          13.012  10.112  -0.050  0.00  0.00     0.274 HD
ATOM     39  H16 Y27 d          14.497   9.465  -0.341  0.00  0.00     0.274 HD
ATOM     40  H17 Y27 d          14.365  10.885   0.481  0.00  0.00     0.274 HD
ENDBRANCH  31  37
ENDBRANCH   4  31
TORSDOF 5
ENDMDL
MODEL 5
REMARK VINA RESULT:      -6.8      1.469      7.612
REMARK  5 active torsions:
REMARK  status: ('A' for Active; 'I' for Inactive)
REMARK    1  A    between atoms: C22_2  and  C31_3 
REMARK       I    between atoms: C22_2  and  N21_12 
REMARK    2  A    between atoms: C34_6  and  C41_9 
REMARK    3  A    between atoms: C41_9  and  C42_10 
REMARK    4  A    between atoms: C41_9  and  N43_11 
REMARK    5  A    between atoms: N21_12  and  C14_13 
ROOT
ATOM      1  C31 Y27 d          10.919   8.654   3.873  0.00  0.00     0.024 C 
ATOM      2  C36 Y27 d          11.129   8.596   2.357  0.00  0.00    -0.053 C 
ATOM      3  C35 Y27 d          12.318   7.689   2.026  0.00  0.00    -0.059 C 
ATOM      4  C34 Y27 d          13.571   8.380   2.576  0.00  0.00    -0.027 C 
ATOM      5  C33 Y27 d          13.480   8.463   4.123  0.00  0.00    -0.059 C 
ATOM      6  C32 Y27 d          12.170   9.181   4.603  0.00  0.00    -0.053 C 
ATOM      7  H1  Y27 d          10.750   7.627   4.227  0.00  0.00     0.054 H 
ATOM      8  H2  Y27 d          11.327   9.609   1.978  0.00  0.00     0.034 H 
ATOM      9  H3  Y27 d          10.222   8.197   1.879  0.00  0.00     0.034 H 
ATOM     10  H4  Y27 d          12.404   7.560   0.938  0.00  0.00     0.033 H 
ATOM     11  H5  Y27 d          12.188   6.706   2.503  0.00  0.00     0.033 H 
ATOM     12  H6  Y27 d          13.584   9.414   2.202  0.00  0.00     0.043 H 
ATOM     13  H7  Y27 d          14.349   9.022   4.500  0.00  0.00     0.033 H 
ATOM     14  H8  Y27 d          13.494   7.442   4.533  0.00  0.00     0.033 H 
ATOM     15  H9  Y27 d          12.049   9.013   5.684  0.00  0.00     0.034 H 
ATOM     16  H10 Y27 d          12.266  10.260   4.409  0.00  0.00     0.034 H 
ENDROOT
BRANCH   1  17
ATOM     17  C22 Y27 d           9.673   9.447   4.178  0.00  0.00     0.226 C 
ATOM     18  O23 Y27 d           9.672  10.667   4.361  0.00  0.00    -0.273 OA
ATOM     19  N21 Y27 d           8.489   8.657   4.208  0.00  0.00    -0.327 N 
ATOM     20  H18 Y27 d           8.613   7.669   4.302  0.00  0.00     0.169 HD
BRANCH  19  21
ATOM     21  C14 Y27 d           7.129   9.130   4.117  0.00  0.00     0.037 A 
ATOM     22  C15 Y27 d           6.527   9.011   2.853  0.00  0.00    -0.040 A 
ATOM     23  C16 Y27 d           5.216   9.482   2.751  0.00  0.00     0.004 A 
ATOM     24  H19 Y27 d           7.049   8.579   2.007  0.00  0.00     0.089 H 
ATOM     25  N11 Y27 d           4.555  10.007   3.804  0.00  0.00    -0.273 NA
ATOM     26  H20 Y27 d           4.712   9.424   1.793  0.00  0.00     0.114 H 
ATOM     27  C12 Y27 d           5.118  10.127   5.017  0.00  0.00     0.004 A 
ATOM     28  C13 Y27 d           6.422   9.697   5.217  0.00  0.00    -0.040 A 
ATOM     29  H21 Y27 d           4.556  10.559   5.837  0.00  0.00     0.114 H 
ATOM     30  H22 Y27 d           6.893   9.791   6.188  0.00  0.00     0.089 H 
ENDBRANCH  19  21
ENDBRANCH   1  17
BRANCH   4  31
ATOM     31  C41 Y27 d          14.840   7.676   2.005  0.00  0.00     0.100 C 
ATOM     32  H11 Y27 d          15.596   8.447   1.795  0.00  0.00     0.083 H 
BRANCH  31  33
ATOM     33  C42 Y27 d          15.418   6.685   3.031  0.00  0.00    -0.049 C 
ATOM     34  H12 Y27 d          16.237   6.113   2.568  0.00  0.00     0.030 H 
ATOM     35  H13 Y27 d          14.628   5.993   3.359  0.00  0.00     0.030 H 
ATOM     36  H14 Y27 d          15.805   7.239   3.899  0.00  0.00     0.030 H 
ENDBRANCH  31  33
BRANCH  31  37
ATOM     37  N43 Y27 d          14.538   6.942   0.724  0.00  0.00    -0.075 N 
ATOM     38  H15 Y27 d          13.643   6.484   0.802  0.00  0.00     0.274 HD
ATOM     39  H16 Y27 d          15.254   6.254   0.554  0.00  0.00     0.274 HD
ATOM     40  H17 Y27 d          14.514   7.598  -0.042  0.00  0.00     0.274 HD
ENDBRANCH  31  37
ENDBRANCH   4  31
TORSDOF 5
ENDMDL
MODEL 6
REMARK VINA RESULT:      -6.7      1.982      7.585
REMARK  5 active torsions:
REMARK  status: ('A' for Active; 'I' for Inactive)
REMARK    1  A    between atoms: C22_2  and  C31_3 
REMARK       I    between atoms: C22_2  and  N21_12 
REMARK    2  A    between atoms: C34_6  and  C41_9 
REMARK    3  A    between atoms: C41_9  and  C42_10 
REMARK    4  A    between atoms: C41_9  and  N43_11 
REMARK    5  A    between atoms: N21_12  and  C14_13 
ROOT
ATOM      1  C31 Y27 d           9.855   9.426   3.850  0.00  0.00     0.024 C 
ATOM      2  C36 Y27 d           9.734   9.286   2.329  0.00  0.00    -0.053 C 
ATOM      3  C35 Y27 d          11.070   8.829   1.736  0.00  0.00    -0.059 C 
ATOM      4  C34 Y27 d          12.069   9.973   1.954  0.00  0.00    -0.027 C 
ATOM      5  C33 Y27 d          12.294  10.180   3.475  0.00  0.00    -0.059 C 
ATOM      6  C32 Y27 d          10.951  10.435   4.246  0.00  0.00    -0.053 C 
ATOM      7  H1  Y27 d          10.159   8.448   4.252  0.00  0.00     0.054 H 
ATOM      8  H2  Y27 d           9.457  10.258   1.896  0.00  0.00     0.034 H 
ATOM      9  H3  Y27 d           8.958   8.544   2.092  0.00  0.00     0.034 H 
ATOM     10  H4  Y27 d          10.957   8.625   0.662  0.00  0.00     0.033 H 
ATOM     11  H5  Y27 d          11.420   7.920   2.248  0.00  0.00     0.033 H 
ATOM     12  H6  Y27 d          11.617  10.899   1.569  0.00  0.00     0.043 H 
ATOM     13  H7  Y27 d          12.956  11.047   3.620  0.00  0.00     0.033 H 
ATOM     14  H8  Y27 d          12.773   9.279   3.888  0.00  0.00     0.033 H 
ATOM     15  H9  Y27 d          11.140  10.348   5.326  0.00  0.00     0.034 H 
ATOM     16  H10 Y27 d          10.597  11.451   4.015  0.00  0.00     0.034 H 
ENDROOT
BRANCH   1  17
ATOM     17  C22 Y27 d           8.504   9.753   4.434  0.00  0.00     0.226 C 
ATOM     18  O23 Y27 d           8.324  10.643   5.269  0.00  0.00    -0.273 OA
ATOM     19  N21 Y27 d           7.448   8.956   3.909  0.00  0.00    -0.327 N 
ATOM     20  H18 Y27 d           7.715   8.113   3.442  0.00  0.00     0.169 HD
BRANCH  19  21
ATOM     21  C14 Y27 d           6.035   9.235   3.977  0.00  0.00     0.037 A 
ATOM     22  C15 Y27 d           5.582   9.791   5.185  0.00  0.00    -0.040 A 
ATOM     23  C16 Y27 d           4.211  10.048   5.268  0.00  0.00     0.004 A 
ATOM     24  H19 Y27 d           6.257  10.007   6.006  0.00  0.00     0.089 H 
ATOM     25  N11 Y27 d           3.369   9.795   4.244  0.00  0.00    -0.273 NA
ATOM     26  H20 Y27 d           3.811  10.466   6.185  0.00  0.00     0.114 H 
ATOM     27  C12 Y27 d           3.787   9.263   3.085  0.00  0.00     0.004 A 
ATOM     28  C13 Y27 d           5.130   8.962   2.910  0.00  0.00    -0.040 A 
ATOM     29  H21 Y27 d           3.078   9.070   2.288  0.00  0.00     0.114 H 
ATOM     30  H22 Y27 d           5.484   8.528   1.982  0.00  0.00     0.089 H 
ENDBRANCH  19  21
ENDBRANCH   1  17
BRANCH   4  31
ATOM     31  C41 Y27 d          13.349   9.707   1.104  0.00  0.00     0.100 C 
ATOM     32  H11 Y27 d          13.135   8.883   0.408  0.00  0.00     0.083 H 
BRANCH  31  33
ATOM     33  C42 Y27 d          13.727  10.957   0.288  0.00  0.00    -0.049 C 
ATOM     34  H12 Y27 d          13.408  10.824  -0.756  0.00  0.00     0.030 H 
ATOM     35  H13 Y27 d          14.817  11.102   0.322  0.00  0.00     0.030 H 
ATOM     36  H14 Y27 d          13.226  11.839   0.715  0.00  0.00     0.030 H 
ENDBRANCH  31  33
BRANCH  31  37
ATOM     37  N43 Y27 d          14.516   9.309   1.970  0.00  0.00    -0.075 N 
ATOM     38  H15 Y27 d          14.533   9.887   2.797  0.00  0.00     0.274 HD
ATOM     39  H16 Y27 d          15.374   9.434   1.455  0.00  0.00     0.274 HD
ATOM     40  H17 Y27 d          14.423   8.342   2.237  0.00  0.00     0.274 HD
ENDBRANCH  31  37
ENDBRANCH   4  31
TORSDOF 5
ENDMDL
MODEL 7
REMARK VINA RESULT:      -6.7      1.421      2.069
REMARK  5 active torsions:
REMARK  status: ('A' for Active; 'I' for Inactive)
REMARK    1  A    between atoms: C22_2  and  C31_3 
REMARK       I    between atoms: C22_2  and  N21_12 
REMARK    2  A    between atoms: C34_6  and  C41_9 
REMARK    3  A    between atoms: C41_9  and  C42_10 
REMARK    4  A    between atoms: C41_9  and  N43_11 
REMARK    5  A    between atoms: N21_12  and  C14_13 
ROOT
ATOM      1  C31 Y27 d           9.971  10.096   3.804  0.00  0.00     0.024 C 
ATOM      2  C36 Y27 d           9.208   9.283   2.754  0.00  0.00    -0.053 C 
ATOM      3  C35 Y27 d           7.798   9.854   2.571  0.00  0.00    -0.059 C 
ATOM      4  C34 Y27 d           7.046   9.612   3.885  0.00  0.00    -0.027 C 
ATOM      5  C33 Y27 d           7.720  10.423   5.023  0.00  0.00    -0.059 C 
ATOM      6  C32 Y27 d           9.247  10.091   5.166  0.00  0.00    -0.053 C 
ATOM      7  H1  Y27 d          10.002  11.140   3.461  0.00  0.00     0.054 H 
ATOM      8  H2  Y27 d           9.137   8.237   3.084  0.00  0.00     0.034 H 
ATOM      9  H3  Y27 d           9.746   9.330   1.796  0.00  0.00     0.034 H 
ATOM     10  H4  Y27 d           7.287   9.342   1.743  0.00  0.00     0.033 H 
ATOM     11  H5  Y27 d           7.851  10.932   2.359  0.00  0.00     0.033 H 
ATOM     12  H6  Y27 d           7.148   8.549   4.148  0.00  0.00     0.043 H 
ATOM     13  H7  Y27 d           7.217  10.188   5.973  0.00  0.00     0.033 H 
ATOM     14  H8  Y27 d           7.610  11.497   4.806  0.00  0.00     0.033 H 
ATOM     15  H9  Y27 d           9.715  10.844   5.819  0.00  0.00     0.034 H 
ATOM     16  H10 Y27 d           9.353   9.095   5.620  0.00  0.00     0.034 H 
ENDROOT
BRANCH   1  17
ATOM     17  C22 Y27 d          11.394   9.604   3.884  0.00  0.00     0.226 C 
ATOM     18  O23 Y27 d          11.975   9.379   4.949  0.00  0.00    -0.273 OA
ATOM     19  N21 Y27 d          11.997   9.397   2.612  0.00  0.00    -0.327 N 
ATOM     20  H18 Y27 d          11.554   9.837   1.830  0.00  0.00     0.169 HD
BRANCH  19  21
ATOM     21  C14 Y27 d          13.179   8.619   2.328  0.00  0.00     0.037 A 
ATOM     22  C15 Y27 d          14.072   9.185   1.403  0.00  0.00    -0.040 A 
ATOM     23  C16 Y27 d          15.210   8.432   1.108  0.00  0.00     0.004 A 
ATOM     24  H19 Y27 d          13.888  10.150   0.945  0.00  0.00     0.089 H 
ATOM     25  N11 Y27 d          15.452   7.237   1.687  0.00  0.00    -0.273 NA
ATOM     26  H20 Y27 d          15.924   8.820   0.391  0.00  0.00     0.114 H 
ATOM     27  C12 Y27 d          14.607   6.684   2.572  0.00  0.00     0.004 A 
ATOM     28  C13 Y27 d          13.442   7.351   2.921  0.00  0.00    -0.040 A 
ATOM     29  H21 Y27 d          14.834   5.719   3.010  0.00  0.00     0.114 H 
ATOM     30  H22 Y27 d          12.747   6.916   3.630  0.00  0.00     0.089 H 
ENDBRANCH  19  21
ENDBRANCH   1  17
BRANCH   4  31
ATOM     31  C41 Y27 d           5.526   9.880   3.665  0.00  0.00     0.100 C 
ATOM     32  H11 Y27 d           5.417  10.850   3.158  0.00  0.00     0.083 H 
BRANCH  31  33
ATOM     33  C42 Y27 d           4.906   8.786   2.776  0.00  0.00    -0.049 C 
ATOM     34  H12 Y27 d           4.427   8.025   3.410  0.00  0.00     0.030 H 
ATOM     35  H13 Y27 d           5.694   8.315   2.170  0.00  0.00     0.030 H 
ATOM     36  H14 Y27 d           4.153   9.237   2.112  0.00  0.00     0.030 H 
ENDBRANCH  31  33
BRANCH  31  37
ATOM     37  N43 Y27 d           4.778   9.937   4.972  0.00  0.00    -0.075 N 
ATOM     38  H15 Y27 d           5.134   9.229   5.595  0.00  0.00     0.274 HD
ATOM     39  H16 Y27 d           3.797   9.775   4.805  0.00  0.00     0.274 HD
ATOM     40  H17 Y27 d           4.901  10.846   5.390  0.00  0.00     0.274 HD
ENDBRANCH  31  37
ENDBRANCH   4  31
TORSDOF 5
ENDMDL
MODEL 8
REMARK VINA RESULT:      -6.6      1.979      2.360
REMARK  5 active torsions:
REMARK  status: ('A' for Active; 'I' for Inactive)
REMARK    1  A    between atoms: C22_2  and  C31_3 
REMARK       I    between atoms: C22_2  and  N21_12 
REMARK    2  A    between atoms: C34_6  and  C41_9 
REMARK    3  A    between atoms: C41_9  and  C42_10 
REMARK    4  A    between atoms: C41_9  and  N43_11 
REMARK    5  A    between atoms: N21_12  and  C14_13 
ROOT
ATOM      1  C31 Y27 d           8.229   9.036   1.795  0.00  0.00     0.024 C 
ATOM      2  C36 Y27 d           8.335   9.610   3.211  0.00  0.00    -0.053 C 
ATOM      3  C35 Y27 d           7.041   9.339   3.985  0.00  0.00    -0.059 C 
ATOM      4  C34 Y27 d           5.936  10.156   3.306  0.00  0.00    -0.027 C 
ATOM      5  C33 Y27 d           5.719   9.632   1.862  0.00  0.00    -0.059 C 
ATOM      6  C32 Y27 d           7.043   9.645   1.020  0.00  0.00    -0.053 C 
ATOM      7  H1  Y27 d           8.034   7.958   1.885  0.00  0.00     0.054 H 
ATOM      8  H2  Y27 d           8.504  10.695   3.152  0.00  0.00     0.034 H 
ATOM      9  H3  Y27 d           9.178   9.135   3.734  0.00  0.00     0.034 H 
ATOM     10  H4  Y27 d           7.155   9.653   5.033  0.00  0.00     0.033 H 
ATOM     11  H5  Y27 d           6.796   8.267   3.948  0.00  0.00     0.033 H 
ATOM     12  H6  Y27 d           6.284  11.196   3.219  0.00  0.00     0.043 H 
ATOM     13  H7  Y27 d           4.976  10.270   1.361  0.00  0.00     0.033 H 
ATOM     14  H8  Y27 d           5.342   8.599   1.913  0.00  0.00     0.033 H 
ATOM     15  H9  Y27 d           6.884   9.062   0.100  0.00  0.00     0.034 H 
ATOM     16  H10 Y27 d           7.288  10.685   0.757  0.00  0.00     0.034 H 
ENDROOT
BRANCH   1  17
ATOM     17  C22 Y27 d           9.550   9.198   1.087  0.00  0.00     0.226 C 
ATOM     18  O23 Y27 d           9.665   9.727  -0.022  0.00  0.00    -0.273 OA
ATOM     19  N21 Y27 d          10.659   8.708   1.831  0.00  0.00    -0.327 N 
ATOM     20  H18 Y27 d          10.451   8.082   2.583  0.00  0.00     0.169 HD
BRANCH  19  21
ATOM     21  C14 Y27 d          12.052   9.017   1.618  0.00  0.00     0.037 A 
ATOM     22  C15 Y27 d          12.318  10.288   1.081  0.00  0.00    -0.040 A 
ATOM     23  C16 Y27 d          13.663  10.590   0.855  0.00  0.00     0.004 A 
ATOM     24  H19 Y27 d          11.525  10.992   0.856  0.00  0.00     0.089 H 
ATOM     25  N11 Y27 d          14.654   9.723   1.147  0.00  0.00    -0.273 NA
ATOM     26  H20 Y27 d          13.918  11.554   0.430  0.00  0.00     0.114 H 
ATOM     27  C12 Y27 d          14.415   8.505   1.660  0.00  0.00     0.004 A 
ATOM     28  C13 Y27 d          13.110   8.108   1.910  0.00  0.00    -0.040 A 
ATOM     29  H21 Y27 d          15.239   7.835   1.876  0.00  0.00     0.114 H 
ATOM     30  H22 Y27 d          12.899   7.127   2.320  0.00  0.00     0.089 H 
ENDBRANCH  19  21
ENDBRANCH   1  17
BRANCH   4  31
ATOM     31  C41 Y27 d           4.674  10.176   4.221  0.00  0.00     0.100 C 
ATOM     32  H11 Y27 d           4.168  11.144   4.088  0.00  0.00     0.083 H 
BRANCH  31  33
ATOM     33  C42 Y27 d           3.700   9.052   3.826  0.00  0.00    -0.049 C 
ATOM     34  H12 Y27 d           3.347   9.217   2.796  0.00  0.00     0.030 H 
ATOM     35  H13 Y27 d           2.840   9.052   4.512  0.00  0.00     0.030 H 
ATOM     36  H14 Y27 d           4.216   8.082   3.884  0.00  0.00     0.030 H 
ENDBRANCH  31  33
BRANCH  31  37
ATOM     37  N43 Y27 d           5.040  10.025   5.675  0.00  0.00    -0.075 N 
ATOM     38  H15 Y27 d           5.942  10.445   5.839  0.00  0.00     0.274 HD
ATOM     39  H16 Y27 d           5.076   9.046   5.912  0.00  0.00     0.274 HD
ATOM     40  H17 Y27 d           4.347  10.484   6.246  0.00  0.00     0.274 HD
ENDBRANCH  31  37
ENDBRANCH   4  31
TORSDOF 5
ENDMDL
MODEL 9
REMARK VINA RESULT:      -6.4      1.808      7.700
REMARK  5 active torsions:
REMARK  status: ('A' for Active; 'I' for Inactive)
REMARK    1  A    between atoms: C22_2  and  C31_3 
REMARK       I    between atoms: C22_2  and  N21_12 
REMARK    2  A    between atoms: C34_6  and  C41_9 
REMARK    3  A    between atoms: C41_9  and  C42_10 
REMARK    4  A    between atoms: C41_9  and  N43_11 
REMARK    5  A    between atoms: N21_12  and  C14_13 
ROOT
ATOM      1  C31 Y27 d          10.964   8.209   4.112  0.00  0.00     0.024 C 
ATOM      2  C36 Y27 d          11.974   7.393   3.300  0.00  0.00    -0.053 C 
ATOM      3  C35 Y27 d          13.184   7.040   4.170  0.00  0.00    -0.059 C 
ATOM      4  C34 Y27 d          13.901   8.357   4.491  0.00  0.00    -0.027 C 
ATOM      5  C33 Y27 d          12.972   9.256   5.349  0.00  0.00    -0.059 C 
ATOM      6  C32 Y27 d          11.586   9.510   4.657  0.00  0.00    -0.053 C 
ATOM      7  H1  Y27 d          10.669   7.605   4.982  0.00  0.00     0.054 H 
ATOM      8  H2  Y27 d          12.308   7.984   2.435  0.00  0.00     0.034 H 
ATOM      9  H3  Y27 d          11.497   6.467   2.948  0.00  0.00     0.034 H 
ATOM     10  H4  Y27 d          13.859   6.366   3.624  0.00  0.00     0.033 H 
ATOM     11  H5  Y27 d          12.853   6.554   5.099  0.00  0.00     0.033 H 
ATOM     12  H6  Y27 d          14.077   8.891   3.546  0.00  0.00     0.043 H 
ATOM     13  H7  Y27 d          13.468  10.224   5.513  0.00  0.00     0.033 H 
ATOM     14  H8  Y27 d          12.798   8.764   6.317  0.00  0.00     0.033 H 
ATOM     15  H9  Y27 d          10.898   9.952   5.392  0.00  0.00     0.034 H 
ATOM     16  H10 Y27 d          11.730  10.211   3.821  0.00  0.00     0.034 H 
ENDROOT
BRANCH   1  17
ATOM     17  C22 Y27 d           9.725   8.442   3.284  0.00  0.00     0.226 C 
ATOM     18  O23 Y27 d           9.497   7.854   2.223  0.00  0.00    -0.273 OA
ATOM     19  N21 Y27 d           8.827   9.385   3.857  0.00  0.00    -0.327 N 
ATOM     20  H18 Y27 d           9.200   9.985   4.565  0.00  0.00     0.169 HD
BRANCH  19  21
ATOM     21  C14 Y27 d           7.435   9.569   3.525  0.00  0.00     0.037 A 
ATOM     22  C15 Y27 d           7.174  10.021   2.221  0.00  0.00    -0.040 A 
ATOM     23  C16 Y27 d           5.830  10.219   1.896  0.00  0.00     0.004 A 
ATOM     24  H19 Y27 d           7.970  10.206   1.508  0.00  0.00     0.089 H 
ATOM     25  N11 Y27 d           4.835   9.977   2.775  0.00  0.00    -0.273 NA
ATOM     26  H20 Y27 d           5.579  10.580   0.905  0.00  0.00     0.114 H 
ATOM     27  C12 Y27 d           5.069   9.546   4.024  0.00  0.00     0.004 A 
ATOM     28  C13 Y27 d           6.373   9.329   4.445  0.00  0.00    -0.040 A 
ATOM     29  H21 Y27 d           4.242   9.367   4.701  0.00  0.00     0.114 H 
ATOM     30  H22 Y27 d           6.580   8.985   5.452  0.00  0.00     0.089 H 
ENDBRANCH  19  21
ENDBRANCH   1  17
BRANCH   4  31
ATOM     31  C41 Y27 d          15.302   8.046   5.102  0.00  0.00     0.100 C 
ATOM     32  H11 Y27 d          15.151   7.516   6.054  0.00  0.00     0.083 H 
BRANCH  31  33
ATOM     33  C42 Y27 d          16.116   7.141   4.158  0.00  0.00    -0.049 C 
ATOM     34  H12 Y27 d          15.513   6.264   3.880  0.00  0.00     0.030 H 
ATOM     35  H13 Y27 d          17.032   6.809   4.668  0.00  0.00     0.030 H 
ATOM     36  H14 Y27 d          16.383   7.704   3.251  0.00  0.00     0.030 H 
ENDBRANCH  31  33
BRANCH  31  37
ATOM     37  N43 Y27 d          16.081   9.306   5.374  0.00  0.00    -0.075 N 
ATOM     38  H15 Y27 d          16.422   9.292   6.323  0.00  0.00     0.274 HD
ATOM     39  H16 Y27 d          15.483  10.106   5.243  0.00  0.00     0.274 HD
ATOM     40  H17 Y27 d          16.862   9.363   4.738  0.00  0.00     0.274 HD
ENDBRANCH  31  37
ENDBRANCH   4  31
TORSDOF 5
ENDMDL
