MODEL 1
REMARK VINA RESULT:     -10.6      0.000      0.000
REMARK  8 active torsions:
REMARK  status: ('A' for Active; 'I' for Inactive)
REMARK    1  A    between atoms: C4_4  and  N17_5 
REMARK    2  A    between atoms: C10_8  and  C18_9 
REMARK    3  A    between atoms: C18_9  and  C19_10 
REMARK    4  A    between atoms: C19_10  and  N20_11 
REMARK    5  A    between atoms: N20_11  and  C21_12 
REMARK    6  A    between atoms: C21_12  and  C22_13 
REMARK    7  A    between atoms: C12_20  and  N14_21 
REMARK    8  A    between atoms: N14_21  and  C15_22 
ROOT
ATOM      1  C2  AFQ d          18.055  17.107  23.105  0.00  0.00     0.272 C 
ATOM      2  O16 AFQ d          19.173  17.415  23.477  0.00  0.00    -0.267 OA
ATOM      3  N3  AFQ d          16.996  16.925  23.939  0.00  0.00    -0.156 N 
ATOM      4  C4  AFQ d          15.815  16.499  23.399  0.00  0.00     0.679 C 
ATOM      5  N5  AFQ d          15.611  16.398  22.135  0.00  0.00    -0.190 N 
ATOM      6  C6  AFQ d          16.547  16.642  21.170  0.00  0.00     0.073 A 
ATOM      7  C10 AFQ d          16.219  16.523  19.800  0.00  0.00     0.004 A 
ATOM      8  C9  AFQ d          17.266  16.820  18.925  0.00  0.00     0.111 A 
ATOM      9  N11 AFQ d          17.367  16.911  17.577  0.00  0.00    -0.062 NA
ATOM     10  C12 AFQ d          18.555  17.209  17.215  0.00  0.00     0.701 A 
ATOM     11  N13 AFQ d          19.352  17.400  18.285  0.00  0.00    -0.188 N 
ATOM     12  C8  AFQ d          18.507  17.172  19.387  0.00  0.00     0.080 A 
ATOM     13  C7  AFQ d          18.878  17.279  20.726  0.00  0.00    -0.037 A 
ATOM     14  C1  AFQ d          17.837  16.976  21.618  0.00  0.00     0.062 A 
ATOM     15  H1  AFQ d          17.079  17.099  24.919  0.00  0.00     0.187 HD
ATOM     16  H4  AFQ d          14.672  16.111  21.825  0.00  0.00     0.184 HD
ATOM     17  H26 AFQ d          20.350  17.655  18.294  0.00  0.00     0.184 HD
ATOM     18  H27 AFQ d          19.872  17.569  21.047  0.00  0.00     0.088 H 
ENDROOT
BRANCH   7  19
ATOM     19  C18 AFQ d          14.939  15.937  19.233  0.00  0.00    -0.014 C 
ATOM     20  H5  AFQ d          14.678  16.502  18.326  0.00  0.00     0.042 H 
ATOM     21  H6  AFQ d          14.145  16.062  19.984  0.00  0.00     0.042 H 
BRANCH  19  22
ATOM     22  C19 AFQ d          15.012  14.417  18.852  0.00  0.00     0.085 C 
ATOM     23  H7  AFQ d          15.075  13.795  19.757  0.00  0.00     0.076 H 
ATOM     24  H8  AFQ d          15.884  14.220  18.211  0.00  0.00     0.076 H 
BRANCH  22  25
ATOM     25  N20 AFQ d          13.747  14.141  18.114  0.00  0.00    -0.074 N 
ATOM     26  H9  AFQ d          13.016  14.019  18.797  0.00  0.00     0.277 HD
ATOM     27  H10 AFQ d          13.875  13.284  17.601  0.00  0.00     0.277 HD
BRANCH  25  28
ATOM     28  C21 AFQ d          13.294  15.187  17.146  0.00  0.00     0.085 C 
ATOM     29  H11 AFQ d          13.627  14.923  16.131  0.00  0.00     0.076 H 
ATOM     30  H12 AFQ d          13.716  16.163  17.428  0.00  0.00     0.076 H 
BRANCH  28  31
ATOM     31  C22 AFQ d          11.738  15.254  17.189  0.00  0.00    -0.031 C 
ATOM     32  C26 AFQ d          11.189  15.634  18.576  0.00  0.00    -0.060 C 
ATOM     33  C25 AFQ d           9.782  14.989  18.621  0.00  0.00    -0.065 C 
ATOM     34  H14 AFQ d          11.120  16.727  18.682  0.00  0.00     0.033 H 
ATOM     35  H15 AFQ d          11.830  15.228  19.372  0.00  0.00     0.033 H 
ATOM     36  C24 AFQ d           9.939  13.643  17.837  0.00  0.00    -0.065 C 
ATOM     37  H16 AFQ d           9.041  15.638  18.134  0.00  0.00     0.033 H 
ATOM     38  H17 AFQ d           9.475  14.799  19.661  0.00  0.00     0.033 H 
ATOM     39  C23 AFQ d          11.117  13.873  16.872  0.00  0.00    -0.060 C 
ATOM     40  H18 AFQ d           9.020  13.413  17.276  0.00  0.00     0.033 H 
ATOM     41  H19 AFQ d          10.162  12.816  18.529  0.00  0.00     0.033 H 
ATOM     42  H20 AFQ d          11.871  13.085  17.011  0.00  0.00     0.033 H 
ATOM     43  H21 AFQ d          10.756  13.856  15.833  0.00  0.00     0.033 H 
ATOM     44  H13 AFQ d          11.402  15.994  16.447  0.00  0.00     0.042 H 
ENDBRANCH  28  31
ENDBRANCH  25  28
ENDBRANCH  22  25
ENDBRANCH  19  22
ENDBRANCH   7  19
BRANCH   4  45
ATOM     45  N17 AFQ d          14.801  16.243  24.267  0.00  0.00    -0.234 N 
ATOM     46  H2  AFQ d          14.992  16.180  25.278  0.00  0.00     0.174 HD
ATOM     47  H3  AFQ d          13.843  16.111  23.914  0.00  0.00     0.174 HD
ENDBRANCH   4  45
BRANCH  10  48
ATOM     48  N14 AFQ d          19.134  17.363  16.023  0.00  0.00    -0.229 N 
ATOM     49  H22 AFQ d          20.123  17.083  15.947  0.00  0.00     0.177 HD
BRANCH  48  50
ATOM     50  C15 AFQ d          18.510  17.885  14.824  0.00  0.00    -0.005 C 
ATOM     51  H23 AFQ d          17.780  17.155  14.443  0.00  0.00     0.057 H 
ATOM     52  H24 AFQ d          19.280  18.066  14.059  0.00  0.00     0.057 H 
ATOM     53  H25 AFQ d          17.998  18.828  15.058  0.00  0.00     0.057 H 
ENDBRANCH  48  50
ENDBRANCH  10  48
TORSDOF 8
ENDMDL
MODEL 2
REMARK VINA RESULT:      -8.2      1.698      2.457
REMARK  8 active torsions:
REMARK  status: ('A' for Active; 'I' for Inactive)
REMARK    1  A    between atoms: C4_4  and  N17_5 
REMARK    2  A    between atoms: C10_8  and  C18_9 
REMARK    3  A    between atoms: C18_9  and  C19_10 
REMARK    4  A    between atoms: C19_10  and  N20_11 
REMARK    5  A    between atoms: N20_11  and  C21_12 
REMARK    6  A    between atoms: C21_12  and  C22_13 
REMARK    7  A    between atoms: C12_20  and  N14_21 
REMARK    8  A    between atoms: N14_21  and  C15_22 
ROOT
ATOM      1  C2  AFQ d          18.594  17.098  20.520  0.00  0.00     0.272 C 
ATOM      2  O16 AFQ d          19.750  17.418  20.731  0.00  0.00    -0.267 OA
ATOM      3  N3  AFQ d          17.687  16.826  21.496  0.00  0.00    -0.156 N 
ATOM      4  C4  AFQ d          16.445  16.397  21.122  0.00  0.00     0.679 C 
ATOM      5  N5  AFQ d          16.042  16.374  19.901  0.00  0.00    -0.190 N 
ATOM      6  C6  AFQ d          16.806  16.713  18.820  0.00  0.00     0.073 A 
ATOM      7  C10 AFQ d          16.265  16.674  17.514  0.00  0.00     0.004 A 
ATOM      8  C9  AFQ d          17.150  17.063  16.508  0.00  0.00     0.111 A 
ATOM      9  N11 AFQ d          17.032  17.247  15.171  0.00  0.00    -0.062 NA
ATOM     10  C12 AFQ d          18.140  17.608  14.647  0.00  0.00     0.701 A 
ATOM     11  N13 AFQ d          19.093  17.755  15.588  0.00  0.00    -0.188 N 
ATOM     12  C8  AFQ d          18.441  17.425  16.791  0.00  0.00     0.080 A 
ATOM     13  C7  AFQ d          19.020  17.456  18.058  0.00  0.00    -0.037 A 
ATOM     14  C1  AFQ d          18.143  17.059  19.080  0.00  0.00     0.062 A 
ATOM     15  H1  AFQ d          17.922  16.937  22.461  0.00  0.00     0.187 HD
ATOM     16  H4  AFQ d          15.072  16.077  19.725  0.00  0.00     0.184 HD
ATOM     17  H26 AFQ d          20.073  18.041  15.456  0.00  0.00     0.184 HD
ATOM     18  H27 AFQ d          20.046  17.756  18.237  0.00  0.00     0.088 H 
ENDROOT
BRANCH   7  19
ATOM     19  C18 AFQ d          14.924  16.085  17.117  0.00  0.00    -0.014 C 
ATOM     20  H5  AFQ d          14.498  15.582  17.998  0.00  0.00     0.042 H 
ATOM     21  H6  AFQ d          15.099  15.345  16.322  0.00  0.00     0.042 H 
BRANCH  19  22
ATOM     22  C19 AFQ d          13.868  17.120  16.592  0.00  0.00     0.085 C 
ATOM     23  H7  AFQ d          13.808  17.088  15.495  0.00  0.00     0.076 H 
ATOM     24  H8  AFQ d          14.133  18.138  16.915  0.00  0.00     0.076 H 
BRANCH  22  25
ATOM     25  N20 AFQ d          12.576  16.697  17.201  0.00  0.00    -0.074 N 
ATOM     26  H9  AFQ d          12.102  16.110  16.533  0.00  0.00     0.277 HD
ATOM     27  H10 AFQ d          12.030  17.528  17.365  0.00  0.00     0.277 HD
BRANCH  25  28
ATOM     28  C21 AFQ d          12.655  15.943  18.490  0.00  0.00     0.085 C 
ATOM     29  H11 AFQ d          12.459  16.625  19.331  0.00  0.00     0.076 H 
ATOM     30  H12 AFQ d          13.657  15.503  18.602  0.00  0.00     0.076 H 
BRANCH  28  31
ATOM     31  C22 AFQ d          11.582  14.814  18.466  0.00  0.00    -0.031 C 
ATOM     32  C26 AFQ d          11.443  14.145  17.087  0.00  0.00    -0.060 C 
ATOM     33  C25 AFQ d           9.982  13.631  17.056  0.00  0.00    -0.065 C 
ATOM     34  H14 AFQ d          12.152  13.310  16.985  0.00  0.00     0.033 H 
ATOM     35  H15 AFQ d          11.617  14.873  16.281  0.00  0.00     0.033 H 
ATOM     36  C24 AFQ d           9.165  14.717  17.834  0.00  0.00    -0.065 C 
ATOM     37  H16 AFQ d           9.903  12.654  17.554  0.00  0.00     0.033 H 
ATOM     38  H17 AFQ d           9.623  13.543  16.019  0.00  0.00     0.033 H 
ATOM     39  C23 AFQ d          10.178  15.379  18.786  0.00  0.00    -0.060 C 
ATOM     40  H18 AFQ d           8.348  14.249  18.404  0.00  0.00     0.033 H 
ATOM     41  H19 AFQ d           8.747  15.459  17.137  0.00  0.00     0.033 H 
ATOM     42  H20 AFQ d          10.173  16.469  18.635  0.00  0.00     0.033 H 
ATOM     43  H21 AFQ d           9.913  15.152  19.828  0.00  0.00     0.033 H 
ATOM     44  H13 AFQ d          11.860  14.056  19.214  0.00  0.00     0.042 H 
ENDBRANCH  28  31
ENDBRANCH  25  28
ENDBRANCH  22  25
ENDBRANCH  19  22
ENDBRANCH   7  19
BRANCH   4  45
ATOM     45  N17 AFQ d          15.589  16.050  22.119  0.00  0.00    -0.234 N 
ATOM     46  H2  AFQ d          15.956  15.677  23.006  0.00  0.00     0.174 HD
ATOM     47  H3  AFQ d          14.573  16.159  21.987  0.00  0.00     0.174 HD
ENDBRANCH   4  45
BRANCH  10  48
ATOM     48  N14 AFQ d          18.516  17.860  13.392  0.00  0.00    -0.229 N 
ATOM     49  H22 AFQ d          17.787  17.791  12.667  0.00  0.00     0.177 HD
BRANCH  48  50
ATOM     50  C15 AFQ d          19.847  18.222  12.948  0.00  0.00    -0.005 C 
ATOM     51  H23 AFQ d          20.540  18.187  13.801  0.00  0.00     0.057 H 
ATOM     52  H24 AFQ d          19.830  19.240  12.531  0.00  0.00     0.057 H 
ATOM     53  H25 AFQ d          20.180  17.515  12.175  0.00  0.00     0.057 H 
ENDBRANCH  48  50
ENDBRANCH  10  48
TORSDOF 8
ENDMDL
MODEL 3
REMARK VINA RESULT:      -8.2      1.934      2.544
REMARK  8 active torsions:
REMARK  status: ('A' for Active; 'I' for Inactive)
REMARK    1  A    between atoms: C4_4  and  N17_5 
REMARK    2  A    between atoms: C10_8  and  C18_9 
REMARK    3  A    between atoms: C18_9  and  C19_10 
REMARK    4  A    between atoms: C19_10  and  N20_11 
REMARK    5  A    between atoms: N20_11  and  C21_12 
REMARK    6  A    between atoms: C21_12  and  C22_13 
REMARK    7  A    between atoms: C12_20  and  N14_21 
REMARK    8  A    between atoms: N14_21  and  C15_22 
ROOT
ATOM      1  C2  AFQ d          18.255  16.929  21.232  0.00  0.00     0.272 C 
ATOM      2  O16 AFQ d          19.450  17.164  21.215  0.00  0.00    -0.267 OA
ATOM      3  N3  AFQ d          17.518  16.811  22.369  0.00  0.00    -0.156 N 
ATOM      4  C4  AFQ d          16.202  16.462  22.251  0.00  0.00     0.679 C 
ATOM      5  N5  AFQ d          15.589  16.380  21.124  0.00  0.00    -0.190 N 
ATOM      6  C6  AFQ d          16.172  16.570  19.903  0.00  0.00     0.073 A 
ATOM      7  C10 AFQ d          15.408  16.478  18.716  0.00  0.00     0.004 A 
ATOM      8  C9  AFQ d          16.128  16.712  17.543  0.00  0.00     0.111 A 
ATOM      9  N11 AFQ d          15.790  16.803  16.235  0.00  0.00    -0.062 NA
ATOM     10  C12 AFQ d          16.810  17.026  15.501  0.00  0.00     0.701 A 
ATOM     11  N13 AFQ d          17.923  17.162  16.249  0.00  0.00    -0.188 N 
ATOM     12  C8  AFQ d          17.471  16.983  17.570  0.00  0.00     0.080 A 
ATOM     13  C7  AFQ d          18.265  17.060  18.712  0.00  0.00    -0.037 A 
ATOM     14  C1  AFQ d          17.556  16.819  19.900  0.00  0.00     0.062 A 
ATOM     15  H1  AFQ d          17.927  16.974  23.266  0.00  0.00     0.187 HD
ATOM     16  H4  AFQ d          14.585  16.155  21.142  0.00  0.00     0.184 HD
ATOM     17  H26 AFQ d          18.882  17.353  15.927  0.00  0.00     0.184 HD
ATOM     18  H27 AFQ d          19.326  17.284  18.686  0.00  0.00     0.088 H 
ENDROOT
BRANCH   7  19
ATOM     19  C18 AFQ d          13.980  15.976  18.607  0.00  0.00    -0.014 C 
ATOM     20  H5  AFQ d          13.397  16.727  18.055  0.00  0.00     0.042 H 
ATOM     21  H6  AFQ d          13.576  15.875  19.625  0.00  0.00     0.042 H 
BRANCH  19  22
ATOM     22  C19 AFQ d          13.810  14.598  17.878  0.00  0.00     0.085 C 
ATOM     23  H7  AFQ d          13.311  13.872  18.536  0.00  0.00     0.076 H 
ATOM     24  H8  AFQ d          14.789  14.201  17.570  0.00  0.00     0.076 H 
BRANCH  22  25
ATOM     25  N20 AFQ d          12.966  14.892  16.686  0.00  0.00    -0.074 N 
ATOM     26  H9  AFQ d          13.150  14.179  15.998  0.00  0.00     0.277 HD
ATOM     27  H10 AFQ d          13.251  15.789  16.324  0.00  0.00     0.277 HD
BRANCH  25  28
ATOM     28  C21 AFQ d          11.487  14.941  16.906  0.00  0.00     0.085 C 
ATOM     29  H11 AFQ d          11.272  14.941  17.984  0.00  0.00     0.076 H 
ATOM     30  H12 AFQ d          11.013  14.065  16.438  0.00  0.00     0.076 H 
BRANCH  28  31
ATOM     31  C22 AFQ d          10.937  16.247  16.258  0.00  0.00    -0.031 C 
ATOM     32  C26 AFQ d          10.399  16.032  14.832  0.00  0.00    -0.060 C 
ATOM     33  C25 AFQ d          10.572  17.409  14.145  0.00  0.00    -0.065 C 
ATOM     34  H14 AFQ d           9.339  15.739  14.857  0.00  0.00     0.033 H 
ATOM     35  H15 AFQ d          10.981  15.259  14.309  0.00  0.00     0.033 H 
ATOM     36  C24 AFQ d          11.904  17.982  14.738  0.00  0.00    -0.065 C 
ATOM     37  H16 AFQ d           9.726  18.071  14.381  0.00  0.00     0.033 H 
ATOM     38  H17 AFQ d          10.652  17.291  13.054  0.00  0.00     0.033 H 
ATOM     39  C23 AFQ d          12.057  17.305  16.113  0.00  0.00    -0.060 C 
ATOM     40  H18 AFQ d          11.838  19.074  14.851  0.00  0.00     0.033 H 
ATOM     41  H19 AFQ d          12.755  17.731  14.087  0.00  0.00     0.033 H 
ATOM     42  H20 AFQ d          13.041  16.817  16.180  0.00  0.00     0.033 H 
ATOM     43  H21 AFQ d          11.965  18.057  16.910  0.00  0.00     0.033 H 
ATOM     44  H13 AFQ d          10.133  16.639  16.898  0.00  0.00     0.042 H 
ENDBRANCH  28  31
ENDBRANCH  25  28
ENDBRANCH  22  25
ENDBRANCH  19  22
ENDBRANCH   7  19
BRANCH   4  45
ATOM     45  N17 AFQ d          15.513  16.266  23.406  0.00  0.00    -0.234 N 
ATOM     46  H2  AFQ d          15.194  15.321  23.662  0.00  0.00     0.174 HD
ATOM     47  H3  AFQ d          15.309  17.064  24.025  0.00  0.00     0.174 HD
ENDBRANCH   4  45
BRANCH  10  48
ATOM     48  N14 AFQ d          16.976  17.149  14.182  0.00  0.00    -0.229 N 
ATOM     49  H22 AFQ d          17.599  17.904  13.861  0.00  0.00     0.177 HD
BRANCH  48  50
ATOM     50  C15 AFQ d          16.367  16.326  13.157  0.00  0.00    -0.005 C 
ATOM     51  H23 AFQ d          16.737  16.637  12.169  0.00  0.00     0.057 H 
ATOM     52  H24 AFQ d          15.275  16.443  13.194  0.00  0.00     0.057 H 
ATOM     53  H25 AFQ d          16.628  15.272  13.330  0.00  0.00     0.057 H 
ENDBRANCH  48  50
ENDBRANCH  10  48
TORSDOF 8
ENDMDL
