MODEL 1
REMARK VINA RESULT:     -11.6      0.000      0.000
REMARK  7 active torsions:
REMARK  status: ('A' for Active; 'I' for Inactive)
REMARK    1  A    between atoms: C2_4  and  C8_8 
REMARK    2  A    between atoms: C4_6  and  C7_7 
REMARK    3  A    between atoms: C13_9  and  C14_10 
REMARK    4  A    between atoms: C16_16  and  C19_17 
REMARK    5  A    between atoms: C17_18  and  O20_19 
REMARK    6  A    between atoms: C48_24  and  C49_25 
REMARK    7  A    between atoms: C36_28  and  C38_29 
ROOT
ATOM      1  C8  GYN d           5.010  25.421  -8.127  0.00  0.00    -0.048 C 
ATOM      2  C13 GYN d           4.099  26.145  -7.446  0.00  0.00    -0.070 C 
ATOM      3  C12 GYN d           3.774  25.913  -5.985  0.00  0.00    -0.003 C 
ATOM      4  C27 GYN d           4.836  25.056  -5.279  0.00  0.00     0.011 C 
ATOM      5  C10 GYN d           5.146  23.852  -6.170  0.00  0.00    -0.049 C 
ATOM      6  C9  GYN d           5.669  24.190  -7.558  0.00  0.00    -0.041 C 
ATOM      7  C15 GYN d           3.609  27.256  -5.289  0.00  0.00    -0.090 C 
ATOM      8  C16 GYN d           2.464  27.754  -4.772  0.00  0.00    -0.059 C 
ATOM      9  C17 GYN d           2.529  29.118  -4.126  0.00  0.00     0.057 C 
ATOM     10  C18 GYN d           2.002  29.079  -2.697  0.00  0.00    -0.035 C 
ATOM     11  C21 GYN d           3.057  28.742  -1.659  0.00  0.00    -0.038 C 
ATOM     12  C43 GYN d           2.827  27.379  -1.022  0.00  0.00     0.040 C 
ATOM     13  C47 GYN d           3.498  27.213   0.337  0.00  0.00    -0.035 C 
ATOM     14  C48 GYN d           2.589  26.268   1.106  0.00  0.00    -0.026 C 
ATOM     15  O43 GYN d           1.456  27.019  -0.797  0.00  0.00    -0.376 OA
ATOM     16  C37 GYN d           1.453  25.930   0.149  0.00  0.00     0.063 C 
ATOM     17  C36 GYN d           1.670  24.584  -0.510  0.00  0.00    -0.059 C 
ATOM     18  C35 GYN d           2.150  24.537  -1.771  0.00  0.00    -0.098 C 
ATOM     19  C34 GYN d           2.439  23.295  -2.595  0.00  0.00    -0.045 C 
ATOM     20  C33 GYN d           2.931  23.688  -3.996  0.00  0.00    -0.025 C 
ATOM     21  C32 GYN d           4.259  24.445  -4.005  0.00  0.00     0.016 C 
ATOM     22  N31 GYN d           4.918  24.539  -2.923  0.00  0.00    -0.298 NA
ATOM     23  C30 GYN d           6.323  24.857  -2.709  0.00  0.00     0.015 C 
ATOM     24  C46 GYN d           6.588  26.072  -3.586  0.00  0.00    -0.047 C 
ATOM     25  C28 GYN d           6.115  25.890  -5.025  0.00  0.00    -0.051 C 
ATOM     26  H11 GYN d           2.817  25.374  -5.929  0.00  0.00     0.054 H 
ATOM     27  H12 GYN d           4.220  23.270  -6.289  0.00  0.00     0.035 H 
ATOM     28  H13 GYN d           5.904  23.238  -5.661  0.00  0.00     0.035 H 
ATOM     29  H14 GYN d           6.753  24.365  -7.495  0.00  0.00     0.039 H 
ATOM     30  H15 GYN d           5.473  23.341  -8.228  0.00  0.00     0.039 H 
ATOM     31  H16 GYN d           4.500  27.875  -5.199  0.00  0.00     0.078 H 
ATOM     32  H20 GYN d           3.571  29.473  -4.122  0.00  0.00     0.090 H 
ATOM     33  H22 GYN d           1.207  28.320  -2.642  0.00  0.00     0.037 H 
ATOM     34  H23 GYN d           1.583  30.067  -2.455  0.00  0.00     0.037 H 
ATOM     35  H24 GYN d           3.035  29.509  -0.871  0.00  0.00     0.036 H 
ATOM     36  H25 GYN d           4.044  28.743  -2.144  0.00  0.00     0.036 H 
ATOM     37  H26 GYN d           3.260  26.642  -1.713  0.00  0.00     0.083 H 
ATOM     38  H27 GYN d           3.576  28.182   0.852  0.00  0.00     0.037 H 
ATOM     39  H28 GYN d           4.502  26.778   0.223  0.00  0.00     0.037 H 
ATOM     40  H29 GYN d           3.134  25.357   1.395  0.00  0.00     0.043 H 
ATOM     41  H33 GYN d           0.495  25.905   0.689  0.00  0.00     0.091 H 
ATOM     42  H37 GYN d           2.351  25.494  -2.249  0.00  0.00     0.077 H 
ATOM     43  H38 GYN d           1.520  22.698  -2.687  0.00  0.00     0.039 H 
ATOM     44  H39 GYN d           3.215  22.699  -2.092  0.00  0.00     0.039 H 
ATOM     45  H40 GYN d           2.168  24.328  -4.463  0.00  0.00     0.042 H 
ATOM     46  H41 GYN d           3.054  22.770  -4.589  0.00  0.00     0.042 H 
ATOM     47  H42 GYN d           6.961  24.014  -3.012  0.00  0.00     0.067 H 
ATOM     48  H43 GYN d           6.508  25.096  -1.651  0.00  0.00     0.067 H 
ATOM     49  H44 GYN d           7.671  26.266  -3.595  0.00  0.00     0.035 H 
ATOM     50  H45 GYN d           6.064  26.937  -3.152  0.00  0.00     0.035 H 
ATOM     51  H46 GYN d           5.937  26.893  -5.439  0.00  0.00     0.034 H 
ATOM     52  H47 GYN d           6.934  25.406  -5.578  0.00  0.00     0.034 H 
ENDROOT
BRANCH   1  53
ATOM     53  C2  GYN d           5.441  25.857  -9.500  0.00  0.00     0.071 C 
ATOM     54  O1  GYN d           6.435  26.877  -9.383  0.00  0.00    -0.311 OA
ATOM     55  C5  GYN d           7.452  26.555 -10.357  0.00  0.00     0.263 C 
ATOM     56  O6  GYN d           8.429  27.258 -10.529  0.00  0.00    -0.265 OA
ATOM     57  C4  GYN d           7.184  25.314 -11.130  0.00  0.00     0.029 C 
ATOM     58  C3  GYN d           6.030  24.713 -10.337  0.00  0.00    -0.025 C 
ATOM     59  H4  GYN d           6.862  25.550 -12.154  0.00  0.00     0.055 H 
ATOM     60  H2  GYN d           5.268  24.310 -11.021  0.00  0.00     0.038 H 
ATOM     61  H3  GYN d           6.396  23.910  -9.681  0.00  0.00     0.038 H 
ATOM     62  H1  GYN d           4.564  26.261 -10.026  0.00  0.00     0.091 H 
BRANCH  57  63
ATOM     63  C7  GYN d           8.419  24.432 -11.206  0.00  0.00    -0.064 C 
ATOM     64  H5  GYN d           8.126  23.419 -11.523  0.00  0.00     0.028 H 
ATOM     65  H6  GYN d           8.897  24.382 -10.217  0.00  0.00     0.028 H 
ATOM     66  H7  GYN d           9.127  24.854 -11.935  0.00  0.00     0.028 H 
ENDBRANCH  57  63
ENDBRANCH   1  53
BRANCH   2  67
ATOM     67  C14 GYN d           3.359  27.264  -8.148  0.00  0.00    -0.054 C 
ATOM     68  H8  GYN d           4.084  27.974  -8.572  0.00  0.00     0.033 H 
ATOM     69  H9  GYN d           2.714  27.787  -7.427  0.00  0.00     0.033 H 
ATOM     70  H10 GYN d           2.741  26.845  -8.955  0.00  0.00     0.033 H 
ENDBRANCH   2  67
BRANCH   8  71
ATOM     71  C19 GYN d           1.147  27.018  -4.831  0.00  0.00    -0.052 C 
ATOM     72  H17 GYN d           0.396  27.649  -5.330  0.00  0.00     0.033 H 
ATOM     73  H18 GYN d           0.809  26.786  -3.810  0.00  0.00     0.033 H 
ATOM     74  H19 GYN d           1.274  26.083  -5.396  0.00  0.00     0.033 H 
ENDBRANCH   8  71
BRANCH   9  75
ATOM     75  O20 GYN d           1.707  30.012  -4.890  0.00  0.00    -0.391 OA
ATOM     76  H21 GYN d           2.088  30.882  -4.876  0.00  0.00     0.210 HD
ENDBRANCH   9  75
BRANCH  17  77
ATOM     77  C38 GYN d           1.325  23.321   0.246  0.00  0.00    -0.052 C 
ATOM     78  H34 GYN d           0.675  22.688  -0.376  0.00  0.00     0.033 H 
ATOM     79  H35 GYN d           0.801  23.581   1.176  0.00  0.00     0.033 H 
ATOM     80  H36 GYN d           2.249  22.774   0.485  0.00  0.00     0.033 H 
ENDBRANCH  17  77
BRANCH  14  81
ATOM     81  C49 GYN d           2.053  26.963   2.359  0.00  0.00    -0.070 C 
ATOM     82  H30 GYN d           1.222  26.375   2.777  0.00  0.00     0.028 H 
ATOM     83  H31 GYN d           1.693  27.968   2.095  0.00  0.00     0.028 H 
ATOM     84  H32 GYN d           2.856  27.045   3.105  0.00  0.00     0.028 H 
ENDBRANCH  14  81
TORSDOF 7
ENDMDL
