MODEL 1
REMARK VINA RESULT:      -5.4      0.000      0.000
REMARK  9 active torsions:
REMARK  status: ('A' for Active; 'I' for Inactive)
REMARK    1  A    between atoms: C1_1  and  C2_3 
REMARK    2  A    between atoms: C2_3  and  C3_4 
REMARK    3  A    between atoms: C3_4  and  C4_5 
REMARK    4  A    between atoms: C4_5  and  C5_6 
REMARK    5  A    between atoms: C5_6  and  C6_7 
REMARK    6  A    between atoms: C6_7  and  C7_8 
REMARK    7  A    between atoms: C7_8  and  C8_9 
REMARK    8  A    between atoms: C8_9  and  C9_10 
REMARK    9  A    between atoms: C9_10  and  C10_11 
ROOT
ATOM      1  C6  DKA d           1.433  -1.146  24.053  0.00  0.00    -0.065 C 
ATOM      2  H9  DKA d           0.694  -0.816  24.798  0.00  0.00     0.033 H 
ATOM      3  H10 DKA d           2.447  -0.948  24.430  0.00  0.00     0.033 H 
ENDROOT
BRANCH   1   4
ATOM      4  C5  DKA d           1.220  -0.361  22.758  0.00  0.00    -0.065 C 
ATOM      5  H7  DKA d           0.174  -0.480  22.440  0.00  0.00     0.033 H 
ATOM      6  H8  DKA d           1.427   0.702  22.951  0.00  0.00     0.033 H 
BRANCH   4   7
ATOM      7  C4  DKA d           2.129  -0.842  21.638  0.00  0.00    -0.065 C 
ATOM      8  H5  DKA d           2.272  -1.928  21.736  0.00  0.00     0.033 H 
ATOM      9  H6  DKA d           1.653  -0.620  20.672  0.00  0.00     0.033 H 
BRANCH   7  10
ATOM     10  C3  DKA d           3.491  -0.156  21.689  0.00  0.00    -0.056 C 
ATOM     11  H3  DKA d           3.830  -0.141  22.735  0.00  0.00     0.033 H 
ATOM     12  H4  DKA d           4.196  -0.746  21.084  0.00  0.00     0.033 H 
BRANCH  10  13
ATOM     13  C2  DKA d           3.498   1.289  21.161  0.00  0.00     0.016 C 
ATOM     14  H1  DKA d           4.202   1.361  20.318  0.00  0.00     0.049 H 
ATOM     15  H2  DKA d           2.487   1.552  20.817  0.00  0.00     0.049 H 
BRANCH  13  16
ATOM     16  C1  DKA d           3.923   2.264  22.249  0.00  0.00     0.172 C 
ATOM     17  O1  DKA d           3.648   2.090  23.436  0.00  0.00    -0.648 OA
ATOM     18  O2  DKA d           4.611   3.377  21.974  0.00  0.00    -0.648 OA
ENDBRANCH  13  16
ENDBRANCH  10  13
ENDBRANCH   7  10
ENDBRANCH   4   7
ENDBRANCH   1   4
BRANCH   1  19
ATOM     19  C7  DKA d           1.273  -2.635  23.826  0.00  0.00    -0.065 C 
ATOM     20  H11 DKA d           2.231  -3.130  24.041  0.00  0.00     0.033 H 
ATOM     21  H12 DKA d           1.000  -2.804  22.774  0.00  0.00     0.033 H 
BRANCH  19  22
ATOM     22  C8  DKA d           0.195  -3.251  24.715  0.00  0.00    -0.065 C 
ATOM     23  H13 DKA d           0.604  -4.145  25.211  0.00  0.00     0.033 H 
ATOM     24  H14 DKA d          -0.665  -3.538  24.093  0.00  0.00     0.033 H 
BRANCH  22  25
ATOM     25  C9  DKA d          -0.263  -2.258  25.773  0.00  0.00    -0.069 C 
ATOM     26  H15 DKA d          -1.354  -2.140  25.702  0.00  0.00     0.032 H 
ATOM     27  H16 DKA d           0.223  -1.289  25.586  0.00  0.00     0.032 H 
BRANCH  25  28
ATOM     28  C10 DKA d           0.090  -2.718  27.168  0.00  0.00    -0.077 C 
ATOM     29  H17 DKA d           0.850  -3.511  27.111  0.00  0.00     0.027 H 
ATOM     30  H18 DKA d          -0.811  -3.109  27.664  0.00  0.00     0.027 H 
ATOM     31  H19 DKA d           0.487  -1.870  27.745  0.00  0.00     0.027 H 
ENDBRANCH  25  28
ENDBRANCH  22  25
ENDBRANCH  19  22
ENDBRANCH   1  19
TORSDOF 9
ENDMDL
MODEL 2
REMARK VINA RESULT:      -5.3      3.493      6.097
REMARK  9 active torsions:
REMARK  status: ('A' for Active; 'I' for Inactive)
REMARK    1  A    between atoms: C1_1  and  C2_3 
REMARK    2  A    between atoms: C2_3  and  C3_4 
REMARK    3  A    between atoms: C3_4  and  C4_5 
REMARK    4  A    between atoms: C4_5  and  C5_6 
REMARK    5  A    between atoms: C5_6  and  C6_7 
REMARK    6  A    between atoms: C6_7  and  C7_8 
REMARK    7  A    between atoms: C7_8  and  C8_9 
REMARK    8  A    between atoms: C8_9  and  C9_10 
REMARK    9  A    between atoms: C9_10  and  C10_11 
ROOT
ATOM      1  C6  DKA d           1.329   0.203  22.490  0.00  0.00    -0.065 C 
ATOM      2  H9  DKA d           1.235   0.239  23.585  0.00  0.00     0.033 H 
ATOM      3  H10 DKA d           0.392   0.552  22.030  0.00  0.00     0.033 H 
ENDROOT
BRANCH   1   4
ATOM      4  C5  DKA d           1.587  -1.241  22.059  0.00  0.00    -0.065 C 
ATOM      5  H7  DKA d           0.775  -1.561  21.389  0.00  0.00     0.033 H 
ATOM      6  H8  DKA d           2.546  -1.283  21.521  0.00  0.00     0.033 H 
BRANCH   4   7
ATOM      7  C4  DKA d           1.648  -2.193  23.243  0.00  0.00    -0.065 C 
ATOM      8  H5  DKA d           0.946  -3.021  23.071  0.00  0.00     0.033 H 
ATOM      9  H6  DKA d           2.670  -2.589  23.330  0.00  0.00     0.033 H 
BRANCH   7  10
ATOM     10  C3  DKA d           1.277  -1.491  24.546  0.00  0.00    -0.056 C 
ATOM     11  H3  DKA d           2.129  -1.574  25.236  0.00  0.00     0.033 H 
ATOM     12  H4  DKA d           1.089  -0.430  24.323  0.00  0.00     0.033 H 
BRANCH  10  13
ATOM     13  C2  DKA d           0.032  -2.063  25.247  0.00  0.00     0.016 C 
ATOM     14  H1  DKA d          -0.541  -1.236  25.694  0.00  0.00     0.049 H 
ATOM     15  H2  DKA d          -0.592  -2.583  24.506  0.00  0.00     0.049 H 
BRANCH  13  16
ATOM     16  C1  DKA d           0.427  -3.043  26.341  0.00  0.00     0.172 C 
ATOM     17  O1  DKA d           0.497  -2.719  27.526  0.00  0.00    -0.648 OA
ATOM     18  O2  DKA d           0.735  -4.317  26.074  0.00  0.00    -0.648 OA
ENDBRANCH  13  16
ENDBRANCH  10  13
ENDBRANCH   7  10
ENDBRANCH   4   7
ENDBRANCH   1   4
BRANCH   1  19
ATOM     19  C7  DKA d           2.459   1.116  22.061  0.00  0.00    -0.065 C 
ATOM     20  H11 DKA d           2.090   1.787  21.272  0.00  0.00     0.033 H 
ATOM     21  H12 DKA d           3.279   0.499  21.665  0.00  0.00     0.033 H 
BRANCH  19  22
ATOM     22  C8  DKA d           2.997   1.963  23.212  0.00  0.00    -0.065 C 
ATOM     23  H13 DKA d           4.010   1.619  23.470  0.00  0.00     0.033 H 
ATOM     24  H14 DKA d           2.337   1.848  24.084  0.00  0.00     0.033 H 
BRANCH  22  25
ATOM     25  C9  DKA d           3.054   3.432  22.818  0.00  0.00    -0.069 C 
ATOM     26  H15 DKA d           4.056   3.656  22.424  0.00  0.00     0.032 H 
ATOM     27  H16 DKA d           2.866   4.047  23.710  0.00  0.00     0.032 H 
BRANCH  25  28
ATOM     28  C10 DKA d           2.027   3.773  21.764  0.00  0.00    -0.077 C 
ATOM     29  H17 DKA d           1.821   4.853  21.790  0.00  0.00     0.027 H 
ATOM     30  H18 DKA d           1.099   3.217  21.963  0.00  0.00     0.027 H 
ATOM     31  H19 DKA d           2.414   3.498  20.772  0.00  0.00     0.027 H 
ENDBRANCH  25  28
ENDBRANCH  22  25
ENDBRANCH  19  22
ENDBRANCH   1  19
TORSDOF 9
ENDMDL
MODEL 3
REMARK VINA RESULT:      -5.3      1.277      1.529
REMARK  9 active torsions:
REMARK  status: ('A' for Active; 'I' for Inactive)
REMARK    1  A    between atoms: C1_1  and  C2_3 
REMARK    2  A    between atoms: C2_3  and  C3_4 
REMARK    3  A    between atoms: C3_4  and  C4_5 
REMARK    4  A    between atoms: C4_5  and  C5_6 
REMARK    5  A    between atoms: C5_6  and  C6_7 
REMARK    6  A    between atoms: C6_7  and  C7_8 
REMARK    7  A    between atoms: C7_8  and  C8_9 
REMARK    8  A    between atoms: C8_9  and  C9_10 
REMARK    9  A    between atoms: C9_10  and  C10_11 
ROOT
ATOM      1  C6  DKA d           1.219  -1.124  23.784  0.00  0.00    -0.065 C 
ATOM      2  H9  DKA d           0.152  -0.862  23.841  0.00  0.00     0.033 H 
ATOM      3  H10 DKA d           1.760  -0.637  24.609  0.00  0.00     0.033 H 
ENDROOT
BRANCH   1   4
ATOM      4  C5  DKA d           1.784  -0.624  22.454  0.00  0.00    -0.065 C 
ATOM      5  H7  DKA d           2.843  -0.913  22.388  0.00  0.00     0.033 H 
ATOM      6  H8  DKA d           1.223  -1.095  21.633  0.00  0.00     0.033 H 
BRANCH   4   7
ATOM      7  C4  DKA d           1.679   0.886  22.315  0.00  0.00    -0.065 C 
ATOM      8  H5  DKA d           1.810   1.158  21.258  0.00  0.00     0.033 H 
ATOM      9  H6  DKA d           0.685   1.208  22.656  0.00  0.00     0.033 H 
BRANCH   7  10
ATOM     10  C3  DKA d           2.742   1.600  23.145  0.00  0.00    -0.056 C 
ATOM     11  H3  DKA d           2.290   2.503  23.580  0.00  0.00     0.033 H 
ATOM     12  H4  DKA d           3.058   0.923  23.953  0.00  0.00     0.033 H 
BRANCH  10  13
ATOM     13  C2  DKA d           3.993   2.022  22.354  0.00  0.00     0.016 C 
ATOM     14  H1  DKA d           4.649   2.614  23.009  0.00  0.00     0.049 H 
ATOM     15  H2  DKA d           4.528   1.121  22.019  0.00  0.00     0.049 H 
BRANCH  13  16
ATOM     16  C1  DKA d           3.613   2.857  21.141  0.00  0.00     0.172 C 
ATOM     17  O1  DKA d           2.973   3.903  21.233  0.00  0.00    -0.648 OA
ATOM     18  O2  DKA d           3.944   2.491  19.898  0.00  0.00    -0.648 OA
ENDBRANCH  13  16
ENDBRANCH  10  13
ENDBRANCH   7  10
ENDBRANCH   4   7
ENDBRANCH   1   4
BRANCH   1  19
ATOM     19  C7  DKA d           1.366  -2.626  23.914  0.00  0.00    -0.065 C 
ATOM     20  H11 DKA d           2.320  -2.844  24.416  0.00  0.00     0.033 H 
ATOM     21  H12 DKA d           1.370  -3.068  22.907  0.00  0.00     0.033 H 
BRANCH  19  22
ATOM     22  C8  DKA d           0.235  -3.258  24.721  0.00  0.00    -0.065 C 
ATOM     23  H13 DKA d           0.623  -4.133  25.263  0.00  0.00     0.033 H 
ATOM     24  H14 DKA d          -0.564  -3.576  24.036  0.00  0.00     0.033 H 
BRANCH  22  25
ATOM     25  C9  DKA d          -0.334  -2.263  25.723  0.00  0.00    -0.069 C 
ATOM     26  H15 DKA d          -1.427  -2.226  25.605  0.00  0.00     0.032 H 
ATOM     27  H16 DKA d           0.090  -1.269  25.517  0.00  0.00     0.032 H 
BRANCH  25  28
ATOM     28  C10 DKA d          -0.008  -2.647  27.146  0.00  0.00    -0.077 C 
ATOM     29  H17 DKA d          -0.663  -2.093  27.835  0.00  0.00     0.027 H 
ATOM     30  H18 DKA d           1.042  -2.401  27.362  0.00  0.00     0.027 H 
ATOM     31  H19 DKA d          -0.166  -3.727  27.280  0.00  0.00     0.027 H 
ENDBRANCH  25  28
ENDBRANCH  22  25
ENDBRANCH  19  22
ENDBRANCH   1  19
TORSDOF 9
ENDMDL
MODEL 4
REMARK VINA RESULT:      -5.2      1.170      1.525
REMARK  9 active torsions:
REMARK  status: ('A' for Active; 'I' for Inactive)
REMARK    1  A    between atoms: C1_1  and  C2_3 
REMARK    2  A    between atoms: C2_3  and  C3_4 
REMARK    3  A    between atoms: C3_4  and  C4_5 
REMARK    4  A    between atoms: C4_5  and  C5_6 
REMARK    5  A    between atoms: C5_6  and  C6_7 
REMARK    6  A    between atoms: C6_7  and  C7_8 
REMARK    7  A    between atoms: C7_8  and  C8_9 
REMARK    8  A    between atoms: C8_9  and  C9_10 
REMARK    9  A    between atoms: C9_10  and  C10_11 
ROOT
ATOM      1  C6  DKA d           1.433  -1.157  24.104  0.00  0.00    -0.065 C 
ATOM      2  H9  DKA d           0.630  -0.830  24.782  0.00  0.00     0.033 H 
ATOM      3  H10 DKA d           2.410  -0.920  24.552  0.00  0.00     0.033 H 
ENDROOT
BRANCH   1   4
ATOM      4  C5  DKA d           1.298  -0.412  22.776  0.00  0.00    -0.065 C 
ATOM      5  H7  DKA d           0.250  -0.105  22.647  0.00  0.00     0.033 H 
ATOM      6  H8  DKA d           1.942   0.480  22.804  0.00  0.00     0.033 H 
BRANCH   4   7
ATOM      7  C4  DKA d           1.705  -1.272  21.590  0.00  0.00    -0.065 C 
ATOM      8  H5  DKA d           1.498  -2.326  21.826  0.00  0.00     0.033 H 
ATOM      9  H6  DKA d           1.117  -0.970  20.712  0.00  0.00     0.033 H 
BRANCH   7  10
ATOM     10  C3  DKA d           3.189  -1.118  21.269  0.00  0.00    -0.056 C 
ATOM     11  H3  DKA d           3.684  -0.664  22.141  0.00  0.00     0.033 H 
ATOM     12  H4  DKA d           3.607  -2.120  21.091  0.00  0.00     0.033 H 
BRANCH  10  13
ATOM     13  C2  DKA d           3.489  -0.246  20.038  0.00  0.00     0.016 C 
ATOM     14  H1  DKA d           4.284  -0.721  19.445  0.00  0.00     0.049 H 
ATOM     15  H2  DKA d           2.578  -0.160  19.426  0.00  0.00     0.049 H 
BRANCH  13  16
ATOM     16  C1  DKA d           3.941   1.146  20.454  0.00  0.00     0.172 C 
ATOM     17  O1  DKA d           3.928   2.103  19.681  0.00  0.00    -0.648 OA
ATOM     18  O2  DKA d           4.394   1.405  21.685  0.00  0.00    -0.648 OA
ENDBRANCH  13  16
ENDBRANCH  10  13
ENDBRANCH   7  10
ENDBRANCH   4   7
ENDBRANCH   1   4
BRANCH   1  19
ATOM     19  C7  DKA d           1.331  -2.656  23.907  0.00  0.00    -0.065 C 
ATOM     20  H11 DKA d           2.296  -3.112  24.172  0.00  0.00     0.033 H 
ATOM     21  H12 DKA d           1.108  -2.858  22.849  0.00  0.00     0.033 H 
BRANCH  19  22
ATOM     22  C8  DKA d           0.239  -3.288  24.766  0.00  0.00    -0.065 C 
ATOM     23  H13 DKA d           0.659  -4.147  25.310  0.00  0.00     0.033 H 
ATOM     24  H14 DKA d          -0.579  -3.630  24.116  0.00  0.00     0.033 H 
BRANCH  22  25
ATOM     25  C9  DKA d          -0.307  -2.281  25.769  0.00  0.00    -0.069 C 
ATOM     26  H15 DKA d          -1.395  -2.197  25.631  0.00  0.00     0.032 H 
ATOM     27  H16 DKA d           0.163  -1.304  25.584  0.00  0.00     0.032 H 
BRANCH  25  28
ATOM     28  C10 DKA d          -0.026  -2.697  27.194  0.00  0.00    -0.077 C 
ATOM     29  H17 DKA d           0.347  -1.831  27.760  0.00  0.00     0.027 H 
ATOM     30  H18 DKA d           0.731  -3.495  27.201  0.00  0.00     0.027 H 
ATOM     31  H19 DKA d          -0.953  -3.066  27.657  0.00  0.00     0.027 H 
ENDBRANCH  25  28
ENDBRANCH  22  25
ENDBRANCH  19  22
ENDBRANCH   1  19
TORSDOF 9
ENDMDL
MODEL 5
REMARK VINA RESULT:      -4.9      3.330      6.390
REMARK  9 active torsions:
REMARK  status: ('A' for Active; 'I' for Inactive)
REMARK    1  A    between atoms: C1_1  and  C2_3 
REMARK    2  A    between atoms: C2_3  and  C3_4 
REMARK    3  A    between atoms: C3_4  and  C4_5 
REMARK    4  A    between atoms: C4_5  and  C5_6 
REMARK    5  A    between atoms: C5_6  and  C6_7 
REMARK    6  A    between atoms: C6_7  and  C7_8 
REMARK    7  A    between atoms: C7_8  and  C8_9 
REMARK    8  A    between atoms: C8_9  and  C9_10 
REMARK    9  A    between atoms: C9_10  and  C10_11 
ROOT
ATOM      1  C6  DKA d           2.737   1.279  23.391  0.00  0.00    -0.065 C 
ATOM      2  H9  DKA d           3.686   0.763  23.598  0.00  0.00     0.033 H 
ATOM      3  H10 DKA d           2.073   1.189  24.264  0.00  0.00     0.033 H 
ENDROOT
BRANCH   1   4
ATOM      4  C5  DKA d           2.066   0.622  22.184  0.00  0.00    -0.065 C 
ATOM      5  H7  DKA d           1.369   1.343  21.731  0.00  0.00     0.033 H 
ATOM      6  H8  DKA d           2.841   0.351  21.453  0.00  0.00     0.033 H 
BRANCH   4   7
ATOM      7  C4  DKA d           1.293  -0.630  22.566  0.00  0.00    -0.065 C 
ATOM      8  H5  DKA d           0.216  -0.426  22.479  0.00  0.00     0.033 H 
ATOM      9  H6  DKA d           1.570  -1.443  21.880  0.00  0.00     0.033 H 
BRANCH   7  10
ATOM     10  C3  DKA d           1.600  -1.063  23.997  0.00  0.00    -0.056 C 
ATOM     11  H3  DKA d           2.484  -1.717  23.976  0.00  0.00     0.033 H 
ATOM     12  H4  DKA d           1.825  -0.162  24.588  0.00  0.00     0.033 H 
BRANCH  10  13
ATOM     13  C2  DKA d           0.457  -1.822  24.694  0.00  0.00     0.016 C 
ATOM     14  H1  DKA d          -0.203  -1.098  25.193  0.00  0.00     0.049 H 
ATOM     15  H2  DKA d          -0.116  -2.382  23.940  0.00  0.00     0.049 H 
BRANCH  13  16
ATOM     16  C1  DKA d           1.002  -2.796  25.728  0.00  0.00     0.172 C 
ATOM     17  O1  DKA d           1.604  -3.822  25.417  0.00  0.00    -0.648 OA
ATOM     18  O2  DKA d           0.844  -2.596  27.041  0.00  0.00    -0.648 OA
ENDBRANCH  13  16
ENDBRANCH  10  13
ENDBRANCH   7  10
ENDBRANCH   4   7
ENDBRANCH   1   4
BRANCH   1  19
ATOM     19  C7  DKA d           3.018   2.745  23.133  0.00  0.00    -0.065 C 
ATOM     20  H11 DKA d           3.238   3.235  24.093  0.00  0.00     0.033 H 
ATOM     21  H12 DKA d           2.123   3.202  22.684  0.00  0.00     0.033 H 
BRANCH  19  22
ATOM     22  C8  DKA d           4.201   2.959  22.192  0.00  0.00    -0.065 C 
ATOM     23  H13 DKA d           4.512   1.988  21.777  0.00  0.00     0.033 H 
ATOM     24  H14 DKA d           5.035   3.401  22.756  0.00  0.00     0.033 H 
BRANCH  22  25
ATOM     25  C9  DKA d           3.820   3.891  21.051  0.00  0.00    -0.069 C 
ATOM     26  H15 DKA d           4.609   4.648  20.931  0.00  0.00     0.032 H 
ATOM     27  H16 DKA d           2.871   4.389  21.300  0.00  0.00     0.032 H 
BRANCH  25  28
ATOM     28  C10 DKA d           3.653   3.148  19.747  0.00  0.00    -0.077 C 
ATOM     29  H17 DKA d           4.371   3.536  19.010  0.00  0.00     0.027 H 
ATOM     30  H18 DKA d           2.629   3.289  19.372  0.00  0.00     0.027 H 
ATOM     31  H19 DKA d           3.839   2.076  19.910  0.00  0.00     0.027 H 
ENDBRANCH  25  28
ENDBRANCH  22  25
ENDBRANCH  19  22
ENDBRANCH   1  19
TORSDOF 9
ENDMDL
MODEL 6
REMARK VINA RESULT:      -4.6      2.257      2.563
REMARK  9 active torsions:
REMARK  status: ('A' for Active; 'I' for Inactive)
REMARK    1  A    between atoms: C1_1  and  C2_3 
REMARK    2  A    between atoms: C2_3  and  C3_4 
REMARK    3  A    between atoms: C3_4  and  C4_5 
REMARK    4  A    between atoms: C4_5  and  C5_6 
REMARK    5  A    between atoms: C5_6  and  C6_7 
REMARK    6  A    between atoms: C6_7  and  C7_8 
REMARK    7  A    between atoms: C7_8  and  C8_9 
REMARK    8  A    between atoms: C8_9  and  C9_10 
REMARK    9  A    between atoms: C9_10  and  C10_11 
ROOT
ATOM      1  C6  DKA d           1.548  -1.130  23.944  0.00  0.00    -0.065 C 
ATOM      2  H9  DKA d           0.772  -0.788  24.644  0.00  0.00     0.033 H 
ATOM      3  H10 DKA d           2.541  -0.874  24.342  0.00  0.00     0.033 H 
ENDROOT
BRANCH   1   4
ATOM      4  C5  DKA d           1.353  -0.425  22.601  0.00  0.00    -0.065 C 
ATOM      5  H7  DKA d           1.763  -1.063  21.803  0.00  0.00     0.033 H 
ATOM      6  H8  DKA d           0.276  -0.274  22.434  0.00  0.00     0.033 H 
BRANCH   4   7
ATOM      7  C4  DKA d           2.049   0.925  22.553  0.00  0.00    -0.065 C 
ATOM      8  H5  DKA d           1.389   1.650  22.055  0.00  0.00     0.033 H 
ATOM      9  H6  DKA d           2.252   1.259  23.581  0.00  0.00     0.033 H 
BRANCH   7  10
ATOM     10  C3  DKA d           3.367   0.849  21.788  0.00  0.00    -0.056 C 
ATOM     11  H3  DKA d           3.196   1.230  20.770  0.00  0.00     0.033 H 
ATOM     12  H4  DKA d           4.100   1.490  22.300  0.00  0.00     0.033 H 
BRANCH  10  13
ATOM     13  C2  DKA d           3.961  -0.567  21.677  0.00  0.00     0.016 C 
ATOM     14  H1  DKA d           5.002  -0.549  22.031  0.00  0.00     0.049 H 
ATOM     15  H2  DKA d           3.373  -1.254  22.304  0.00  0.00     0.049 H 
BRANCH  13  16
ATOM     16  C1  DKA d           3.932  -1.058  20.237  0.00  0.00     0.172 C 
ATOM     17  O1  DKA d           4.611  -2.008  19.850  0.00  0.00    -0.648 OA
ATOM     18  O2  DKA d           3.174  -0.473  19.305  0.00  0.00    -0.648 OA
ENDBRANCH  13  16
ENDBRANCH  10  13
ENDBRANCH   7  10
ENDBRANCH   4   7
ENDBRANCH   1   4
BRANCH   1  19
ATOM     19  C7  DKA d           1.449  -2.634  23.794  0.00  0.00    -0.065 C 
ATOM     20  H11 DKA d           2.440  -3.073  23.983  0.00  0.00     0.033 H 
ATOM     21  H12 DKA d           1.134  -2.867  22.766  0.00  0.00     0.033 H 
BRANCH  19  22
ATOM     22  C8  DKA d           0.447  -3.255  24.764  0.00  0.00    -0.065 C 
ATOM     23  H13 DKA d           0.948  -4.044  25.345  0.00  0.00     0.033 H 
ATOM     24  H14 DKA d          -0.385  -3.692  24.194  0.00  0.00     0.033 H 
BRANCH  22  25
ATOM     25  C9  DKA d          -0.100  -2.204  25.719  0.00  0.00    -0.069 C 
ATOM     26  H15 DKA d          -1.160  -2.026  25.484  0.00  0.00     0.032 H 
ATOM     27  H16 DKA d           0.466  -1.270  25.584  0.00  0.00     0.032 H 
BRANCH  25  28
ATOM     28  C10 DKA d           0.014  -2.638  27.162  0.00  0.00    -0.077 C 
ATOM     29  H17 DKA d           0.809  -2.061  27.656  0.00  0.00     0.027 H 
ATOM     30  H18 DKA d           0.259  -3.710  27.204  0.00  0.00     0.027 H 
ATOM     31  H19 DKA d          -0.942  -2.460  27.675  0.00  0.00     0.027 H 
ENDBRANCH  25  28
ENDBRANCH  22  25
ENDBRANCH  19  22
ENDBRANCH   1  19
TORSDOF 9
ENDMDL
MODEL 7
REMARK VINA RESULT:      -4.2      3.194      5.824
REMARK  9 active torsions:
REMARK  status: ('A' for Active; 'I' for Inactive)
REMARK    1  A    between atoms: C1_1  and  C2_3 
REMARK    2  A    between atoms: C2_3  and  C3_4 
REMARK    3  A    between atoms: C3_4  and  C4_5 
REMARK    4  A    between atoms: C4_5  and  C5_6 
REMARK    5  A    between atoms: C5_6  and  C6_7 
REMARK    6  A    between atoms: C6_7  and  C7_8 
REMARK    7  A    between atoms: C7_8  and  C8_9 
REMARK    8  A    between atoms: C8_9  and  C9_10 
REMARK    9  A    between atoms: C9_10  and  C10_11 
ROOT
ATOM      1  C6  DKA d           3.046   2.339  23.603  0.00  0.00    -0.065 C 
ATOM      2  H9  DKA d           3.937   2.296  24.246  0.00  0.00     0.033 H 
ATOM      3  H10 DKA d           2.141   2.329  24.230  0.00  0.00     0.033 H 
ENDROOT
BRANCH   1   4
ATOM      4  C5  DKA d           3.031   1.114  22.688  0.00  0.00    -0.065 C 
ATOM      5  H7  DKA d           3.541   1.370  21.746  0.00  0.00     0.033 H 
ATOM      6  H8  DKA d           3.570   0.295  23.186  0.00  0.00     0.033 H 
BRANCH   4   7
ATOM      7  C4  DKA d           1.620   0.650  22.369  0.00  0.00    -0.065 C 
ATOM      8  H5  DKA d           0.937   1.022  23.148  0.00  0.00     0.033 H 
ATOM      9  H6  DKA d           1.321   1.060  21.394  0.00  0.00     0.033 H 
BRANCH   7  10
ATOM     10  C3  DKA d           1.529  -0.872  22.317  0.00  0.00    -0.056 C 
ATOM     11  H3  DKA d           2.306  -1.286  22.976  0.00  0.00     0.033 H 
ATOM     12  H4  DKA d           0.537  -1.170  22.688  0.00  0.00     0.033 H 
BRANCH  10  13
ATOM     13  C2  DKA d           1.718  -1.475  20.914  0.00  0.00     0.016 C 
ATOM     14  H1  DKA d           1.472  -2.547  20.946  0.00  0.00     0.049 H 
ATOM     15  H2  DKA d           1.045  -0.966  20.209  0.00  0.00     0.049 H 
BRANCH  13  16
ATOM     16  C1  DKA d           3.154  -1.308  20.439  0.00  0.00     0.172 C 
ATOM     17  O1  DKA d           3.438  -0.758  19.376  0.00  0.00    -0.648 OA
ATOM     18  O2  DKA d           4.192  -1.764  21.147  0.00  0.00    -0.648 OA
ENDBRANCH  13  16
ENDBRANCH  10  13
ENDBRANCH   7  10
ENDBRANCH   4   7
ENDBRANCH   1   4
BRANCH   1  19
ATOM     19  C7  DKA d           3.076   3.624  22.802  0.00  0.00    -0.065 C 
ATOM     20  H11 DKA d           3.263   4.463  23.488  0.00  0.00     0.033 H 
ATOM     21  H12 DKA d           2.099   3.759  22.314  0.00  0.00     0.033 H 
BRANCH  19  22
ATOM     22  C8  DKA d           4.162   3.621  21.729  0.00  0.00    -0.065 C 
ATOM     23  H13 DKA d           4.634   2.627  21.696  0.00  0.00     0.033 H 
ATOM     24  H14 DKA d           4.919   4.378  21.978  0.00  0.00     0.033 H 
BRANCH  22  25
ATOM     25  C9  DKA d           3.570   3.937  20.363  0.00  0.00    -0.069 C 
ATOM     26  H15 DKA d           4.149   4.752  19.904  0.00  0.00     0.032 H 
ATOM     27  H16 DKA d           2.526   4.258  20.493  0.00  0.00     0.032 H 
BRANCH  25  28
ATOM     28  C10 DKA d           3.600   2.739  19.444  0.00  0.00    -0.077 C 
ATOM     29  H17 DKA d           4.612   2.622  19.027  0.00  0.00     0.027 H 
ATOM     30  H18 DKA d           2.881   2.886  18.625  0.00  0.00     0.027 H 
ATOM     31  H19 DKA d           3.331   1.835  20.011  0.00  0.00     0.027 H 
ENDBRANCH  25  28
ENDBRANCH  22  25
ENDBRANCH  19  22
ENDBRANCH   1  19
TORSDOF 9
ENDMDL
MODEL 8
REMARK VINA RESULT:      -3.6      0.941      1.793
REMARK  9 active torsions:
REMARK  status: ('A' for Active; 'I' for Inactive)
REMARK    1  A    between atoms: C1_1  and  C2_3 
REMARK    2  A    between atoms: C2_3  and  C3_4 
REMARK    3  A    between atoms: C3_4  and  C4_5 
REMARK    4  A    between atoms: C4_5  and  C5_6 
REMARK    5  A    between atoms: C5_6  and  C6_7 
REMARK    6  A    between atoms: C6_7  and  C7_8 
REMARK    7  A    between atoms: C7_8  and  C8_9 
REMARK    8  A    between atoms: C8_9  and  C9_10 
REMARK    9  A    between atoms: C9_10  and  C10_11 
ROOT
ATOM      1  C6  DKA d           2.395  -0.457  22.746  0.00  0.00    -0.065 C 
ATOM      2  H9  DKA d           2.067   0.513  22.345  0.00  0.00     0.033 H 
ATOM      3  H10 DKA d           2.763  -0.324  23.774  0.00  0.00     0.033 H 
ENDROOT
BRANCH   1   4
ATOM      4  C5  DKA d           3.530  -0.998  21.876  0.00  0.00    -0.065 C 
ATOM      5  H7  DKA d           4.190  -1.617  22.501  0.00  0.00     0.033 H 
ATOM      6  H8  DKA d           3.098  -1.615  21.074  0.00  0.00     0.033 H 
BRANCH   4   7
ATOM      7  C4  DKA d           4.353   0.115  21.248  0.00  0.00    -0.065 C 
ATOM      8  H5  DKA d           4.810   0.716  22.047  0.00  0.00     0.033 H 
ATOM      9  H6  DKA d           5.143  -0.333  20.627  0.00  0.00     0.033 H 
BRANCH   7  10
ATOM     10  C3  DKA d           3.493   1.024  20.375  0.00  0.00    -0.056 C 
ATOM     11  H3  DKA d           4.146   1.505  19.632  0.00  0.00     0.033 H 
ATOM     12  H4  DKA d           2.748   0.400  19.858  0.00  0.00     0.033 H 
BRANCH  10  13
ATOM     13  C2  DKA d           2.745   2.127  21.144  0.00  0.00     0.016 C 
ATOM     14  H1  DKA d           2.364   2.870  20.428  0.00  0.00     0.049 H 
ATOM     15  H2  DKA d           1.902   1.678  21.689  0.00  0.00     0.049 H 
BRANCH  13  16
ATOM     16  C1  DKA d           3.668   2.819  22.137  0.00  0.00     0.172 C 
ATOM     17  O1  DKA d           4.611   3.524  21.781  0.00  0.00    -0.648 OA
ATOM     18  O2  DKA d           3.513   2.687  23.458  0.00  0.00    -0.648 OA
ENDBRANCH  13  16
ENDBRANCH  10  13
ENDBRANCH   7  10
ENDBRANCH   4   7
ENDBRANCH   1   4
BRANCH   1  19
ATOM     19  C7  DKA d           1.215  -1.408  22.763  0.00  0.00    -0.065 C 
ATOM     20  H11 DKA d           1.099  -1.844  21.761  0.00  0.00     0.033 H 
ATOM     21  H12 DKA d           0.309  -0.840  23.024  0.00  0.00     0.033 H 
BRANCH  19  22
ATOM     22  C8  DKA d           1.389  -2.540  23.773  0.00  0.00    -0.065 C 
ATOM     23  H13 DKA d           2.430  -2.549  24.129  0.00  0.00     0.033 H 
ATOM     24  H14 DKA d           1.160  -3.497  23.284  0.00  0.00     0.033 H 
BRANCH  22  25
ATOM     25  C9  DKA d           0.456  -2.350  24.961  0.00  0.00    -0.069 C 
ATOM     26  H15 DKA d          -0.413  -3.013  24.839  0.00  0.00     0.032 H 
ATOM     27  H16 DKA d           0.118  -1.303  24.984  0.00  0.00     0.032 H 
BRANCH  25  28
ATOM     28  C10 DKA d           1.138  -2.673  26.269  0.00  0.00    -0.077 C 
ATOM     29  H17 DKA d           1.228  -1.756  26.871  0.00  0.00     0.027 H 
ATOM     30  H18 DKA d           2.140  -3.081  26.070  0.00  0.00     0.027 H 
ATOM     31  H19 DKA d           0.542  -3.416  26.820  0.00  0.00     0.027 H 
ENDBRANCH  25  28
ENDBRANCH  22  25
ENDBRANCH  19  22
ENDBRANCH   1  19
TORSDOF 9
ENDMDL
MODEL 9
REMARK VINA RESULT:      -3.3      3.288      6.211
REMARK  9 active torsions:
REMARK  status: ('A' for Active; 'I' for Inactive)
REMARK    1  A    between atoms: C1_1  and  C2_3 
REMARK    2  A    between atoms: C2_3  and  C3_4 
REMARK    3  A    between atoms: C3_4  and  C4_5 
REMARK    4  A    between atoms: C4_5  and  C5_6 
REMARK    5  A    between atoms: C5_6  and  C6_7 
REMARK    6  A    between atoms: C6_7  and  C7_8 
REMARK    7  A    between atoms: C7_8  and  C8_9 
REMARK    8  A    between atoms: C8_9  and  C9_10 
REMARK    9  A    between atoms: C9_10  and  C10_11 
ROOT
ATOM      1  C6  DKA d           2.970  -0.173  20.768  0.00  0.00    -0.065 C 
ATOM      2  H9  DKA d           2.848   0.686  21.444  0.00  0.00     0.033 H 
ATOM      3  H10 DKA d           2.049  -0.313  20.183  0.00  0.00     0.033 H 
ENDROOT
BRANCH   1   4
ATOM      4  C5  DKA d           3.228  -1.430  21.600  0.00  0.00    -0.065 C 
ATOM      5  H7  DKA d           3.513  -2.250  20.924  0.00  0.00     0.033 H 
ATOM      6  H8  DKA d           4.054  -1.228  22.299  0.00  0.00     0.033 H 
BRANCH   4   7
ATOM      7  C4  DKA d           2.005  -1.854  22.396  0.00  0.00    -0.065 C 
ATOM      8  H5  DKA d           1.103  -1.640  21.806  0.00  0.00     0.033 H 
ATOM      9  H6  DKA d           2.065  -2.934  22.595  0.00  0.00     0.033 H 
BRANCH   7  10
ATOM     10  C3  DKA d           1.916  -1.110  23.725  0.00  0.00    -0.056 C 
ATOM     11  H3  DKA d           2.834  -1.314  24.296  0.00  0.00     0.033 H 
ATOM     12  H4  DKA d           1.849  -0.033  23.512  0.00  0.00     0.033 H 
BRANCH  10  13
ATOM     13  C2  DKA d           0.711  -1.503  24.598  0.00  0.00     0.016 C 
ATOM     14  H1  DKA d           0.416  -0.640  25.213  0.00  0.00     0.049 H 
ATOM     15  H2  DKA d          -0.127  -1.792  23.946  0.00  0.00     0.049 H 
BRANCH  13  16
ATOM     16  C1  DKA d           1.057  -2.671  25.509  0.00  0.00     0.172 C 
ATOM     17  O1  DKA d           0.940  -2.611  26.733  0.00  0.00    -0.648 OA
ATOM     18  O2  DKA d           1.524  -3.829  25.031  0.00  0.00    -0.648 OA
ENDBRANCH  13  16
ENDBRANCH  10  13
ENDBRANCH   7  10
ENDBRANCH   4   7
ENDBRANCH   1   4
BRANCH   1  19
ATOM     19  C7  DKA d           4.119   0.105  19.820  0.00  0.00    -0.065 C 
ATOM     20  H11 DKA d           4.029  -0.564  18.952  0.00  0.00     0.033 H 
ATOM     21  H12 DKA d           5.065  -0.099  20.344  0.00  0.00     0.033 H 
BRANCH  19  22
ATOM     22  C8  DKA d           4.135   1.549  19.326  0.00  0.00    -0.065 C 
ATOM     23  H13 DKA d           3.687   1.592  18.322  0.00  0.00     0.033 H 
ATOM     24  H14 DKA d           5.175   1.903  19.278  0.00  0.00     0.033 H 
BRANCH  22  25
ATOM     25  C9  DKA d           3.344   2.449  20.265  0.00  0.00    -0.069 C 
ATOM     26  H15 DKA d           2.617   1.835  20.817  0.00  0.00     0.032 H 
ATOM     27  H16 DKA d           2.810   3.203  19.669  0.00  0.00     0.032 H 
BRANCH  25  28
ATOM     28  C10 DKA d           4.240   3.155  21.256  0.00  0.00    -0.077 C 
ATOM     29  H17 DKA d           5.057   2.482  21.555  0.00  0.00     0.027 H 
ATOM     30  H18 DKA d           3.654   3.437  22.143  0.00  0.00     0.027 H 
ATOM     31  H19 DKA d           4.660   4.059  20.791  0.00  0.00     0.027 H 
ENDBRANCH  25  28
ENDBRANCH  22  25
ENDBRANCH  19  22
ENDBRANCH   1  19
TORSDOF 9
ENDMDL
