MODEL 1
REMARK VINA RESULT:     -10.3      0.000      0.000
REMARK  10 active torsions:
REMARK  status: ('A' for Active; 'I' for Inactive)
REMARK    1  A    between atoms: C1_1  and  C7_7 
REMARK    2  A    between atoms: C3_3  and  O1_8 
REMARK    3  A    between atoms: C4_4  and  O2_9 
REMARK    4  A    between atoms: O3_10  and  C5_5 
REMARK    5  A    between atoms: O1_8  and  P1_13 
REMARK    6  A    between atoms: C8_17  and  O3_10 
REMARK    7  A    between atoms: C8_17  and  C9_18 
REMARK    8  A    between atoms: C8_17  and  C10_19 
REMARK    9  A    between atoms: O14_26  and  C8_17 
REMARK   10  A    between atoms: P2_22  and  O14_26 
ROOT
ATOM      1  C1  GG9 d          55.941  11.403  27.929  0.00  0.00     0.020 C 
ATOM      2  C2  GG9 d          54.901  10.681  28.596  0.00  0.00    -0.060 C 
ATOM      3  C3  GG9 d          55.263   9.624  29.637  0.00  0.00     0.096 C 
ATOM      4  C4  GG9 d          56.719   9.848  30.245  0.00  0.00     0.089 C 
ATOM      5  C5  GG9 d          57.762   9.905  29.091  0.00  0.00     0.074 C 
ATOM      6  C6  GG9 d          57.402  11.173  28.221  0.00  0.00    -0.008 C 
ATOM      7  H1  GG9 d          53.857  10.885  28.363  0.00  0.00     0.082 H 
ATOM      8  H2  GG9 d          54.548   9.705  30.469  0.00  0.00     0.095 H 
ATOM      9  H3  GG9 d          56.752  10.799  30.795  0.00  0.00     0.091 H 
ATOM     10  H4  GG9 d          57.712   8.993  28.478  0.00  0.00     0.088 H 
ATOM     11  H5  GG9 d          57.779  12.059  28.753  0.00  0.00     0.044 H 
ATOM     12  H6  GG9 d          57.924  11.075  27.257  0.00  0.00     0.044 H 
ENDROOT
BRANCH   5  13
ATOM     13  O3  GG9 d          59.075  10.047  29.647  0.00  0.00    -0.334 OA
BRANCH  13  14
ATOM     14  C8  GG9 d          60.083   9.008  29.579  0.00  0.00     0.326 C 
BRANCH  14  15
ATOM     15  C9  GG9 d          59.596   7.494  29.391  0.00  0.00     0.272 C 
ATOM     16  F1  GG9 d          58.537   7.381  28.666  0.00  0.00    -0.208 F 
ATOM     17  F2  GG9 d          60.570   6.720  28.957  0.00  0.00    -0.208 F 
ATOM     18  H8  GG9 d          59.326   7.128  30.393  0.00  0.00     0.155 H 
ENDBRANCH  14  15
BRANCH  14  19
ATOM     19  C10 GG9 d          60.890   9.073  30.851  0.00  0.00     0.245 C 
ATOM     20  O9  GG9 d          61.232  10.280  31.091  0.00  0.00    -0.644 OA
ATOM     21  O10 GG9 d          61.166   8.103  31.583  0.00  0.00    -0.644 OA
ENDBRANCH  14  19
BRANCH  14  22
ATOM     22  O14 GG9 d          61.043   9.324  28.489  0.00  0.00    -0.228 OA
BRANCH  22  23
ATOM     23  P2  GG9 d          60.963   9.496  26.853  0.00  0.00     0.425 P 
ATOM     24  O11 GG9 d          59.678   8.793  26.364  0.00  0.00    -0.617 OA
ATOM     25  O12 GG9 d          62.195   8.797  26.357  0.00  0.00    -0.617 OA
ATOM     26  O13 GG9 d          60.933  10.995  26.463  0.00  0.00    -0.617 OA
ENDBRANCH  22  23
ENDBRANCH  14  22
ENDBRANCH  13  14
ENDBRANCH   5  13
BRANCH   4  27
ATOM     27  O2  GG9 d          56.962   8.766  31.158  0.00  0.00    -0.390 OA
ATOM     28  H7  GG9 d          57.873   8.503  31.100  0.00  0.00     0.210 HD
ENDBRANCH   4  27
BRANCH   3  29
ATOM     29  O1  GG9 d          55.085   8.222  28.985  0.00  0.00    -0.271 OA
BRANCH  29  30
ATOM     30  P1  GG9 d          54.690   7.977  27.392  0.00  0.00     0.422 P 
ATOM     31  O6  GG9 d          56.001   8.094  26.609  0.00  0.00    -0.617 OA
ATOM     32  O7  GG9 d          53.636   9.111  27.043  0.00  0.00    -0.617 OA
ATOM     33  O8  GG9 d          54.145   6.527  27.452  0.00  0.00    -0.617 OA
ENDBRANCH  29  30
ENDBRANCH   3  29
BRANCH   1  34
ATOM     34  C7  GG9 d          55.560  12.444  26.919  0.00  0.00     0.205 C 
ATOM     35  O4  GG9 d          54.435  12.401  26.458  0.00  0.00    -0.644 OA
ATOM     36  O5  GG9 d          56.385  13.270  26.658  0.00  0.00    -0.644 OA
ENDBRANCH   1  34
TORSDOF 10
ENDMDL
