REMARK  2 active torsions:
REMARK  status: ('A' for Active; 'I' for Inactive)
REMARK    1  A    between atoms: C6_3  and  S_5 
REMARK    2  A    between atoms: S_5  and  N_10 
ROOT
ATOM      1  C4  SKF d          28.348  46.037  16.783  0.00  0.00    -0.075 A 
ATOM      2  C5  SKF d          27.899  45.532  15.570  0.00  0.00    -0.060 A 
ATOM      3  C6  SKF d          27.822  44.147  15.385  0.00  0.00     0.080 A 
ATOM      4  C7  SKF d          28.193  43.286  16.410  0.00  0.00    -0.052 A 
ATOM      5  C8  SKF d          28.642  43.790  17.616  0.00  0.00    -0.025 A 
ATOM      6  C9  SKF d          28.720  45.174  17.807  0.00  0.00    -0.049 A 
ATOM      7  C1  SKF d          28.965  42.843  18.744  0.00  0.00     0.106 C 
ATOM      8  C2  SKF d          29.211  44.848  20.194  0.00  0.00     0.086 C 
ATOM      9  C3  SKF d          29.488  45.705  18.978  0.00  0.00    -0.018 C 
ATOM     10  N1  SKF d          29.700  43.483  19.860  0.00  0.00    -0.071 N 
ATOM     11  H1  SKF d          28.409  47.109  16.932  0.00  0.00     0.084 H 
ATOM     12  H2  SKF d          27.610  46.206  14.772  0.00  0.00     0.085 H 
ATOM     13  H3  SKF d          28.130  42.214  16.263  0.00  0.00     0.086 H 
ATOM     14  H6  SKF d          29.581  42.024  18.345  0.00  0.00     0.083 H 
ATOM     15  H7  SKF d          28.022  42.435  19.137  0.00  0.00     0.083 H 
ATOM     16  H8  SKF d          28.132  44.825  20.407  0.00  0.00     0.076 H 
ATOM     17  H9  SKF d          29.749  45.242  21.069  0.00  0.00     0.076 H 
ATOM     18  H10 SKF d          29.177  46.740  19.181  0.00  0.00     0.042 H 
ATOM     19  H11 SKF d          30.564  45.683  18.751  0.00  0.00     0.042 H 
ATOM     20  H12 SKF d          30.673  43.547  19.605  0.00  0.00     0.277 HD
ATOM     21  H13 SKF d          29.605  42.902  20.678  0.00  0.00     0.277 HD
ENDROOT
BRANCH   3  22
ATOM     22  S   SKF d          27.261  43.490  13.847  0.00  0.00     0.256 S 
ATOM     23  O1  SKF d          27.485  44.430  12.770  0.00  0.00    -0.201 OA
ATOM     24  O2  SKF d          25.866  43.133  13.873  0.00  0.00    -0.201 OA
BRANCH  22  25
ATOM     25  N   SKF d          28.105  42.187  13.573  0.00  0.00    -0.324 N 
ATOM     26  H4  SKF d          27.945  41.653  12.743  0.00  0.00     0.169 HD
ATOM     27  H5  SKF d          28.800  41.895  14.229  0.00  0.00     0.169 HD
ENDBRANCH  22  25
ENDBRANCH   3  22
TORSDOF 2
