MODEL 1
REMARK VINA RESULT:      -6.0      0.000      0.000
REMARK  4 active torsions:
REMARK  status: ('A' for Active; 'I' for Inactive)
REMARK    1  A    between atoms: C14_6  and  N2_7 
REMARK    2  A    between atoms: C9_8  and  C8_9 
REMARK       I    between atoms: C8_9  and  N1_11 
REMARK    3  A    between atoms: C4_13  and  C5_14 
REMARK    4  A    between atoms: C2_17  and  C1_18 
ROOT
ATOM      1  C8  SX3 d         -24.852   7.724 -15.850  0.00  0.00     0.256 C 
ATOM      2  O1  SX3 d         -25.570   6.860 -16.354  0.00  0.00    -0.267 OA
ATOM      3  N1  SX3 d         -23.544   7.902 -16.329  0.00  0.00    -0.347 N 
ATOM      4  C6  SX3 d         -22.625   8.785 -15.600  0.00  0.00     0.001 C 
ATOM      5  C4  SX3 d         -21.347   8.090 -15.150  0.00  0.00    -0.042 C 
ATOM      6  C3  SX3 d         -20.668   7.411 -16.331  0.00  0.00    -0.056 C 
ATOM      7  C7  SX3 d         -22.930   7.037 -17.357  0.00  0.00     0.001 C 
ATOM      8  C2  SX3 d         -21.603   6.406 -16.989  0.00  0.00    -0.042 C 
ATOM      9  H6  SX3 d         -23.144   9.171 -14.710  0.00  0.00     0.065 H 
ATOM     10  H7  SX3 d         -22.352   9.624 -16.258  0.00  0.00     0.065 H 
ATOM     11  H8  SX3 d         -21.602   7.321 -14.407  0.00  0.00     0.042 H 
ATOM     12  H12 SX3 d         -19.767   6.887 -15.976  0.00  0.00     0.034 H 
ATOM     13  H13 SX3 d         -20.380   8.174 -17.069  0.00  0.00     0.034 H 
ATOM     14  H14 SX3 d         -22.775   7.646 -18.260  0.00  0.00     0.065 H 
ATOM     15  H15 SX3 d         -23.638   6.225 -17.579  0.00  0.00     0.065 H 
ATOM     16  H16 SX3 d         -21.793   5.588 -16.279  0.00  0.00     0.042 H 
ENDROOT
BRANCH   1  17
ATOM     17  C9  SX3 d         -25.503   8.525 -14.783  0.00  0.00     0.059 A 
ATOM     18  C10 SX3 d         -25.955   9.798 -15.156  0.00  0.00    -0.049 A 
ATOM     19  C11 SX3 d         -26.545  10.633 -14.201  0.00  0.00     0.012 A 
ATOM     20  H1  SX3 d         -25.847  10.134 -16.180  0.00  0.00     0.087 H 
ATOM     21 BR1  SX3 d         -27.149  12.334 -14.770  0.00  0.00    -0.051 Br
ATOM     22  C12 SX3 d         -26.698  10.228 -12.870  0.00  0.00    -0.064 A 
ATOM     23  C13 SX3 d         -26.249   8.944 -12.505  0.00  0.00    -0.055 A 
ATOM     24  H2  SX3 d         -27.151  10.887 -12.138  0.00  0.00     0.085 H 
ATOM     25  C14 SX3 d         -25.638   8.080 -13.440  0.00  0.00     0.041 A 
ATOM     26  H3  SX3 d         -26.375   8.611 -11.481  0.00  0.00     0.087 H 
BRANCH  25  27
ATOM     27  N2  SX3 d         -25.193   6.821 -13.005  0.00  0.00    -0.398 N 
ATOM     28  H4  SX3 d         -25.853   6.166 -12.561  0.00  0.00     0.156 HD
ATOM     29  H5  SX3 d         -24.206   6.552 -13.129  0.00  0.00     0.156 HD
ENDBRANCH  25  27
ENDBRANCH   1  17
BRANCH   5  30
ATOM     30  C5  SX3 d         -20.438   9.111 -14.499  0.00  0.00    -0.071 C 
ATOM     31  H9  SX3 d         -20.238   9.928 -15.208  0.00  0.00     0.028 H 
ATOM     32  H10 SX3 d         -19.490   8.630 -14.217  0.00  0.00     0.028 H 
ATOM     33  H11 SX3 d         -20.926   9.516 -13.600  0.00  0.00     0.028 H 
ENDBRANCH   5  30
BRANCH   8  34
ATOM     34  C1  SX3 d         -20.931   5.831 -18.234  0.00  0.00    -0.071 C 
ATOM     35  H17 SX3 d         -21.696   5.596 -18.989  0.00  0.00     0.028 H 
ATOM     36  H18 SX3 d         -20.387   4.912 -17.966  0.00  0.00     0.028 H 
ATOM     37  H19 SX3 d         -20.226   6.568 -18.644  0.00  0.00     0.028 H 
ENDBRANCH   8  34
TORSDOF 4
ENDMDL
MODEL 2
REMARK VINA RESULT:      -5.9      2.734      6.091
REMARK  4 active torsions:
REMARK  status: ('A' for Active; 'I' for Inactive)
REMARK    1  A    between atoms: C14_6  and  N2_7 
REMARK    2  A    between atoms: C9_8  and  C8_9 
REMARK       I    between atoms: C8_9  and  N1_11 
REMARK    3  A    between atoms: C4_13  and  C5_14 
REMARK    4  A    between atoms: C2_17  and  C1_18 
ROOT
ATOM      1  C8  SX3 d         -24.619  10.420 -16.411  0.00  0.00     0.256 C 
ATOM      2  O1  SX3 d         -24.258  11.284 -17.209  0.00  0.00    -0.267 OA
ATOM      3  N1  SX3 d         -25.859  10.552 -15.763  0.00  0.00    -0.347 N 
ATOM      4  C6  SX3 d         -26.200   9.637 -14.668  0.00  0.00     0.001 C 
ATOM      5  C4  SX3 d         -26.516  10.348 -13.359  0.00  0.00    -0.042 C 
ATOM      6  C3  SX3 d         -27.592  11.403 -13.575  0.00  0.00    -0.056 C 
ATOM      7  C7  SX3 d         -26.731  11.735 -15.912  0.00  0.00     0.001 C 
ATOM      8  C2  SX3 d         -27.156  12.415 -14.627  0.00  0.00    -0.042 C 
ATOM      9  H6  SX3 d         -25.348   8.961 -14.500  0.00  0.00     0.065 H 
ATOM     10  H7  SX3 d         -27.081   9.049 -14.966  0.00  0.00     0.065 H 
ATOM     11  H8  SX3 d         -25.607  10.850 -12.997  0.00  0.00     0.042 H 
ATOM     12  H12 SX3 d         -27.778  11.928 -12.626  0.00  0.00     0.034 H 
ATOM     13  H13 SX3 d         -28.517  10.911 -13.910  0.00  0.00     0.034 H 
ATOM     14  H14 SX3 d         -27.642  11.416 -16.441  0.00  0.00     0.065 H 
ATOM     15  H15 SX3 d         -26.193  12.475 -16.522  0.00  0.00     0.065 H 
ATOM     16  H16 SX3 d         -26.298  12.979 -14.234  0.00  0.00     0.042 H 
ENDROOT
BRANCH   1  17
ATOM     17  C9  SX3 d         -23.677   9.283 -16.258  0.00  0.00     0.059 A 
ATOM     18  C10 SX3 d         -22.547   9.521 -15.464  0.00  0.00    -0.049 A 
ATOM     19  C11 SX3 d         -21.589   8.514 -15.301  0.00  0.00     0.012 A 
ATOM     20  H1  SX3 d         -22.416  10.481 -14.979  0.00  0.00     0.087 H 
ATOM     21 BR1  SX3 d         -20.094   8.891 -14.203  0.00  0.00    -0.051 Br
ATOM     22  C12 SX3 d         -21.730   7.264 -15.914  0.00  0.00    -0.064 A 
ATOM     23  C13 SX3 d         -22.873   7.030 -16.703  0.00  0.00    -0.055 A 
ATOM     24  H2  SX3 d         -20.977   6.494 -15.784  0.00  0.00     0.085 H 
ATOM     25  C14 SX3 d         -23.853   8.027 -16.900  0.00  0.00     0.041 A 
ATOM     26  H3  SX3 d         -23.002   6.062 -17.172  0.00  0.00     0.087 H 
BRANCH  25  27
ATOM     27  N2  SX3 d         -24.957   7.736 -17.717  0.00  0.00    -0.398 N 
ATOM     28  H4  SX3 d         -24.811   7.428 -18.690  0.00  0.00     0.156 HD
ATOM     29  H5  SX3 d         -25.913   7.830 -17.345  0.00  0.00     0.156 HD
ENDBRANCH  25  27
ENDBRANCH   1  17
BRANCH   5  30
ATOM     30  C5  SX3 d         -26.945   9.320 -12.334  0.00  0.00    -0.071 C 
ATOM     31  H9  SX3 d         -27.717   9.754 -11.682  0.00  0.00     0.028 H 
ATOM     32  H10 SX3 d         -26.076   9.024 -11.727  0.00  0.00     0.028 H 
ATOM     33  H11 SX3 d         -27.352   8.437 -12.848  0.00  0.00     0.028 H 
ENDBRANCH   5  30
BRANCH   8  34
ATOM     34  C1  SX3 d         -28.302  13.386 -14.899  0.00  0.00    -0.071 C 
ATOM     35  H17 SX3 d         -28.721  13.190 -15.897  0.00  0.00     0.028 H 
ATOM     36  H18 SX3 d         -27.925  14.419 -14.857  0.00  0.00     0.028 H 
ATOM     37  H19 SX3 d         -29.086  13.251 -14.139  0.00  0.00     0.028 H 
ENDBRANCH   8  34
TORSDOF 4
ENDMDL
MODEL 3
REMARK VINA RESULT:      -5.6      2.427      3.545
REMARK  4 active torsions:
REMARK  status: ('A' for Active; 'I' for Inactive)
REMARK    1  A    between atoms: C14_6  and  N2_7 
REMARK    2  A    between atoms: C9_8  and  C8_9 
REMARK       I    between atoms: C8_9  and  N1_11 
REMARK    3  A    between atoms: C4_13  and  C5_14 
REMARK    4  A    between atoms: C2_17  and  C1_18 
ROOT
ATOM      1  C8  SX3 d         -24.182  10.473 -16.509  0.00  0.00     0.256 C 
ATOM      2  O1  SX3 d         -23.498  11.181 -17.248  0.00  0.00    -0.267 OA
ATOM      3  N1  SX3 d         -23.550   9.589 -15.620  0.00  0.00    -0.347 N 
ATOM      4  C6  SX3 d         -24.356   8.605 -14.888  0.00  0.00     0.001 C 
ATOM      5  C4  SX3 d         -23.922   7.165 -15.129  0.00  0.00    -0.042 C 
ATOM      6  C3  SX3 d         -22.436   7.005 -14.847  0.00  0.00    -0.056 C 
ATOM      7  C7  SX3 d         -22.088   9.382 -15.581  0.00  0.00     0.001 C 
ATOM      8  C2  SX3 d         -21.614   7.949 -15.714  0.00  0.00    -0.042 C 
ATOM      9  H6  SX3 d         -25.405   8.710 -15.203  0.00  0.00     0.065 H 
ATOM     10  H7  SX3 d         -24.274   8.818 -13.812  0.00  0.00     0.065 H 
ATOM     11  H8  SX3 d         -24.105   6.910 -16.183  0.00  0.00     0.042 H 
ATOM     12  H12 SX3 d         -22.138   5.967 -15.062  0.00  0.00     0.034 H 
ATOM     13  H13 SX3 d         -22.244   7.229 -13.787  0.00  0.00     0.034 H 
ATOM     14  H14 SX3 d         -21.718   9.771 -14.621  0.00  0.00     0.065 H 
ATOM     15  H15 SX3 d         -21.645   9.960 -16.405  0.00  0.00     0.065 H 
ATOM     16  H16 SX3 d         -21.725   7.644 -16.765  0.00  0.00     0.042 H 
ENDROOT
BRANCH   1  17
ATOM     17  C9  SX3 d         -25.646  10.683 -16.631  0.00  0.00     0.059 A 
ATOM     18  C10 SX3 d         -26.200  11.668 -15.803  0.00  0.00    -0.049 A 
ATOM     19  C11 SX3 d         -27.578  11.903 -15.828  0.00  0.00     0.012 A 
ATOM     20  H1  SX3 d         -25.561  12.247 -15.146  0.00  0.00     0.087 H 
ATOM     21 BR1  SX3 d         -28.262  13.259 -14.699  0.00  0.00    -0.051 Br
ATOM     22  C12 SX3 d         -28.429  11.172 -16.665  0.00  0.00    -0.064 A 
ATOM     23  C13 SX3 d         -27.865  10.188 -17.500  0.00  0.00    -0.055 A 
ATOM     24  H2  SX3 d         -29.498  11.358 -16.670  0.00  0.00     0.085 H 
ATOM     25  C14 SX3 d         -26.479   9.917 -17.492  0.00  0.00     0.041 A 
ATOM     26  H3  SX3 d         -28.510   9.626 -18.165  0.00  0.00     0.087 H 
BRANCH  25  27
ATOM     27  N2  SX3 d         -25.984   8.908 -18.334  0.00  0.00    -0.398 N 
ATOM     28  H4  SX3 d         -26.086   8.993 -19.356  0.00  0.00     0.156 HD
ATOM     29  H5  SX3 d         -25.518   8.083 -17.930  0.00  0.00     0.156 HD
ENDBRANCH  25  27
ENDBRANCH   1  17
BRANCH   5  30
ATOM     30  C5  SX3 d         -24.755   6.250 -14.257  0.00  0.00    -0.071 C 
ATOM     31  H9  SX3 d         -24.226   5.296 -14.118  0.00  0.00     0.028 H 
ATOM     32  H10 SX3 d         -25.725   6.065 -14.741  0.00  0.00     0.028 H 
ATOM     33  H11 SX3 d         -24.919   6.725 -13.278  0.00  0.00     0.028 H 
ENDBRANCH   5  30
BRANCH   8  34
ATOM     34  C1  SX3 d         -20.142   7.842 -15.323  0.00  0.00    -0.071 C 
ATOM     35  H17 SX3 d         -20.063   7.497 -14.281  0.00  0.00     0.028 H 
ATOM     36  H18 SX3 d         -19.664   8.829 -15.419  0.00  0.00     0.028 H 
ATOM     37  H19 SX3 d         -19.637   7.124 -15.986  0.00  0.00     0.028 H 
ENDBRANCH   8  34
TORSDOF 4
ENDMDL
MODEL 4
REMARK VINA RESULT:      -5.3      2.412      5.812
REMARK  4 active torsions:
REMARK  status: ('A' for Active; 'I' for Inactive)
REMARK    1  A    between atoms: C14_6  and  N2_7 
REMARK    2  A    between atoms: C9_8  and  C8_9 
REMARK       I    between atoms: C8_9  and  N1_11 
REMARK    3  A    between atoms: C4_13  and  C5_14 
REMARK    4  A    between atoms: C2_17  and  C1_18 
ROOT
ATOM      1  C8  SX3 d         -24.978   7.056 -14.368  0.00  0.00     0.256 C 
ATOM      2  O1  SX3 d         -25.379   5.927 -14.086  0.00  0.00    -0.267 OA
ATOM      3  N1  SX3 d         -25.659   8.177 -13.867  0.00  0.00    -0.347 N 
ATOM      4  C6  SX3 d         -25.308   9.514 -14.363  0.00  0.00     0.001 C 
ATOM      5  C4  SX3 d         -26.486  10.261 -14.975  0.00  0.00    -0.042 C 
ATOM      6  C3  SX3 d         -27.652  10.305 -13.999  0.00  0.00    -0.056 C 
ATOM      7  C7  SX3 d         -26.908   8.086 -13.084  0.00  0.00     0.001 C 
ATOM      8  C2  SX3 d         -28.078   8.898 -13.600  0.00  0.00    -0.042 C 
ATOM      9  H6  SX3 d         -24.527   9.407 -15.130  0.00  0.00     0.065 H 
ATOM     10  H7  SX3 d         -24.918  10.106 -13.522  0.00  0.00     0.065 H 
ATOM     11  H8  SX3 d         -26.812   9.731 -15.882  0.00  0.00     0.042 H 
ATOM     12  H12 SX3 d         -28.501  10.817 -14.475  0.00  0.00     0.034 H 
ATOM     13  H13 SX3 d         -27.348  10.858 -13.098  0.00  0.00     0.034 H 
ATOM     14  H14 SX3 d         -26.689   8.425 -12.060  0.00  0.00     0.065 H 
ATOM     15  H15 SX3 d         -27.215   7.030 -13.062  0.00  0.00     0.065 H 
ATOM     16  H16 SX3 d         -28.486   8.392 -14.487  0.00  0.00     0.042 H 
ENDROOT
BRANCH   1  17
ATOM     17  C9  SX3 d         -23.753   7.087 -15.205  0.00  0.00     0.059 A 
ATOM     18  C10 SX3 d         -22.685   7.847 -14.708  0.00  0.00    -0.049 A 
ATOM     19  C11 SX3 d         -21.507   7.961 -15.453  0.00  0.00     0.012 A 
ATOM     20  H1  SX3 d         -22.773   8.346 -13.750  0.00  0.00     0.087 H 
ATOM     21 BR1  SX3 d         -20.096   8.988 -14.720  0.00  0.00    -0.051 Br
ATOM     22  C12 SX3 d         -21.363   7.329 -16.694  0.00  0.00    -0.064 A 
ATOM     23  C13 SX3 d         -22.436   6.561 -17.183  0.00  0.00    -0.055 A 
ATOM     24  H2  SX3 d         -20.446   7.430 -17.265  0.00  0.00     0.085 H 
ATOM     25  C14 SX3 d         -23.645   6.434 -16.463  0.00  0.00     0.041 A 
ATOM     26  H3  SX3 d         -22.333   6.054 -18.135  0.00  0.00     0.087 H 
BRANCH  25  27
ATOM     27  N2  SX3 d         -24.684   5.670 -17.018  0.00  0.00    -0.398 N 
ATOM     28  H4  SX3 d         -25.484   5.388 -16.433  0.00  0.00     0.156 HD
ATOM     29  H5  SX3 d         -24.647   5.393 -18.009  0.00  0.00     0.156 HD
ENDBRANCH  25  27
ENDBRANCH   1  17
BRANCH   5  30
ATOM     30  C5  SX3 d         -26.033  11.653 -15.362  0.00  0.00    -0.071 C 
ATOM     31  H9  SX3 d         -25.544  11.618 -16.347  0.00  0.00     0.028 H 
ATOM     32  H10 SX3 d         -25.322  12.029 -14.612  0.00  0.00     0.028 H 
ATOM     33  H11 SX3 d         -26.905  12.322 -15.409  0.00  0.00     0.028 H 
ENDBRANCH   5  30
BRANCH   8  34
ATOM     34  C1  SX3 d         -29.171   8.983 -12.536  0.00  0.00    -0.071 C 
ATOM     35  H17 SX3 d         -29.772   9.890 -12.700  0.00  0.00     0.028 H 
ATOM     36  H18 SX3 d         -28.708   9.026 -11.539  0.00  0.00     0.028 H 
ATOM     37  H19 SX3 d         -29.818   8.097 -12.603  0.00  0.00     0.028 H 
ENDBRANCH   8  34
TORSDOF 4
ENDMDL
MODEL 5
REMARK VINA RESULT:      -5.1      2.558      6.056
REMARK  4 active torsions:
REMARK  status: ('A' for Active; 'I' for Inactive)
REMARK    1  A    between atoms: C14_6  and  N2_7 
REMARK    2  A    between atoms: C9_8  and  C8_9 
REMARK       I    between atoms: C8_9  and  N1_11 
REMARK    3  A    between atoms: C4_13  and  C5_14 
REMARK    4  A    between atoms: C2_17  and  C1_18 
ROOT
ATOM      1  C8  SX3 d         -25.292   8.515 -14.154  0.00  0.00     0.256 C 
ATOM      2  O1  SX3 d         -25.734   7.542 -13.542  0.00  0.00    -0.267 OA
ATOM      3  N1  SX3 d         -25.791   9.796 -13.869  0.00  0.00    -0.347 N 
ATOM      4  C6  SX3 d         -25.416  10.923 -14.732  0.00  0.00     0.001 C 
ATOM      5  C4  SX3 d         -26.610  11.635 -15.352  0.00  0.00    -0.042 C 
ATOM      6  C3  SX3 d         -27.600  12.050 -14.273  0.00  0.00    -0.056 C 
ATOM      7  C7  SX3 d         -26.904  10.044 -12.930  0.00  0.00     0.001 C 
ATOM      8  C2  SX3 d         -28.071  10.841 -13.476  0.00  0.00    -0.042 C 
ATOM      9  H6  SX3 d         -24.777  10.544 -15.543  0.00  0.00     0.065 H 
ATOM     10  H7  SX3 d         -24.851  11.650 -14.129  0.00  0.00     0.065 H 
ATOM     11  H8  SX3 d         -27.118  10.946 -16.042  0.00  0.00     0.042 H 
ATOM     12  H12 SX3 d         -28.470  12.530 -14.747  0.00  0.00     0.034 H 
ATOM     13  H13 SX3 d         -27.113  12.764 -13.592  0.00  0.00     0.034 H 
ATOM     14  H14 SX3 d         -26.499  10.591 -12.065  0.00  0.00     0.065 H 
ATOM     15  H15 SX3 d         -27.288   9.069 -12.599  0.00  0.00     0.065 H 
ATOM     16  H16 SX3 d         -28.654  10.189 -14.143  0.00  0.00     0.042 H 
ENDROOT
BRANCH   1  17
ATOM     17  C9  SX3 d         -24.216   8.199 -15.125  0.00  0.00     0.059 A 
ATOM     18  C10 SX3 d         -22.908   8.488 -14.714  0.00  0.00    -0.049 A 
ATOM     19  C11 SX3 d         -21.838   8.257 -15.585  0.00  0.00     0.012 A 
ATOM     20  H1  SX3 d         -22.726   8.891 -13.724  0.00  0.00     0.087 H 
ATOM     21 BR1  SX3 d         -20.094   8.653 -14.963  0.00  0.00    -0.051 Br
ATOM     22  C12 SX3 d         -22.039   7.738 -16.869  0.00  0.00    -0.064 A 
ATOM     23  C13 SX3 d         -23.356   7.442 -17.272  0.00  0.00    -0.055 A 
ATOM     24  H2  SX3 d         -21.202   7.569 -17.537  0.00  0.00     0.085 H 
ATOM     25  C14 SX3 d         -24.460   7.674 -16.424  0.00  0.00     0.041 A 
ATOM     26  H3  SX3 d         -23.525   7.025 -18.258  0.00  0.00     0.087 H 
BRANCH  25  27
ATOM     27  N2  SX3 d         -25.749   7.377 -16.896  0.00  0.00    -0.398 N 
ATOM     28  H4  SX3 d         -26.145   6.436 -16.755  0.00  0.00     0.156 HD
ATOM     29  H5  SX3 d         -26.298   8.099 -17.384  0.00  0.00     0.156 HD
ENDBRANCH  25  27
ENDBRANCH   1  17
BRANCH   5  30
ATOM     30  C5  SX3 d         -26.113  12.830 -16.138  0.00  0.00    -0.071 C 
ATOM     31  H9  SX3 d         -25.723  13.589 -15.444  0.00  0.00     0.028 H 
ATOM     32  H10 SX3 d         -26.944  13.257 -16.719  0.00  0.00     0.028 H 
ATOM     33  H11 SX3 d         -25.312  12.511 -16.822  0.00  0.00     0.028 H 
ENDBRANCH   5  30
BRANCH   8  34
ATOM     34  C1  SX3 d         -28.971  11.308 -12.334  0.00  0.00    -0.071 C 
ATOM     35  H17 SX3 d         -29.930  10.772 -12.380  0.00  0.00     0.028 H 
ATOM     36  H18 SX3 d         -29.151  12.390 -12.428  0.00  0.00     0.028 H 
ATOM     37  H19 SX3 d         -28.480  11.100 -11.372  0.00  0.00     0.028 H 
ENDBRANCH   8  34
TORSDOF 4
ENDMDL
MODEL 6
REMARK VINA RESULT:      -5.1      1.673      2.337
REMARK  4 active torsions:
REMARK  status: ('A' for Active; 'I' for Inactive)
REMARK    1  A    between atoms: C14_6  and  N2_7 
REMARK    2  A    between atoms: C9_8  and  C8_9 
REMARK       I    between atoms: C8_9  and  N1_11 
REMARK    3  A    between atoms: C4_13  and  C5_14 
REMARK    4  A    between atoms: C2_17  and  C1_18 
ROOT
ATOM      1  C8  SX3 d         -24.580   8.652 -16.628  0.00  0.00     0.256 C 
ATOM      2  O1  SX3 d         -25.349   7.943 -17.278  0.00  0.00    -0.267 OA
ATOM      3  N1  SX3 d         -23.194   8.493 -16.785  0.00  0.00    -0.347 N 
ATOM      4  C6  SX3 d         -22.281   9.189 -15.869  0.00  0.00     0.001 C 
ATOM      5  C4  SX3 d         -21.343   8.252 -15.121  0.00  0.00    -0.042 C 
ATOM      6  C3  SX3 d         -20.595   7.357 -16.098  0.00  0.00    -0.056 C 
ATOM      7  C7  SX3 d         -22.587   7.442 -17.627  0.00  0.00     0.001 C 
ATOM      8  C2  SX3 d         -21.568   6.550 -16.948  0.00  0.00    -0.042 C 
ATOM      9  H6  SX3 d         -22.882   9.743 -15.133  0.00  0.00     0.065 H 
ATOM     10  H7  SX3 d         -21.674   9.896 -16.454  0.00  0.00     0.065 H 
ATOM     11  H8  SX3 d         -21.936   7.614 -14.450  0.00  0.00     0.042 H 
ATOM     12  H12 SX3 d         -19.951   6.666 -15.534  0.00  0.00     0.034 H 
ATOM     13  H13 SX3 d         -19.974   7.982 -16.756  0.00  0.00     0.034 H 
ATOM     14  H14 SX3 d         -22.089   7.937 -18.475  0.00  0.00     0.065 H 
ATOM     15  H15 SX3 d         -23.398   6.801 -18.002  0.00  0.00     0.065 H 
ATOM     16  H16 SX3 d         -22.104   5.848 -16.293  0.00  0.00     0.042 H 
ENDROOT
BRANCH   1  17
ATOM     17  C9  SX3 d         -25.246   9.651 -15.756  0.00  0.00     0.059 A 
ATOM     18  C10 SX3 d         -25.966   9.138 -14.668  0.00  0.00    -0.049 A 
ATOM     19  C11 SX3 d         -26.656  10.010 -13.818  0.00  0.00     0.012 A 
ATOM     20  H1  SX3 d         -25.989   8.070 -14.486  0.00  0.00     0.087 H 
ATOM     21 BR1  SX3 d         -27.595   9.257 -12.358  0.00  0.00    -0.051 Br
ATOM     22  C12 SX3 d         -26.647  11.394 -14.027  0.00  0.00    -0.064 A 
ATOM     23  C13 SX3 d         -25.915  11.902 -15.117  0.00  0.00    -0.055 A 
ATOM     24  H2  SX3 d         -27.191  12.059 -13.365  0.00  0.00     0.085 H 
ATOM     25  C14 SX3 d         -25.217  11.051 -16.002  0.00  0.00     0.041 A 
ATOM     26  H3  SX3 d         -25.886  12.973 -15.281  0.00  0.00     0.087 H 
BRANCH  25  27
ATOM     27  N2  SX3 d         -24.525  11.621 -17.082  0.00  0.00    -0.398 N 
ATOM     28  H4  SX3 d         -24.985  11.710 -18.000  0.00  0.00     0.156 HD
ATOM     29  H5  SX3 d         -23.557  11.951 -16.957  0.00  0.00     0.156 HD
ENDBRANCH  25  27
ENDBRANCH   1  17
BRANCH   5  30
ATOM     30  C5  SX3 d         -20.390   9.080 -14.285  0.00  0.00    -0.071 C 
ATOM     31  H9  SX3 d         -19.545   9.407 -14.909  0.00  0.00     0.028 H 
ATOM     32  H10 SX3 d         -20.014   8.472 -13.448  0.00  0.00     0.028 H 
ATOM     33  H11 SX3 d         -20.918   9.961 -13.890  0.00  0.00     0.028 H 
ENDBRANCH   5  30
BRANCH   8  34
ATOM     34  C1  SX3 d         -20.787   5.753 -17.990  0.00  0.00    -0.071 C 
ATOM     35  H17 SX3 d         -21.451   5.497 -18.829  0.00  0.00     0.028 H 
ATOM     36  H18 SX3 d         -20.401   4.830 -17.533  0.00  0.00     0.028 H 
ATOM     37  H19 SX3 d         -19.947   6.359 -18.361  0.00  0.00     0.028 H 
ENDBRANCH   8  34
TORSDOF 4
ENDMDL
MODEL 7
REMARK VINA RESULT:      -5.0      2.888      3.931
REMARK  4 active torsions:
REMARK  status: ('A' for Active; 'I' for Inactive)
REMARK    1  A    between atoms: C14_6  and  N2_7 
REMARK    2  A    between atoms: C9_8  and  C8_9 
REMARK       I    between atoms: C8_9  and  N1_11 
REMARK    3  A    between atoms: C4_13  and  C5_14 
REMARK    4  A    between atoms: C2_17  and  C1_18 
ROOT
ATOM      1  C8  SX3 d         -24.335  10.403 -16.523  0.00  0.00     0.256 C 
ATOM      2  O1  SX3 d         -23.703  11.206 -17.209  0.00  0.00    -0.267 OA
ATOM      3  N1  SX3 d         -23.645   9.542 -15.654  0.00  0.00    -0.347 N 
ATOM      4  C6  SX3 d         -24.373   8.453 -14.991  0.00  0.00     0.001 C 
ATOM      5  C4  SX3 d         -23.796   7.074 -15.281  0.00  0.00    -0.042 C 
ATOM      6  C3  SX3 d         -22.309   7.043 -14.959  0.00  0.00    -0.056 C 
ATOM      7  C7  SX3 d         -22.172   9.474 -15.578  0.00  0.00     0.001 C 
ATOM      8  C2  SX3 d         -21.558   8.100 -15.758  0.00  0.00    -0.042 C 
ATOM      9  H6  SX3 d         -25.418   8.473 -15.335  0.00  0.00     0.065 H 
ATOM     10  H7  SX3 d         -24.341   8.623 -13.904  0.00  0.00     0.065 H 
ATOM     11  H8  SX3 d         -23.924   6.851 -16.350  0.00  0.00     0.042 H 
ATOM     12  H12 SX3 d         -21.906   6.050 -15.209  0.00  0.00     0.034 H 
ATOM     13  H13 SX3 d         -22.168   7.236 -13.885  0.00  0.00     0.034 H 
ATOM     14  H14 SX3 d         -21.868   9.851 -14.590  0.00  0.00     0.065 H 
ATOM     15  H15 SX3 d         -21.764  10.129 -16.361  0.00  0.00     0.065 H 
ATOM     16  H16 SX3 d         -21.610   7.835 -16.823  0.00  0.00     0.042 H 
ENDROOT
BRANCH   1  17
ATOM     17  C9  SX3 d         -25.808  10.477 -16.682  0.00  0.00     0.059 A 
ATOM     18  C10 SX3 d         -26.421   9.371 -17.287  0.00  0.00    -0.049 A 
ATOM     19  C11 SX3 d         -27.802   9.377 -17.510  0.00  0.00     0.012 A 
ATOM     20  H1  SX3 d         -25.826   8.515 -17.582  0.00  0.00     0.087 H 
ATOM     21 BR1  SX3 d         -28.571   7.847 -18.315  0.00  0.00    -0.051 Br
ATOM     22  C12 SX3 d         -28.597  10.468 -17.142  0.00  0.00    -0.064 A 
ATOM     23  C13 SX3 d         -27.976  11.573 -16.527  0.00  0.00    -0.055 A 
ATOM     24  H2  SX3 d         -29.666  10.464 -17.326  0.00  0.00     0.085 H 
ATOM     25  C14 SX3 d         -26.583  11.606 -16.298  0.00  0.00     0.041 A 
ATOM     26  H3  SX3 d         -28.582  12.418 -16.223  0.00  0.00     0.087 H 
BRANCH  25  27
ATOM     27  N2  SX3 d         -26.024  12.747 -15.701  0.00  0.00    -0.398 N 
ATOM     28  H4  SX3 d         -25.239  12.651 -15.040  0.00  0.00     0.156 HD
ATOM     29  H5  SX3 d         -26.399  13.680 -15.922  0.00  0.00     0.156 HD
ENDBRANCH  25  27
ENDBRANCH   1  17
BRANCH   5  30
ATOM     30  C5  SX3 d         -24.560   6.045 -14.476  0.00  0.00    -0.071 C 
ATOM     31  H9  SX3 d         -24.444   5.055 -14.942  0.00  0.00     0.028 H 
ATOM     32  H10 SX3 d         -25.626   6.316 -14.452  0.00  0.00     0.028 H 
ATOM     33  H11 SX3 d         -24.165   6.015 -13.449  0.00  0.00     0.028 H 
ENDBRANCH   5  30
BRANCH   8  34
ATOM     34  C1  SX3 d         -20.094   8.116 -15.325  0.00  0.00    -0.071 C 
ATOM     35  H17 SX3 d         -19.883   9.047 -14.778  0.00  0.00     0.028 H 
ATOM     36  H18 SX3 d         -19.448   8.059 -16.214  0.00  0.00     0.028 H 
ATOM     37  H19 SX3 d         -19.895   7.254 -14.672  0.00  0.00     0.028 H 
ENDBRANCH   8  34
TORSDOF 4
ENDMDL
MODEL 8
REMARK VINA RESULT:      -5.0      2.612      5.974
REMARK  4 active torsions:
REMARK  status: ('A' for Active; 'I' for Inactive)
REMARK    1  A    between atoms: C14_6  and  N2_7 
REMARK    2  A    between atoms: C9_8  and  C8_9 
REMARK       I    between atoms: C8_9  and  N1_11 
REMARK    3  A    between atoms: C4_13  and  C5_14 
REMARK    4  A    between atoms: C2_17  and  C1_18 
ROOT
ATOM      1  C8  SX3 d         -25.064   9.614 -15.947  0.00  0.00     0.256 C 
ATOM      2  O1  SX3 d         -25.081  10.813 -16.223  0.00  0.00    -0.267 OA
ATOM      3  N1  SX3 d         -26.226   9.003 -15.446  0.00  0.00    -0.347 N 
ATOM      4  C6  SX3 d         -26.152   7.632 -14.928  0.00  0.00     0.001 C 
ATOM      5  C4  SX3 d         -26.609   7.505 -13.480  0.00  0.00    -0.042 C 
ATOM      6  C3  SX3 d         -27.997   8.105 -13.307  0.00  0.00    -0.056 C 
ATOM      7  C7  SX3 d         -27.464   9.746 -15.134  0.00  0.00     0.001 C 
ATOM      8  C2  SX3 d         -28.012   9.567 -13.733  0.00  0.00    -0.042 C 
ATOM      9  H6  SX3 d         -25.109   7.289 -14.995  0.00  0.00     0.065 H 
ATOM     10  H7  SX3 d         -26.790   6.989 -15.552  0.00  0.00     0.065 H 
ATOM     11  H8  SX3 d         -25.910   8.058 -12.836  0.00  0.00     0.042 H 
ATOM     12  H12 SX3 d         -28.290   8.034 -12.249  0.00  0.00     0.034 H 
ATOM     13  H13 SX3 d         -28.712   7.542 -13.925  0.00  0.00     0.034 H 
ATOM     14  H14 SX3 d         -28.239   9.420 -15.843  0.00  0.00     0.065 H 
ATOM     15  H15 SX3 d         -27.260  10.817 -15.281  0.00  0.00     0.065 H 
ATOM     16  H16 SX3 d         -27.381  10.140 -13.038  0.00  0.00     0.042 H 
ENDROOT
BRANCH   1  17
ATOM     17  C9  SX3 d         -23.777   8.931 -16.228  0.00  0.00     0.059 A 
ATOM     18  C10 SX3 d         -22.726   9.208 -15.343  0.00  0.00    -0.049 A 
ATOM     19  C11 SX3 d         -21.468   8.635 -15.558  0.00  0.00     0.012 A 
ATOM     20  H1  SX3 d         -22.887   9.863 -14.496  0.00  0.00     0.087 H 
ATOM     21 BR1  SX3 d         -20.094   9.035 -14.319  0.00  0.00    -0.051 Br
ATOM     22  C12 SX3 d         -21.227   7.785 -16.644  0.00  0.00    -0.064 A 
ATOM     23  C13 SX3 d         -22.291   7.505 -17.524  0.00  0.00    -0.055 A 
ATOM     24  H2  SX3 d         -20.246   7.352 -16.803  0.00  0.00     0.085 H 
ATOM     25  C14 SX3 d         -23.570   8.075 -17.344  0.00  0.00     0.041 A 
ATOM     26  H3  SX3 d         -22.123   6.836 -18.359  0.00  0.00     0.087 H 
BRANCH  25  27
ATOM     27  N2  SX3 d         -24.581   7.771 -18.270  0.00  0.00    -0.398 N 
ATOM     28  H4  SX3 d         -24.707   8.360 -19.106  0.00  0.00     0.156 HD
ATOM     29  H5  SX3 d         -25.196   6.960 -18.114  0.00  0.00     0.156 HD
ENDBRANCH  25  27
ENDBRANCH   1  17
BRANCH   5  30
ATOM     30  C5  SX3 d         -26.582   6.044 -13.085  0.00  0.00    -0.071 C 
ATOM     31  H9  SX3 d         -26.286   5.435 -13.952  0.00  0.00     0.028 H 
ATOM     32  H10 SX3 d         -27.583   5.738 -12.746  0.00  0.00     0.028 H 
ATOM     33  H11 SX3 d         -25.857   5.898 -12.270  0.00  0.00     0.028 H 
ENDBRANCH   5  30
BRANCH   8  34
ATOM     34  C1  SX3 d         -29.441  10.101 -13.654  0.00  0.00    -0.071 C 
ATOM     35  H17 SX3 d         -29.991   9.811 -14.562  0.00  0.00     0.028 H 
ATOM     36  H18 SX3 d         -29.419  11.198 -13.573  0.00  0.00     0.028 H 
ATOM     37  H19 SX3 d         -29.943   9.677 -12.772  0.00  0.00     0.028 H 
ENDBRANCH   8  34
TORSDOF 4
ENDMDL
MODEL 9
REMARK VINA RESULT:      -4.7      2.482      3.774
REMARK  4 active torsions:
REMARK  status: ('A' for Active; 'I' for Inactive)
REMARK    1  A    between atoms: C14_6  and  N2_7 
REMARK    2  A    between atoms: C9_8  and  C8_9 
REMARK       I    between atoms: C8_9  and  N1_11 
REMARK    3  A    between atoms: C4_13  and  C5_14 
REMARK    4  A    between atoms: C2_17  and  C1_18 
ROOT
ATOM      1  C8  SX3 d         -25.324  10.437 -16.067  0.00  0.00     0.256 C 
ATOM      2  O1  SX3 d         -25.111  10.756 -17.237  0.00  0.00    -0.267 OA
ATOM      3  N1  SX3 d         -24.503   9.478 -15.452  0.00  0.00    -0.347 N 
ATOM      4  C6  SX3 d         -24.875   8.950 -14.134  0.00  0.00     0.001 C 
ATOM      5  C4  SX3 d         -25.038   7.436 -14.111  0.00  0.00    -0.042 C 
ATOM      6  C3  SX3 d         -23.791   6.760 -14.662  0.00  0.00    -0.056 C 
ATOM      7  C7  SX3 d         -23.437   8.743 -16.164  0.00  0.00     0.001 C 
ATOM      8  C2  SX3 d         -23.501   7.231 -16.081  0.00  0.00    -0.042 C 
ATOM      9  H6  SX3 d         -25.829   9.407 -13.832  0.00  0.00     0.065 H 
ATOM     10  H7  SX3 d         -24.092   9.228 -13.413  0.00  0.00     0.065 H 
ATOM     11  H8  SX3 d         -25.892   7.159 -14.746  0.00  0.00     0.042 H 
ATOM     12  H12 SX3 d         -23.945   5.670 -14.669  0.00  0.00     0.034 H 
ATOM     13  H13 SX3 d         -22.933   7.005 -14.018  0.00  0.00     0.034 H 
ATOM     14  H14 SX3 d         -22.471   9.062 -15.746  0.00  0.00     0.065 H 
ATOM     15  H15 SX3 d         -23.487   9.024 -17.226  0.00  0.00     0.065 H 
ATOM     16  H16 SX3 d         -24.311   6.882 -16.737  0.00  0.00     0.042 H 
ENDROOT
BRANCH   1  17
ATOM     17  C9  SX3 d         -26.442  11.166 -15.420  0.00  0.00     0.059 A 
ATOM     18  C10 SX3 d         -27.248  10.416 -14.553  0.00  0.00    -0.049 A 
ATOM     19  C11 SX3 d         -28.347  11.018 -13.931  0.00  0.00     0.012 A 
ATOM     20  H1  SX3 d         -27.021   9.373 -14.365  0.00  0.00     0.087 H 
ATOM     21 BR1  SX3 d         -29.387   9.956 -12.759  0.00  0.00    -0.051 Br
ATOM     22  C12 SX3 d         -28.667  12.362 -14.153  0.00  0.00    -0.064 A 
ATOM     23  C13 SX3 d         -27.848  13.111 -15.019  0.00  0.00    -0.055 A 
ATOM     24  H2  SX3 d         -29.526  12.815 -13.670  0.00  0.00     0.085 H 
ATOM     25  C14 SX3 d         -26.738  12.533 -15.673  0.00  0.00     0.041 A 
ATOM     26  H3  SX3 d         -28.075  14.157 -15.188  0.00  0.00     0.087 H 
BRANCH  25  27
ATOM     27  N2  SX3 d         -25.975  13.331 -16.541  0.00  0.00    -0.398 N 
ATOM     28  H4  SX3 d         -25.592  14.229 -16.212  0.00  0.00     0.156 HD
ATOM     29  H5  SX3 d         -25.799  13.018 -17.506  0.00  0.00     0.156 HD
ENDBRANCH  25  27
ENDBRANCH   1  17
BRANCH   5  30
ATOM     30  C5  SX3 d         -25.326   6.997 -12.691  0.00  0.00    -0.071 C 
ATOM     31  H9  SX3 d         -24.861   7.703 -11.987  0.00  0.00     0.028 H 
ATOM     32  H10 SX3 d         -24.911   5.991 -12.528  0.00  0.00     0.028 H 
ATOM     33  H11 SX3 d         -26.413   6.977 -12.527  0.00  0.00     0.028 H 
ENDBRANCH   5  30
BRANCH   8  34
ATOM     34  C1  SX3 d         -22.184   6.622 -16.557  0.00  0.00    -0.071 C 
ATOM     35  H17 SX3 d         -21.861   7.123 -17.481  0.00  0.00     0.028 H 
ATOM     36  H18 SX3 d         -22.327   5.548 -16.753  0.00  0.00     0.028 H 
ATOM     37  H19 SX3 d         -21.417   6.754 -15.781  0.00  0.00     0.028 H 
ENDBRANCH   8  34
TORSDOF 4
ENDMDL
MODEL 10
REMARK VINA RESULT:      -4.6      2.788      5.766
REMARK  4 active torsions:
REMARK  status: ('A' for Active; 'I' for Inactive)
REMARK    1  A    between atoms: C14_6  and  N2_7 
REMARK    2  A    between atoms: C9_8  and  C8_9 
REMARK       I    between atoms: C8_9  and  N1_11 
REMARK    3  A    between atoms: C4_13  and  C5_14 
REMARK    4  A    between atoms: C2_17  and  C1_18 
ROOT
ATOM      1  C8  SX3 d         -25.415   7.083 -15.489  0.00  0.00     0.256 C 
ATOM      2  O1  SX3 d         -25.538   6.175 -16.312  0.00  0.00    -0.267 OA
ATOM      3  N1  SX3 d         -26.244   7.106 -14.356  0.00  0.00    -0.347 N 
ATOM      4  C6  SX3 d         -26.238   8.286 -13.484  0.00  0.00     0.001 C 
ATOM      5  C4  SX3 d         -27.610   8.928 -13.324  0.00  0.00    -0.042 C 
ATOM      6  C3  SX3 d         -28.631   7.893 -12.874  0.00  0.00    -0.056 C 
ATOM      7  C7  SX3 d         -27.341   6.142 -14.132  0.00  0.00     0.001 C 
ATOM      8  C2  SX3 d         -28.707   6.740 -13.865  0.00  0.00    -0.042 C 
ATOM      9  H6  SX3 d         -25.553   9.033 -13.912  0.00  0.00     0.065 H 
ATOM     10  H7  SX3 d         -25.877   7.984 -12.490  0.00  0.00     0.065 H 
ATOM     11  H8  SX3 d         -27.931   9.331 -14.295  0.00  0.00     0.042 H 
ATOM     12  H12 SX3 d         -29.619   8.370 -12.799  0.00  0.00     0.034 H 
ATOM     13  H13 SX3 d         -28.337   7.502 -11.888  0.00  0.00     0.034 H 
ATOM     14  H14 SX3 d         -27.071   5.520 -13.265  0.00  0.00     0.065 H 
ATOM     15  H15 SX3 d         -27.420   5.508 -15.027  0.00  0.00     0.065 H 
ATOM     16  H16 SX3 d         -29.110   7.121 -14.814  0.00  0.00     0.042 H 
ENDROOT
BRANCH   1  17
ATOM     17  C9  SX3 d         -24.335   8.053 -15.795  0.00  0.00     0.059 A 
ATOM     18  C10 SX3 d         -23.056   7.722 -15.328  0.00  0.00    -0.049 A 
ATOM     19  C11 SX3 d         -21.989   8.601 -15.540  0.00  0.00     0.012 A 
ATOM     20  H1  SX3 d         -22.895   6.787 -14.804  0.00  0.00     0.087 H 
ATOM     21 BR1  SX3 d         -20.283   8.087 -14.899  0.00  0.00    -0.051 Br
ATOM     22  C12 SX3 d         -22.165   9.816 -16.212  0.00  0.00    -0.064 A 
ATOM     23  C13 SX3 d         -23.451  10.139 -16.686  0.00  0.00    -0.055 A 
ATOM     24  H2  SX3 d         -21.331  10.492 -16.364  0.00  0.00     0.085 H 
ATOM     25  C14 SX3 d         -24.553   9.281 -16.479  0.00  0.00     0.041 A 
ATOM     26  H3  SX3 d         -23.599  11.069 -17.222  0.00  0.00     0.087 H 
BRANCH  25  27
ATOM     27  N2  SX3 d         -25.814   9.673 -16.958  0.00  0.00    -0.398 N 
ATOM     28  H4  SX3 d         -26.635   9.072 -16.799  0.00  0.00     0.156 HD
ATOM     29  H5  SX3 d         -25.917  10.562 -17.469  0.00  0.00     0.156 HD
ENDBRANCH  25  27
ENDBRANCH   1  17
BRANCH   5  30
ATOM     30  C5  SX3 d         -27.504  10.070 -12.336  0.00  0.00    -0.071 C 
ATOM     31  H9  SX3 d         -28.345  10.763 -12.486  0.00  0.00     0.028 H 
ATOM     32  H10 SX3 d         -26.556  10.604 -12.494  0.00  0.00     0.028 H 
ATOM     33  H11 SX3 d         -27.535   9.672 -11.310  0.00  0.00     0.028 H 
ENDBRANCH   5  30
BRANCH   8  34
ATOM     34  C1  SX3 d         -29.653   5.670 -13.324  0.00  0.00    -0.071 C 
ATOM     35  H17 SX3 d         -29.680   4.818 -14.020  0.00  0.00     0.028 H 
ATOM     36  H18 SX3 d         -30.664   6.092 -13.222  0.00  0.00     0.028 H 
ATOM     37  H19 SX3 d         -29.298   5.329 -12.341  0.00  0.00     0.028 H 
ENDBRANCH   8  34
TORSDOF 4
ENDMDL
