MODEL 1
REMARK VINA RESULT:      -8.1      0.000      0.000
REMARK  16 active torsions:
REMARK  status: ('A' for Active; 'I' for Inactive)
REMARK    1  A    between atoms: C2_1  and  O2_7 
REMARK    2  A    between atoms: C3_2  and  O3_8 
REMARK    3  A    between atoms: C4_3  and  O4_9 
REMARK    4  A    between atoms: C5_4  and  C6_5 
REMARK    5  A    between atoms: C6_5  and  O6_11 
REMARK    6  A    between atoms: O4_20  and  C1_6 
REMARK    7  A    between atoms: C2_12  and  O2_18 
REMARK    8  A    between atoms: C3_13  and  O3_19 
REMARK    9  A    between atoms: C4_14  and  O4_20 
REMARK   10  A    between atoms: C5_15  and  C6_16 
REMARK   11  A    between atoms: C6_16  and  O6_22 
REMARK   12  A    between atoms: O4_30  and  C1_17 
REMARK   13  A    between atoms: C5_24  and  C6_23 
REMARK   14  A    between atoms: C6_23  and  O6_28 
REMARK   15  A    between atoms: C4_25  and  O4_30 
REMARK   16  A    between atoms: C3_26  and  O3_31 
ROOT
ATOM      1  C2  MOL d          61.642  47.843  36.341  0.00  0.00     0.110 C 
ATOM      2  C3  MOL d          60.963  48.834  37.280  0.00  0.00     0.092 C 
ATOM      3  C4  MOL d          59.472  48.540  37.317  0.00  0.00     0.096 C 
ATOM      4  C5  MOL d          59.296  47.092  37.769  0.00  0.00     0.089 C 
ATOM      5  C1  MOL d          61.313  46.415  36.757  0.00  0.00     0.159 C 
ATOM      6  O5  MOL d          59.909  46.238  36.812  0.00  0.00    -0.348 OA
ATOM      7  H12 MOL d          61.263  48.014  35.322  0.00  0.00     0.094 H 
ATOM      8  H13 MOL d          61.382  48.725  38.292  0.00  0.00     0.091 H 
ATOM      9  H14 MOL d          59.038  48.671  36.315  0.00  0.00     0.091 H 
ATOM     10  H15 MOL d          59.797  46.976  38.741  0.00  0.00     0.090 H 
ATOM     11  H18 MOL d          61.770  46.184  37.731  0.00  0.00     0.133 H 
ENDROOT
BRANCH   3  12
ATOM     12  O4  MOL d          58.839  49.433  38.227  0.00  0.00    -0.348 OA
BRANCH  12  13
ATOM     13  C1  MOL d          57.736  50.169  37.702  0.00  0.00     0.159 C 
ATOM     14  C2  MOL d          56.922  50.638  38.893  0.00  0.00     0.110 C 
ATOM     15  C3  MOL d          55.817  51.575  38.440  0.00  0.00     0.092 C 
ATOM     16  H1  MOL d          57.583  51.188  39.578  0.00  0.00     0.094 H 
ATOM     17  C4  MOL d          56.343  52.679  37.545  0.00  0.00     0.090 C 
ATOM     18  H2  MOL d          55.080  50.995  37.866  0.00  0.00     0.091 H 
ATOM     19  C5  MOL d          57.198  52.082  36.444  0.00  0.00     0.089 C 
ATOM     20  H3  MOL d          56.959  53.366  38.145  0.00  0.00     0.091 H 
ATOM     21  O5  MOL d          58.234  51.275  36.984  0.00  0.00    -0.348 OA
ATOM     22  H4  MOL d          56.546  51.448  35.823  0.00  0.00     0.090 H 
ATOM     23  H7  MOL d          57.123  49.537  37.042  0.00  0.00     0.133 H 
BRANCH  14  24
ATOM     24  O2  MOL d          56.398  49.511  39.581  0.00  0.00    -0.388 OA
ATOM     25  H8  MOL d          57.115  48.964  39.881  0.00  0.00     0.210 HD
ENDBRANCH  14  24
BRANCH  15  26
ATOM     26  O3  MOL d          55.185  52.099  39.588  0.00  0.00    -0.390 OA
ATOM     27  H9  MOL d          54.867  51.384  40.127  0.00  0.00     0.210 HD
ENDBRANCH  15  26
BRANCH  17  28
ATOM     28  O4  MOL d          55.266  53.397  36.987  0.00  0.00    -0.390 OA
ATOM     29  H10 MOL d          54.737  53.766  37.685  0.00  0.00     0.210 HD
ENDBRANCH  17  28
BRANCH  19  30
ATOM     30  C6  MOL d          57.830  53.122  35.553  0.00  0.00     0.043 C 
ATOM     31  H5  MOL d          57.045  53.669  35.011  0.00  0.00     0.078 H 
ATOM     32  H6  MOL d          58.500  52.630  34.831  0.00  0.00     0.078 H 
BRANCH  30  33
ATOM     33  O6  MOL d          58.572  54.025  36.345  0.00  0.00    -0.398 OA
ATOM     34  H11 MOL d          59.250  53.551  36.813  0.00  0.00     0.209 HD
ENDBRANCH  30  33
ENDBRANCH  19  30
ENDBRANCH  12  13
ENDBRANCH   3  12
BRANCH   2  35
ATOM     35  O3  MOL d          61.185  50.157  36.823  0.00  0.00    -0.390 OA
ATOM     36  H20 MOL d          60.759  50.770  37.412  0.00  0.00     0.210 HD
ENDBRANCH   2  35
BRANCH   4  37
ATOM     37  C6  MOL d          57.870  46.634  37.912  0.00  0.00     0.043 C 
ATOM     38  H16 MOL d          57.373  47.223  38.696  0.00  0.00     0.078 H 
ATOM     39  H17 MOL d          57.854  45.569  38.187  0.00  0.00     0.078 H 
BRANCH  37  40
ATOM     40  O6  MOL d          57.189  46.815  36.680  0.00  0.00    -0.398 OA
ATOM     41  H21 MOL d          57.619  46.306  36.004  0.00  0.00     0.209 HD
ENDBRANCH  37  40
ENDBRANCH   4  37
BRANCH   1  42
ATOM     42  O2  MOL d          63.044  48.012  36.337  0.00  0.00    -0.388 OA
ATOM     43  H19 MOL d          63.433  47.403  35.722  0.00  0.00     0.210 HD
ENDBRANCH   1  42
BRANCH   5  44
ATOM     44  O4  MOL d          61.792  45.573  35.775  0.00  0.00    -0.348 OA
BRANCH  44  45
ATOM     45  C4  MOL d          61.618  44.188  35.975  0.00  0.00     0.097 C 
ATOM     46  C5  MOL d          62.972  43.516  36.197  0.00  0.00     0.119 C 
ATOM     47  O5  MOL d          62.792  42.109  36.342  0.00  0.00    -0.195 OA
ATOM     48  H24 MOL d          63.619  43.734  35.334  0.00  0.00     0.094 H 
ATOM     49  N1  MOL d          62.290  41.551  35.119  0.00  0.00     0.042 N 
ATOM     50  C2  MOL d          60.952  42.055  34.862  0.00  0.00     0.135 C 
ATOM     51  H31 MOL d          62.898  41.812  34.358  0.00  0.00     0.315 HD
ATOM     52  H32 MOL d          62.261  40.546  35.196  0.00  0.00     0.315 HD
ATOM     53  C3  MOL d          60.999  43.580  34.715  0.00  0.00     0.088 C 
ATOM     54  H27 MOL d          60.564  41.609  33.934  0.00  0.00     0.084 H 
ATOM     55  H28 MOL d          60.292  41.787  35.701  0.00  0.00     0.084 H 
ATOM     56  H26 MOL d          61.602  43.865  33.840  0.00  0.00     0.089 H 
ATOM     57  H25 MOL d          60.965  44.016  36.843  0.00  0.00     0.091 H 
BRANCH  46  58
ATOM     58  C6  MOL d          63.666  43.944  37.476  0.00  0.00     0.045 C 
ATOM     59  H22 MOL d          63.982  44.993  37.381  0.00  0.00     0.078 H 
ATOM     60  H23 MOL d          64.548  43.308  37.639  0.00  0.00     0.078 H 
BRANCH  58  61
ATOM     61  O6  MOL d          62.783  43.818  38.593  0.00  0.00    -0.398 OA
ATOM     62  H29 MOL d          62.510  42.912  38.678  0.00  0.00     0.209 HD
ENDBRANCH  58  61
ENDBRANCH  46  58
BRANCH  53  63
ATOM     63  O3  MOL d          59.651  43.998  34.531  0.00  0.00    -0.391 OA
ATOM     64  H30 MOL d          59.623  44.942  34.434  0.00  0.00     0.210 HD
ENDBRANCH  53  63
ENDBRANCH  44  45
ENDBRANCH   5  44
TORSDOF 16
ENDMDL
