MODEL 1
REMARK VINA RESULT:      -7.9      0.000      0.000
REMARK  16 active torsions:
REMARK  status: ('A' for Active; 'I' for Inactive)
REMARK    1  A    between atoms: C2_1  and  O2_7 
REMARK    2  A    between atoms: C3_2  and  O3_8 
REMARK    3  A    between atoms: C4_3  and  O4_9 
REMARK    4  A    between atoms: C5_4  and  C6_5 
REMARK    5  A    between atoms: C6_5  and  O6_11 
REMARK    6  A    between atoms: O4_20  and  C1_6 
REMARK    7  A    between atoms: C2_12  and  O2_18 
REMARK    8  A    between atoms: C3_13  and  O3_19 
REMARK    9  A    between atoms: C4_14  and  O4_20 
REMARK   10  A    between atoms: C5_15  and  C6_16 
REMARK   11  A    between atoms: C6_16  and  O6_22 
REMARK   12  A    between atoms: O4_30  and  C1_17 
REMARK   13  A    between atoms: C5_24  and  C6_23 
REMARK   14  A    between atoms: C6_23  and  O6_28 
REMARK   15  A    between atoms: C4_25  and  O4_30 
REMARK   16  A    between atoms: C3_26  and  O3_31 
ROOT
ATOM      1  C2  MOL d          61.622  47.672  36.362  0.00  0.00     0.110 C 
ATOM      2  C3  MOL d          60.921  48.647  37.300  0.00  0.00     0.092 C 
ATOM      3  C4  MOL d          59.418  48.432  37.207  0.00  0.00     0.096 C 
ATOM      4  C5  MOL d          59.137  46.974  37.563  0.00  0.00     0.089 C 
ATOM      5  C1  MOL d          61.192  46.243  36.671  0.00  0.00     0.159 C 
ATOM      6  O5  MOL d          59.780  46.139  36.609  0.00  0.00    -0.348 OA
ATOM      7  H12 MOL d          61.334  47.915  35.329  0.00  0.00     0.094 H 
ATOM      8  H13 MOL d          61.253  48.464  38.333  0.00  0.00     0.091 H 
ATOM      9  H14 MOL d          59.072  48.638  36.184  0.00  0.00     0.091 H 
ATOM     10  H15 MOL d          59.553  46.781  38.562  0.00  0.00     0.090 H 
ATOM     11  H18 MOL d          61.558  45.938  37.663  0.00  0.00     0.133 H 
ENDROOT
BRANCH   3  12
ATOM     12  O4  MOL d          58.761  49.309  38.115  0.00  0.00    -0.348 OA
BRANCH  12  13
ATOM     13  C1  MOL d          57.728  50.117  37.552  0.00  0.00     0.159 C 
ATOM     14  C2  MOL d          56.886  50.613  38.712  0.00  0.00     0.110 C 
ATOM     15  C3  MOL d          55.860  51.620  38.226  0.00  0.00     0.092 C 
ATOM     16  H1  MOL d          57.544  51.113  39.438  0.00  0.00     0.094 H 
ATOM     17  C4  MOL d          56.491  52.706  37.378  0.00  0.00     0.090 C 
ATOM     18  H2  MOL d          55.119  51.094  37.607  0.00  0.00     0.091 H 
ATOM     19  C5  MOL d          57.362  52.078  36.307  0.00  0.00     0.089 C 
ATOM     20  H3  MOL d          57.116  53.346  38.019  0.00  0.00     0.091 H 
ATOM     21  O5  MOL d          58.323  51.204  36.880  0.00  0.00    -0.348 OA
ATOM     22  H4  MOL d          56.706  51.493  35.645  0.00  0.00     0.090 H 
ATOM     23  H7  MOL d          57.112  49.533  36.852  0.00  0.00     0.133 H 
BRANCH  14  24
ATOM     24  O2  MOL d          56.266  49.507  39.353  0.00  0.00    -0.388 OA
ATOM     25  H8  MOL d          56.765  48.718  39.173  0.00  0.00     0.210 HD
ENDBRANCH  14  24
BRANCH  15  26
ATOM     26  O3  MOL d          55.205  52.161  39.353  0.00  0.00    -0.390 OA
ATOM     27  H9  MOL d          54.974  51.460  39.951  0.00  0.00     0.210 HD
ENDBRANCH  15  26
BRANCH  17  28
ATOM     28  O4  MOL d          55.485  53.495  36.783  0.00  0.00    -0.390 OA
ATOM     29  H10 MOL d          55.543  54.383  37.115  0.00  0.00     0.210 HD
ENDBRANCH  17  28
BRANCH  19  30
ATOM     30  C6  MOL d          58.096  53.094  35.467  0.00  0.00     0.043 C 
ATOM     31  H5  MOL d          57.445  53.433  34.647  0.00  0.00     0.078 H 
ATOM     32  H6  MOL d          59.005  52.638  35.049  0.00  0.00     0.078 H 
BRANCH  30  33
ATOM     33  O6  MOL d          58.450  54.197  36.273  0.00  0.00    -0.398 OA
ATOM     34  H11 MOL d          59.281  54.022  36.700  0.00  0.00     0.209 HD
ENDBRANCH  30  33
ENDBRANCH  19  30
ENDBRANCH  12  13
ENDBRANCH   3  12
BRANCH   2  35
ATOM     35  O3  MOL d          61.243  49.978  36.936  0.00  0.00    -0.390 OA
ATOM     36  H20 MOL d          62.014  49.976  36.382  0.00  0.00     0.210 HD
ENDBRANCH   2  35
BRANCH   4  37
ATOM     37  C6  MOL d          57.683  46.586  37.571  0.00  0.00     0.043 C 
ATOM     38  H16 MOL d          57.588  45.513  37.350  0.00  0.00     0.078 H 
ATOM     39  H17 MOL d          57.144  47.167  36.808  0.00  0.00     0.078 H 
BRANCH  37  40
ATOM     40  O6  MOL d          57.129  46.856  38.850  0.00  0.00    -0.398 OA
ATOM     41  H21 MOL d          57.830  46.952  39.484  0.00  0.00     0.209 HD
ENDBRANCH  37  40
ENDBRANCH   4  37
BRANCH   1  42
ATOM     42  O2  MOL d          63.027  47.765  36.474  0.00  0.00    -0.388 OA
ATOM     43  H19 MOL d          63.258  48.609  36.845  0.00  0.00     0.210 HD
ENDBRANCH   1  42
BRANCH   5  44
ATOM     44  O4  MOL d          61.704  45.429  35.683  0.00  0.00    -0.348 OA
BRANCH  44  45
ATOM     45  C4  MOL d          61.552  44.037  35.854  0.00  0.00     0.097 C 
ATOM     46  C5  MOL d          62.921  43.369  35.968  0.00  0.00     0.119 C 
ATOM     47  O5  MOL d          62.758  41.957  36.084  0.00  0.00    -0.195 OA
ATOM     48  H24 MOL d          63.509  43.618  35.072  0.00  0.00     0.094 H 
ATOM     49  N1  MOL d          62.182  41.431  34.880  0.00  0.00     0.042 N 
ATOM     50  C2  MOL d          60.827  41.932  34.724  0.00  0.00     0.135 C 
ATOM     51  H31 MOL d          62.738  41.719  34.089  0.00  0.00     0.315 HD
ATOM     52  H32 MOL d          62.163  40.425  34.930  0.00  0.00     0.315 HD
ATOM     53  C3  MOL d          60.855  43.461  34.620  0.00  0.00     0.088 C 
ATOM     54  H27 MOL d          60.382  41.510  33.811  0.00  0.00     0.084 H 
ATOM     55  H28 MOL d          60.224  41.636  35.596  0.00  0.00     0.084 H 
ATOM     56  H26 MOL d          61.399  43.775  33.716  0.00  0.00     0.089 H 
ATOM     57  H25 MOL d          60.957  43.835  36.757  0.00  0.00     0.091 H 
BRANCH  46  58
ATOM     58  C6  MOL d          63.693  43.766  37.212  0.00  0.00     0.045 C 
ATOM     59  H22 MOL d          64.360  42.941  37.501  0.00  0.00     0.078 H 
ATOM     60  H23 MOL d          62.985  43.968  38.028  0.00  0.00     0.078 H 
BRANCH  58  61
ATOM     61  O6  MOL d          64.474  44.938  36.966  0.00  0.00    -0.398 OA
ATOM     62  H29 MOL d          64.449  45.144  36.040  0.00  0.00     0.209 HD
ENDBRANCH  58  61
ENDBRANCH  46  58
BRANCH  53  63
ATOM     63  O3  MOL d          59.496  43.873  34.535  0.00  0.00    -0.391 OA
ATOM     64  H30 MOL d          58.947  43.118  34.360  0.00  0.00     0.210 HD
ENDBRANCH  53  63
ENDBRANCH  44  45
ENDBRANCH   5  44
TORSDOF 16
ENDMDL
MODEL 2
REMARK VINA RESULT:      -5.9      3.031      9.235
REMARK  16 active torsions:
REMARK  status: ('A' for Active; 'I' for Inactive)
REMARK    1  A    between atoms: C2_1  and  O2_7 
REMARK    2  A    between atoms: C3_2  and  O3_8 
REMARK    3  A    between atoms: C4_3  and  O4_9 
REMARK    4  A    between atoms: C5_4  and  C6_5 
REMARK    5  A    between atoms: C6_5  and  O6_11 
REMARK    6  A    between atoms: O4_20  and  C1_6 
REMARK    7  A    between atoms: C2_12  and  O2_18 
REMARK    8  A    between atoms: C3_13  and  O3_19 
REMARK    9  A    between atoms: C4_14  and  O4_20 
REMARK   10  A    between atoms: C5_15  and  C6_16 
REMARK   11  A    between atoms: C6_16  and  O6_22 
REMARK   12  A    between atoms: O4_30  and  C1_17 
REMARK   13  A    between atoms: C5_24  and  C6_23 
REMARK   14  A    between atoms: C6_23  and  O6_28 
REMARK   15  A    between atoms: C4_25  and  O4_30 
REMARK   16  A    between atoms: C3_26  and  O3_31 
ROOT
ATOM      1  C2  MOL d          57.164  47.722  38.465  0.00  0.00     0.110 C 
ATOM      2  C3  MOL d          58.281  46.763  38.857  0.00  0.00     0.092 C 
ATOM      3  C4  MOL d          59.480  47.002  37.953  0.00  0.00     0.096 C 
ATOM      4  C5  MOL d          59.887  48.466  38.100  0.00  0.00     0.089 C 
ATOM      5  C1  MOL d          57.670  49.159  38.492  0.00  0.00     0.159 C 
ATOM      6  O5  MOL d          58.811  49.285  37.663  0.00  0.00    -0.348 OA
ATOM      7  H12 MOL d          56.839  47.477  37.442  0.00  0.00     0.094 H 
ATOM      8  H13 MOL d          58.570  46.946  39.903  0.00  0.00     0.091 H 
ATOM      9  H14 MOL d          59.209  46.796  36.907  0.00  0.00     0.091 H 
ATOM     10  H15 MOL d          60.088  48.658  39.165  0.00  0.00     0.090 H 
ATOM     11  H18 MOL d          57.905  49.464  39.522  0.00  0.00     0.133 H 
ENDROOT
BRANCH   3  12
ATOM     12  O4  MOL d          60.543  46.140  38.344  0.00  0.00    -0.348 OA
BRANCH  12  13
ATOM     13  C1  MOL d          60.692  44.953  37.567  0.00  0.00     0.159 C 
ATOM     14  C2  MOL d          61.987  45.103  36.791  0.00  0.00     0.110 C 
ATOM     15  C3  MOL d          62.317  43.814  36.063  0.00  0.00     0.092 C 
ATOM     16  H1  MOL d          62.801  45.318  37.500  0.00  0.00     0.094 H 
ATOM     17  C4  MOL d          62.254  42.611  36.983  0.00  0.00     0.090 C 
ATOM     18  H2  MOL d          61.580  43.666  35.260  0.00  0.00     0.091 H 
ATOM     19  C5  MOL d          60.946  42.622  37.750  0.00  0.00     0.089 C 
ATOM     20  H3  MOL d          63.089  42.660  37.697  0.00  0.00     0.091 H 
ATOM     21  O5  MOL d          60.771  43.850  38.441  0.00  0.00    -0.348 OA
ATOM     22  H4  MOL d          60.130  42.511  37.019  0.00  0.00     0.090 H 
ATOM     23  H7  MOL d          59.844  44.828  36.877  0.00  0.00     0.133 H 
BRANCH  14  24
ATOM     24  O2  MOL d          61.874  46.195  35.890  0.00  0.00    -0.388 OA
ATOM     25  H8  MOL d          62.141  46.995  36.329  0.00  0.00     0.210 HD
ENDBRANCH  14  24
BRANCH  15  26
ATOM     26  O3  MOL d          63.596  43.950  35.481  0.00  0.00    -0.390 OA
ATOM     27  H9  MOL d          63.531  43.823  34.541  0.00  0.00     0.210 HD
ENDBRANCH  15  26
BRANCH  17  28
ATOM     28  O4  MOL d          62.364  41.424  36.229  0.00  0.00    -0.390 OA
ATOM     29  H10 MOL d          61.525  40.977  36.220  0.00  0.00     0.210 HD
ENDBRANCH  17  28
BRANCH  19  30
ATOM     30  C6  MOL d          60.836  41.500  38.753  0.00  0.00     0.043 C 
ATOM     31  H5  MOL d          60.275  40.664  38.310  0.00  0.00     0.078 H 
ATOM     32  H6  MOL d          60.311  41.860  39.650  0.00  0.00     0.078 H 
BRANCH  30  33
ATOM     33  O6  MOL d          62.131  41.063  39.107  0.00  0.00    -0.398 OA
ATOM     34  H11 MOL d          62.298  41.278  40.017  0.00  0.00     0.209 HD
ENDBRANCH  30  33
ENDBRANCH  19  30
ENDBRANCH  12  13
ENDBRANCH   3  12
BRANCH   2  35
ATOM     35  O3  MOL d          57.834  45.425  38.725  0.00  0.00    -0.390 OA
ATOM     36  H20 MOL d          57.020  45.316  39.203  0.00  0.00     0.210 HD
ENDBRANCH   2  35
BRANCH   4  37
ATOM     37  C6  MOL d          61.099  48.877  37.308  0.00  0.00     0.043 C 
ATOM     38  H16 MOL d          61.155  49.974  37.267  0.00  0.00     0.078 H 
ATOM     39  H17 MOL d          61.022  48.475  36.287  0.00  0.00     0.078 H 
BRANCH  37  40
ATOM     40  O6  MOL d          62.267  48.366  37.932  0.00  0.00    -0.398 OA
ATOM     41  H21 MOL d          63.022  48.552  37.387  0.00  0.00     0.209 HD
ENDBRANCH  37  40
ENDBRANCH   4  37
BRANCH   1  42
ATOM     42  O2  MOL d          56.055  47.606  39.332  0.00  0.00    -0.388 OA
ATOM     43  H19 MOL d          56.219  48.105  40.123  0.00  0.00     0.210 HD
ENDBRANCH   1  42
BRANCH   5  44
ATOM     44  O4  MOL d          56.685  49.959  37.953  0.00  0.00    -0.348 OA
BRANCH  44  45
ATOM     45  C4  MOL d          56.812  51.351  38.142  0.00  0.00     0.097 C 
ATOM     46  C5  MOL d          55.550  51.909  38.799  0.00  0.00     0.119 C 
ATOM     47  O5  MOL d          55.666  53.324  38.935  0.00  0.00    -0.195 OA
ATOM     48  H24 MOL d          54.684  51.652  38.172  0.00  0.00     0.094 H 
ATOM     49  N1  MOL d          55.719  53.937  37.639  0.00  0.00     0.042 N 
ATOM     50  C2  MOL d          56.942  53.546  36.960  0.00  0.00     0.135 C 
ATOM     51  H31 MOL d          54.924  53.639  37.095  0.00  0.00     0.315 HD
ATOM     52  H32 MOL d          55.699  54.940  37.742  0.00  0.00     0.315 HD
ATOM     53  C3  MOL d          56.962  52.024  36.777  0.00  0.00     0.088 C 
ATOM     54  H27 MOL d          56.988  54.035  35.976  0.00  0.00     0.084 H 
ATOM     55  H28 MOL d          57.810  53.854  37.562  0.00  0.00     0.084 H 
ATOM     56  H26 MOL d          56.137  51.704  36.122  0.00  0.00     0.089 H 
ATOM     57  H25 MOL d          57.689  51.563  38.771  0.00  0.00     0.091 H 
BRANCH  46  58
ATOM     58  C6  MOL d          55.324  51.409  40.213  0.00  0.00     0.045 C 
ATOM     59  H22 MOL d          54.689  52.127  40.753  0.00  0.00     0.078 H 
ATOM     60  H23 MOL d          56.293  51.319  40.724  0.00  0.00     0.078 H 
BRANCH  58  61
ATOM     61  O6  MOL d          54.681  50.132  40.197  0.00  0.00    -0.398 OA
ATOM     62  H29 MOL d          55.328  49.451  40.333  0.00  0.00     0.209 HD
ENDBRANCH  58  61
ENDBRANCH  46  58
BRANCH  53  63
ATOM     63  O3  MOL d          58.211  51.719  36.167  0.00  0.00    -0.391 OA
ATOM     64  H30 MOL d          58.876  51.626  36.840  0.00  0.00     0.210 HD
ENDBRANCH  53  63
ENDBRANCH  44  45
ENDBRANCH   5  44
TORSDOF 16
ENDMDL
MODEL 3
REMARK VINA RESULT:      -5.5      2.969      8.549
REMARK  16 active torsions:
REMARK  status: ('A' for Active; 'I' for Inactive)
REMARK    1  A    between atoms: C2_1  and  O2_7 
REMARK    2  A    between atoms: C3_2  and  O3_8 
REMARK    3  A    between atoms: C4_3  and  O4_9 
REMARK    4  A    between atoms: C5_4  and  C6_5 
REMARK    5  A    between atoms: C6_5  and  O6_11 
REMARK    6  A    between atoms: O4_20  and  C1_6 
REMARK    7  A    between atoms: C2_12  and  O2_18 
REMARK    8  A    between atoms: C3_13  and  O3_19 
REMARK    9  A    between atoms: C4_14  and  O4_20 
REMARK   10  A    between atoms: C5_15  and  C6_16 
REMARK   11  A    between atoms: C6_16  and  O6_22 
REMARK   12  A    between atoms: O4_30  and  C1_17 
REMARK   13  A    between atoms: C5_24  and  C6_23 
REMARK   14  A    between atoms: C6_23  and  O6_28 
REMARK   15  A    between atoms: C4_25  and  O4_30 
REMARK   16  A    between atoms: C3_26  and  O3_31 
ROOT
ATOM      1  C2  MOL d          59.758  49.150  37.692  0.00  0.00     0.110 C 
ATOM      2  C3  MOL d          59.995  47.662  37.464  0.00  0.00     0.092 C 
ATOM      3  C4  MOL d          58.869  46.875  38.118  0.00  0.00     0.096 C 
ATOM      4  C5  MOL d          57.553  47.358  37.512  0.00  0.00     0.089 C 
ATOM      5  C1  MOL d          58.372  49.545  37.197  0.00  0.00     0.159 C 
ATOM      6  O5  MOL d          57.389  48.736  37.818  0.00  0.00    -0.348 OA
ATOM      7  H12 MOL d          59.821  49.352  38.772  0.00  0.00     0.094 H 
ATOM      8  H13 MOL d          60.005  47.454  36.384  0.00  0.00     0.091 H 
ATOM      9  H14 MOL d          58.866  47.056  39.203  0.00  0.00     0.091 H 
ATOM     10  H15 MOL d          57.613  47.226  36.422  0.00  0.00     0.090 H 
ATOM     11  H18 MOL d          58.314  49.450  36.102  0.00  0.00     0.133 H 
ENDROOT
BRANCH   3  12
ATOM     12  O4  MOL d          59.061  45.487  37.871  0.00  0.00    -0.348 OA
BRANCH  12  13
ATOM     13  C1  MOL d          60.347  45.121  37.375  0.00  0.00     0.159 C 
ATOM     14  C2  MOL d          60.924  44.123  38.362  0.00  0.00     0.110 C 
ATOM     15  C3  MOL d          62.223  43.547  37.829  0.00  0.00     0.092 C 
ATOM     16  H1  MOL d          60.207  43.299  38.490  0.00  0.00     0.094 H 
ATOM     17  C4  MOL d          62.077  43.037  36.409  0.00  0.00     0.090 C 
ATOM     18  H2  MOL d          62.984  44.341  37.828  0.00  0.00     0.091 H 
ATOM     19  C5  MOL d          61.422  44.101  35.549  0.00  0.00     0.089 C 
ATOM     20  H3  MOL d          61.442  42.138  36.413  0.00  0.00     0.091 H 
ATOM     21  O5  MOL d          60.187  44.521  36.109  0.00  0.00    -0.348 OA
ATOM     22  H4  MOL d          62.103  44.965  35.512  0.00  0.00     0.090 H 
ATOM     23  H7  MOL d          61.001  46.002  37.294  0.00  0.00     0.133 H 
BRANCH  14  24
ATOM     24  O2  MOL d          61.112  44.757  39.619  0.00  0.00    -0.388 OA
ATOM     25  H8  MOL d          61.598  45.564  39.495  0.00  0.00     0.210 HD
ENDBRANCH  14  24
BRANCH  15  26
ATOM     26  O3  MOL d          62.642  42.521  38.704  0.00  0.00    -0.390 OA
ATOM     27  H9  MOL d          62.567  41.682  38.266  0.00  0.00     0.210 HD
ENDBRANCH  15  26
BRANCH  17  28
ATOM     28  O4  MOL d          63.343  42.703  35.888  0.00  0.00    -0.390 OA
ATOM     29  H10 MOL d          63.979  43.354  36.162  0.00  0.00     0.210 HD
ENDBRANCH  17  28
BRANCH  19  30
ATOM     30  C6  MOL d          61.163  43.644  34.135  0.00  0.00     0.043 C 
ATOM     31  H5  MOL d          61.913  44.086  33.462  0.00  0.00     0.078 H 
ATOM     32  H6  MOL d          60.157  43.962  33.824  0.00  0.00     0.078 H 
BRANCH  30  33
ATOM     33  O6  MOL d          61.251  42.236  34.077  0.00  0.00    -0.398 OA
ATOM     34  H11 MOL d          62.068  41.954  34.473  0.00  0.00     0.209 HD
ENDBRANCH  30  33
ENDBRANCH  19  30
ENDBRANCH  12  13
ENDBRANCH   3  12
BRANCH   2  35
ATOM     35  O3  MOL d          61.240  47.283  38.024  0.00  0.00    -0.390 OA
ATOM     36  H20 MOL d          61.523  46.462  37.638  0.00  0.00     0.210 HD
ENDBRANCH   2  35
BRANCH   4  37
ATOM     37  C6  MOL d          56.322  46.650  38.009  0.00  0.00     0.043 C 
ATOM     38  H16 MOL d          55.836  47.261  38.784  0.00  0.00     0.078 H 
ATOM     39  H17 MOL d          56.606  45.676  38.433  0.00  0.00     0.078 H 
BRANCH  37  40
ATOM     40  O6  MOL d          55.422  46.452  36.929  0.00  0.00    -0.398 OA
ATOM     41  H21 MOL d          55.614  47.077  36.240  0.00  0.00     0.209 HD
ENDBRANCH  37  40
ENDBRANCH   4  37
BRANCH   1  42
ATOM     42  O2  MOL d          60.726  49.935  37.027  0.00  0.00    -0.388 OA
ATOM     43  H19 MOL d          60.291  50.550  36.448  0.00  0.00     0.210 HD
ENDBRANCH   1  42
BRANCH   5  44
ATOM     44  O4  MOL d          58.140  50.845  37.594  0.00  0.00    -0.348 OA
BRANCH  44  45
ATOM     45  C4  MOL d          56.927  51.436  37.183  0.00  0.00     0.097 C 
ATOM     46  C5  MOL d          57.193  52.814  36.579  0.00  0.00     0.119 C 
ATOM     47  O5  MOL d          55.956  53.427  36.219  0.00  0.00    -0.195 OA
ATOM     48  H24 MOL d          57.724  53.427  37.322  0.00  0.00     0.094 H 
ATOM     49  N1  MOL d          55.173  53.675  37.395  0.00  0.00     0.042 N 
ATOM     50  C2  MOL d          54.780  52.413  37.999  0.00  0.00     0.135 C 
ATOM     51  H31 MOL d          55.719  54.207  38.055  0.00  0.00     0.315 HD
ATOM     52  H32 MOL d          54.348  54.197  37.143  0.00  0.00     0.315 HD
ATOM     53  C3  MOL d          56.032  51.630  38.408  0.00  0.00     0.088 C 
ATOM     54  H27 MOL d          54.162  52.609  38.888  0.00  0.00     0.084 H 
ATOM     55  H28 MOL d          54.200  51.824  37.273  0.00  0.00     0.084 H 
ATOM     56  H26 MOL d          56.591  52.175  39.184  0.00  0.00     0.089 H 
ATOM     57  H25 MOL d          56.429  50.790  36.445  0.00  0.00     0.091 H 
BRANCH  46  58
ATOM     58  C6  MOL d          57.987  52.774  35.288  0.00  0.00     0.045 C 
ATOM     59  H22 MOL d          58.146  53.801  34.929  0.00  0.00     0.078 H 
ATOM     60  H23 MOL d          57.424  52.205  34.534  0.00  0.00     0.078 H 
BRANCH  58  61
ATOM     61  O6  MOL d          59.255  52.148  35.498  0.00  0.00    -0.398 OA
ATOM     62  H29 MOL d          59.540  52.303  36.390  0.00  0.00     0.209 HD
ENDBRANCH  58  61
ENDBRANCH  46  58
BRANCH  53  63
ATOM     63  O3  MOL d          55.566  50.390  38.929  0.00  0.00    -0.391 OA
ATOM     64  H30 MOL d          54.914  50.555  39.600  0.00  0.00     0.210 HD
ENDBRANCH  53  63
ENDBRANCH  44  45
ENDBRANCH   5  44
TORSDOF 16
ENDMDL
