MODEL 1
REMARK VINA RESULT:      -9.5      0.000      0.000
REMARK  5 active torsions:
REMARK  status: ('A' for Active; 'I' for Inactive)
REMARK    1  A    between atoms: C_2  and  CA_4 
REMARK    2  A    between atoms: CA_4  and  N_5 
REMARK    3  A    between atoms: CA_4  and  CB_6 
REMARK    4  A    between atoms: CB_6  and  CAS_7 
REMARK    5  A    between atoms: CAS_7  and  CAN_9 
ROOT
ATOM      1  CAS MS8 d           1.199  44.316   2.606  0.00  0.00     0.154 C 
ATOM      2  CAJ MS8 d           2.661  44.762   2.720  0.00  0.00     0.000 C 
ATOM      3  OAL MS8 d           1.157  43.013   3.201  0.00  0.00    -0.361 OA
ATOM      4  CAR MS8 d           2.405  42.439   2.792  0.00  0.00     0.065 C 
ATOM      5  CAQ MS8 d           3.362  43.518   3.269  0.00  0.00     0.066 C 
ATOM      6  CAH MS8 d           2.643  41.112   3.515  0.00  0.00    -0.036 C 
ATOM      7  CAP MS8 d           2.761  41.329   5.024  0.00  0.00    -0.043 C 
ATOM      8  CAG MS8 d           3.827  42.388   5.301  0.00  0.00     0.020 C 
ATOM      9  OAK MS8 d           3.394  43.619   4.702  0.00  0.00    -0.383 OA
ATOM     10  H7  MS8 d           2.762  45.610   3.413  0.00  0.00     0.042 H 
ATOM     11  H8  MS8 d           3.066  45.041   1.736  0.00  0.00     0.042 H 
ATOM     12  H9  MS8 d           2.459  42.289   1.704  0.00  0.00     0.087 H 
ATOM     13  H10 MS8 d           4.377  43.381   2.867  0.00  0.00     0.087 H 
ATOM     14  H11 MS8 d           3.574  40.661   3.143  0.00  0.00     0.036 H 
ATOM     15  H12 MS8 d           1.800  40.435   3.313  0.00  0.00     0.036 H 
ATOM     16  H13 MS8 d           3.047  40.384   5.510  0.00  0.00     0.036 H 
ATOM     17  H14 MS8 d           1.793  41.668   5.423  0.00  0.00     0.036 H 
ATOM     18  H15 MS8 d           4.786  42.076   4.862  0.00  0.00     0.074 H 
ATOM     19  H16 MS8 d           3.946  42.523   6.387  0.00  0.00     0.074 H 
ENDROOT
BRANCH   1  20
ATOM     20  CB  MS8 d           0.830  44.233   1.124  0.00  0.00     0.010 C 
ATOM     21  H5  MS8 d           0.849  45.244   0.693  0.00  0.00     0.042 H 
ATOM     22  H6  MS8 d           1.565  43.599   0.606  0.00  0.00     0.042 H 
BRANCH  20  23
ATOM     23  CA  MS8 d          -0.567  43.635   0.934  0.00  0.00     0.185 C 
ATOM     24  H1  MS8 d          -1.249  44.068   1.680  0.00  0.00     0.101 H 
BRANCH  23  25
ATOM     25  C   MS8 d          -1.056  43.998  -0.468  0.00  0.00     0.204 C 
ATOM     26  O   MS8 d          -1.019  45.209  -0.773  0.00  0.00    -0.646 OA
ATOM     27  OXT MS8 d          -1.445  43.061  -1.201  0.00  0.00    -0.646 OA
ENDBRANCH  23  25
BRANCH  23  28
ATOM     28  N   MS8 d          -0.545  42.175   1.105  0.00  0.00    -0.065 N 
ATOM     29  H2  MS8 d           0.142  41.929   1.800  0.00  0.00     0.275 HD
ATOM     30  H3  MS8 d          -0.307  41.738   0.229  0.00  0.00     0.275 HD
ATOM     31  H4  MS8 d          -1.454  41.858   1.402  0.00  0.00     0.275 HD
ENDBRANCH  23  28
ENDBRANCH  20  23
ENDBRANCH   1  20
BRANCH   1  32
ATOM     32  CAN MS8 d           0.269  45.286   3.336  0.00  0.00     0.209 C 
ATOM     33  OAC MS8 d          -0.433  46.045   2.633  0.00  0.00    -0.646 OA
ATOM     34  OAE MS8 d           0.291  45.261   4.586  0.00  0.00    -0.646 OA
ENDBRANCH   1  32
TORSDOF 5
ENDMDL
MODEL 2
REMARK VINA RESULT:      -7.0      1.731      2.047
REMARK  5 active torsions:
REMARK  status: ('A' for Active; 'I' for Inactive)
REMARK    1  A    between atoms: C_2  and  CA_4 
REMARK    2  A    between atoms: CA_4  and  N_5 
REMARK    3  A    between atoms: CA_4  and  CB_6 
REMARK    4  A    between atoms: CB_6  and  CAS_7 
REMARK    5  A    between atoms: CAS_7  and  CAN_9 
ROOT
ATOM      1  CAS MS8 d           1.961  44.377   3.680  0.00  0.00     0.154 C 
ATOM      2  CAJ MS8 d           3.444  43.989   3.664  0.00  0.00     0.000 C 
ATOM      3  OAL MS8 d           1.250  43.145   3.514  0.00  0.00    -0.361 OA
ATOM      4  CAR MS8 d           2.077  42.424   2.592  0.00  0.00     0.065 C 
ATOM      5  CAQ MS8 d           3.410  42.499   3.318  0.00  0.00     0.066 C 
ATOM      6  CAH MS8 d           1.590  40.981   2.455  0.00  0.00    -0.036 C 
ATOM      7  CAP MS8 d           1.706  40.238   3.786  0.00  0.00    -0.043 C 
ATOM      8  CAG MS8 d           3.136  40.364   4.311  0.00  0.00     0.020 C 
ATOM      9  OAK MS8 d           3.400  41.755   4.547  0.00  0.00    -0.383 OA
ATOM     10  H7  MS8 d           3.906  44.155   4.649  0.00  0.00     0.042 H 
ATOM     11  H8  MS8 d           3.993  44.559   2.901  0.00  0.00     0.042 H 
ATOM     12  H9  MS8 d           2.117  42.903   1.603  0.00  0.00     0.087 H 
ATOM     13  H10 MS8 d           4.250  42.185   2.680  0.00  0.00     0.087 H 
ATOM     14  H11 MS8 d           2.200  40.464   1.699  0.00  0.00     0.036 H 
ATOM     15  H12 MS8 d           0.537  40.985   2.136  0.00  0.00     0.036 H 
ATOM     16  H13 MS8 d           1.462  39.176   3.637  0.00  0.00     0.036 H 
ATOM     17  H14 MS8 d           1.008  40.676   4.513  0.00  0.00     0.036 H 
ATOM     18  H15 MS8 d           3.843  39.971   3.566  0.00  0.00     0.074 H 
ATOM     19  H16 MS8 d           3.240  39.800   5.250  0.00  0.00     0.074 H 
ENDROOT
BRANCH   1  20
ATOM     20  CB  MS8 d           1.690  45.309   2.498  0.00  0.00     0.010 C 
ATOM     21  H5  MS8 d           2.158  46.284   2.695  0.00  0.00     0.042 H 
ATOM     22  H6  MS8 d           2.126  44.870   1.588  0.00  0.00     0.042 H 
BRANCH  20  23
ATOM     23  CA  MS8 d           0.187  45.510   2.285  0.00  0.00     0.185 C 
ATOM     24  H1  MS8 d          -0.013  46.579   2.116  0.00  0.00     0.101 H 
BRANCH  23  25
ATOM     25  C   MS8 d          -0.232  44.716   1.048  0.00  0.00     0.204 C 
ATOM     26  O   MS8 d           0.169  45.150  -0.053  0.00  0.00    -0.646 OA
ATOM     27  OXT MS8 d          -0.932  43.695   1.232  0.00  0.00    -0.646 OA
ENDBRANCH  23  25
BRANCH  23  28
ATOM     28  N   MS8 d          -0.577  45.067   3.460  0.00  0.00    -0.065 N 
ATOM     29  H2  MS8 d          -0.123  44.268   3.874  0.00  0.00     0.275 HD
ATOM     30  H3  MS8 d          -1.511  44.813   3.177  0.00  0.00     0.275 HD
ATOM     31  H4  MS8 d          -0.622  45.815   4.134  0.00  0.00     0.275 HD
ENDBRANCH  23  28
ENDBRANCH  20  23
ENDBRANCH   1  20
BRANCH   1  32
ATOM     32  CAN MS8 d           1.584  45.058   4.996  0.00  0.00     0.209 C 
ATOM     33  OAC MS8 d           1.994  46.226   5.175  0.00  0.00    -0.646 OA
ATOM     34  OAE MS8 d           0.907  44.390   5.807  0.00  0.00    -0.646 OA
ENDBRANCH   1  32
TORSDOF 5
ENDMDL
