MODEL 1
REMARK VINA RESULT:      -7.1      0.000      0.000
REMARK  6 active torsions:
REMARK  status: ('A' for Active; 'I' for Inactive)
REMARK    1  A    between atoms: CAA_1  and  CAH_2 
REMARK    2  A    between atoms: CAH_2  and  CAB_3 
REMARK    3  A    between atoms: CAH_2  and  CAL_4 
REMARK    4  A    between atoms: CAI_7  and  OAC_8 
REMARK    5  A    between atoms: CAJ_9  and  OAD_10 
REMARK    6  A    between atoms: CAK_11  and  OAE_12 
ROOT
ATOM      1  CAL ZXD d          -0.018  28.360  25.539  0.00  0.00     0.131 C 
ATOM      2  NAG ZXD d          -0.182  27.213  26.449  0.00  0.00    -0.066 N 
ATOM      3  CAF ZXD d          -1.602  26.841  26.569  0.00  0.00     0.108 C 
ATOM      4  CAI ZXD d          -2.118  26.413  25.189  0.00  0.00     0.086 C 
ATOM      5  CAJ ZXD d          -1.994  27.591  24.219  0.00  0.00     0.088 C 
ATOM      6  CAK ZXD d          -0.523  28.002  24.137  0.00  0.00     0.090 C 
ATOM      7  H8  ZXD d          -0.637  29.187  25.917  0.00  0.00     0.089 H 
ATOM      8  H9  ZXD d           0.174  27.460  27.359  0.00  0.00     0.277 HD
ATOM      9  H10 ZXD d           0.336  26.427  26.088  0.00  0.00     0.277 HD
ATOM     10  H11 ZXD d          -2.181  27.704  26.929  0.00  0.00     0.079 H 
ATOM     11  H12 ZXD d          -1.707  26.007  27.278  0.00  0.00     0.079 H 
ATOM     12  H13 ZXD d          -1.507  25.576  24.822  0.00  0.00     0.089 H 
ATOM     13  H15 ZXD d          -2.590  28.437  24.591  0.00  0.00     0.091 H 
ATOM     14  H17 ZXD d          -0.416  28.871  23.472  0.00  0.00     0.090 H 
ENDROOT
BRANCH   1  15
ATOM     15  CAH ZXD d           1.439  28.837  25.532  0.00  0.00    -0.031 C 
ATOM     16  H4  ZXD d           1.581  29.526  24.687  0.00  0.00     0.042 H 
BRANCH  15  17
ATOM     17  CAA ZXD d           1.750  29.572  26.840  0.00  0.00    -0.071 C 
ATOM     18  H1  ZXD d           2.839  29.616  26.986  0.00  0.00     0.028 H 
ATOM     19  H2  ZXD d           1.288  29.035  27.681  0.00  0.00     0.028 H 
ATOM     20  H3  ZXD d           1.345  30.594  26.791  0.00  0.00     0.028 H 
ENDBRANCH  15  17
BRANCH  15  21
ATOM     21  CAB ZXD d           2.407  27.660  25.381  0.00  0.00    -0.071 C 
ATOM     22  H5  ZXD d           3.413  28.039  25.149  0.00  0.00     0.028 H 
ATOM     23  H6  ZXD d           2.064  27.006  24.566  0.00  0.00     0.028 H 
ATOM     24  H7  ZXD d           2.439  27.088  26.321  0.00  0.00     0.028 H 
ENDBRANCH  15  21
ENDBRANCH   1  15
BRANCH   6  25
ATOM     25  OAE ZXD d           0.238  26.906  23.626  0.00  0.00    -0.391 OA
ATOM     26  H18 ZXD d           0.875  27.229  22.999  0.00  0.00     0.210 HD
ENDBRANCH   6  25
BRANCH   5  27
ATOM     27  OAD ZXD d          -2.473  27.211  22.928  0.00  0.00    -0.390 OA
ATOM     28  H16 ZXD d          -3.422  27.250  22.920  0.00  0.00     0.210 HD
ENDBRANCH   5  27
BRANCH   4  29
ATOM     29  OAC ZXD d          -3.482  25.993  25.267  0.00  0.00    -0.391 OA
ATOM     30  H14 ZXD d          -4.050  26.726  25.056  0.00  0.00     0.210 HD
ENDBRANCH   4  29
TORSDOF 6
ENDMDL
MODEL 2
REMARK VINA RESULT:      -5.8      2.450      4.554
REMARK  6 active torsions:
REMARK  status: ('A' for Active; 'I' for Inactive)
REMARK    1  A    between atoms: CAA_1  and  CAH_2 
REMARK    2  A    between atoms: CAH_2  and  CAB_3 
REMARK    3  A    between atoms: CAH_2  and  CAL_4 
REMARK    4  A    between atoms: CAI_7  and  OAC_8 
REMARK    5  A    between atoms: CAJ_9  and  OAD_10 
REMARK    6  A    between atoms: CAK_11  and  OAE_12 
ROOT
ATOM      1  CAL ZXD d          -1.725  28.176  26.355  0.00  0.00     0.131 C 
ATOM      2  NAG ZXD d          -1.337  27.679  25.024  0.00  0.00    -0.066 N 
ATOM      3  CAF ZXD d          -0.231  28.478  24.470  0.00  0.00     0.108 C 
ATOM      4  CAI ZXD d           0.988  28.337  25.390  0.00  0.00     0.086 C 
ATOM      5  CAJ ZXD d           0.635  28.874  26.779  0.00  0.00     0.088 C 
ATOM      6  CAK ZXD d          -0.545  28.069  27.326  0.00  0.00     0.090 C 
ATOM      7  H8  ZXD d          -1.985  29.240  26.259  0.00  0.00     0.089 H 
ATOM      8  H9  ZXD d          -2.129  27.737  24.405  0.00  0.00     0.277 HD
ATOM      9  H10 ZXD d          -1.042  26.718  25.102  0.00  0.00     0.277 HD
ATOM     10  H11 ZXD d          -0.531  29.535  24.414  0.00  0.00     0.079 H 
ATOM     11  H12 ZXD d           0.021  28.114  23.463  0.00  0.00     0.079 H 
ATOM     12  H13 ZXD d           1.255  27.273  25.471  0.00  0.00     0.089 H 
ATOM     13  H15 ZXD d           0.351  29.933  26.702  0.00  0.00     0.091 H 
ATOM     14  H17 ZXD d          -0.839  28.463  28.311  0.00  0.00     0.090 H 
ENDROOT
BRANCH   1  15
ATOM     15  CAH ZXD d          -2.970  27.438  26.862  0.00  0.00    -0.031 C 
ATOM     16  H4  ZXD d          -2.649  26.568  27.454  0.00  0.00     0.042 H 
BRANCH  15  17
ATOM     17  CAA ZXD d          -3.799  28.372  27.750  0.00  0.00    -0.071 C 
ATOM     18  H1  ZXD d          -3.994  27.882  28.715  0.00  0.00     0.028 H 
ATOM     19  H2  ZXD d          -4.755  28.597  27.253  0.00  0.00     0.028 H 
ATOM     20  H3  ZXD d          -3.245  29.307  27.918  0.00  0.00     0.028 H 
ENDBRANCH  15  17
BRANCH  15  21
ATOM     21  CAB ZXD d          -3.840  26.954  25.699  0.00  0.00    -0.071 C 
ATOM     22  H5  ZXD d          -4.280  25.979  25.951  0.00  0.00     0.028 H 
ATOM     23  H6  ZXD d          -3.221  26.855  24.795  0.00  0.00     0.028 H 
ATOM     24  H7  ZXD d          -4.644  27.682  25.514  0.00  0.00     0.028 H 
ENDBRANCH  15  21
ENDBRANCH   1  15
BRANCH   6  25
ATOM     25  OAE ZXD d          -0.157  26.700  27.451  0.00  0.00    -0.391 OA
ATOM     26  H18 ZXD d           0.769  26.616  27.251  0.00  0.00     0.210 HD
ENDBRANCH   6  25
BRANCH   5  27
ATOM     27  OAD ZXD d           1.761  28.752  27.650  0.00  0.00    -0.390 OA
ATOM     28  H16 ZXD d           1.920  29.585  28.079  0.00  0.00     0.210 HD
ENDBRANCH   5  27
BRANCH   4  29
ATOM     29  OAC ZXD d           2.106  29.057  24.864  0.00  0.00    -0.391 OA
ATOM     30  H14 ZXD d           1.850  29.957  24.697  0.00  0.00     0.210 HD
ENDBRANCH   4  29
TORSDOF 6
ENDMDL
MODEL 3
REMARK VINA RESULT:      -5.6      1.706      4.107
REMARK  6 active torsions:
REMARK  status: ('A' for Active; 'I' for Inactive)
REMARK    1  A    between atoms: CAA_1  and  CAH_2 
REMARK    2  A    between atoms: CAH_2  and  CAB_3 
REMARK    3  A    between atoms: CAH_2  and  CAL_4 
REMARK    4  A    between atoms: CAI_7  and  OAC_8 
REMARK    5  A    between atoms: CAJ_9  and  OAD_10 
REMARK    6  A    between atoms: CAK_11  and  OAE_12 
ROOT
ATOM      1  CAL ZXD d          -1.838  27.667  26.225  0.00  0.00     0.131 C 
ATOM      2  NAG ZXD d          -1.357  29.037  26.475  0.00  0.00    -0.066 N 
ATOM      3  CAF ZXD d           0.113  29.093  26.413  0.00  0.00     0.108 C 
ATOM      4  CAI ZXD d           0.562  28.696  25.001  0.00  0.00     0.086 C 
ATOM      5  CAJ ZXD d           0.108  27.263  24.713  0.00  0.00     0.088 C 
ATOM      6  CAK ZXD d          -1.416  27.203  24.827  0.00  0.00     0.090 C 
ATOM      7  H8  ZXD d          -1.362  26.999  26.958  0.00  0.00     0.089 H 
ATOM      8  H9  ZXD d          -1.661  29.333  27.389  0.00  0.00     0.277 HD
ATOM      9  H10 ZXD d          -1.741  29.655  25.777  0.00  0.00     0.277 HD
ATOM     10  H11 ZXD d           0.542  28.395  27.147  0.00  0.00     0.079 H 
ATOM     11  H12 ZXD d           0.454  30.115  26.636  0.00  0.00     0.079 H 
ATOM     12  H13 ZXD d           0.097  29.376  24.272  0.00  0.00     0.089 H 
ATOM     13  H15 ZXD d           0.558  26.581  25.449  0.00  0.00     0.091 H 
ATOM     14  H17 ZXD d          -1.761  26.172  24.659  0.00  0.00     0.090 H 
ENDROOT
BRANCH   1  15
ATOM     15  CAH ZXD d          -3.354  27.583  26.437  0.00  0.00    -0.031 C 
ATOM     16  H4  ZXD d          -3.847  28.282  25.746  0.00  0.00     0.042 H 
BRANCH  15  17
ATOM     17  CAA ZXD d          -3.840  26.159  26.144  0.00  0.00    -0.071 C 
ATOM     18  H1  ZXD d          -4.878  26.048  26.489  0.00  0.00     0.028 H 
ATOM     19  H2  ZXD d          -3.198  25.438  26.670  0.00  0.00     0.028 H 
ATOM     20  H3  ZXD d          -3.791  25.971  25.061  0.00  0.00     0.028 H 
ENDBRANCH  15  17
BRANCH  15  21
ATOM     21  CAB ZXD d          -3.735  27.952  27.873  0.00  0.00    -0.071 C 
ATOM     22  H5  ZXD d          -3.551  29.024  28.038  0.00  0.00     0.028 H 
ATOM     23  H6  ZXD d          -3.127  27.364  28.576  0.00  0.00     0.028 H 
ATOM     24  H7  ZXD d          -4.800  27.734  28.039  0.00  0.00     0.028 H 
ENDBRANCH  15  21
ENDBRANCH   1  15
BRANCH   6  25
ATOM     25  OAE ZXD d          -1.990  28.070  23.847  0.00  0.00    -0.391 OA
ATOM     26  H18 ZXD d          -2.909  28.206  24.045  0.00  0.00     0.210 HD
ENDBRANCH   6  25
BRANCH   5  27
ATOM     27  OAD ZXD d           0.521  26.875  23.402  0.00  0.00    -0.390 OA
ATOM     28  H16 ZXD d           1.408  26.536  23.437  0.00  0.00     0.210 HD
ENDBRANCH   5  27
BRANCH   4  29
ATOM     29  OAC ZXD d           1.984  28.786  24.878  0.00  0.00    -0.391 OA
ATOM     30  H14 ZXD d           2.204  29.448  24.232  0.00  0.00     0.210 HD
ENDBRANCH   4  29
TORSDOF 6
ENDMDL
MODEL 4
REMARK VINA RESULT:      -5.6      1.723      2.491
REMARK  6 active torsions:
REMARK  status: ('A' for Active; 'I' for Inactive)
REMARK    1  A    between atoms: CAA_1  and  CAH_2 
REMARK    2  A    between atoms: CAH_2  and  CAB_3 
REMARK    3  A    between atoms: CAH_2  and  CAL_4 
REMARK    4  A    between atoms: CAI_7  and  OAC_8 
REMARK    5  A    between atoms: CAJ_9  and  OAD_10 
REMARK    6  A    between atoms: CAK_11  and  OAE_12 
ROOT
ATOM      1  CAL ZXD d           0.192  28.030  25.911  0.00  0.00     0.131 C 
ATOM      2  NAG ZXD d          -0.485  28.265  24.624  0.00  0.00    -0.066 N 
ATOM      3  CAF ZXD d          -1.413  27.165  24.314  0.00  0.00     0.108 C 
ATOM      4  CAI ZXD d          -2.494  27.110  25.402  0.00  0.00     0.086 C 
ATOM      5  CAJ ZXD d          -1.833  26.835  26.755  0.00  0.00     0.088 C 
ATOM      6  CAK ZXD d          -0.835  27.957  27.046  0.00  0.00     0.090 C 
ATOM      7  H8  ZXD d           0.700  27.056  25.856  0.00  0.00     0.089 H 
ATOM      8  H9  ZXD d           0.206  28.330  23.894  0.00  0.00     0.277 HD
ATOM      9  H10 ZXD d          -1.002  29.129  24.675  0.00  0.00     0.277 HD
ATOM     10  H11 ZXD d          -0.864  26.212  24.291  0.00  0.00     0.079 H 
ATOM     11  H12 ZXD d          -1.883  27.341  23.335  0.00  0.00     0.079 H 
ATOM     12  H13 ZXD d          -3.011  28.081  25.443  0.00  0.00     0.089 H 
ATOM     13  H15 ZXD d          -1.300  25.873  26.714  0.00  0.00     0.091 H 
ATOM     14  H17 ZXD d          -0.321  27.760  27.998  0.00  0.00     0.090 H 
ENDROOT
BRANCH   1  15
ATOM     15  CAH ZXD d           1.263  29.099  26.159  0.00  0.00    -0.031 C 
ATOM     16  H4  ZXD d           0.780  30.087  26.171  0.00  0.00     0.042 H 
BRANCH  15  17
ATOM     17  CAA ZXD d           1.939  28.851  27.511  0.00  0.00    -0.071 C 
ATOM     18  H1  ZXD d           2.885  29.412  27.556  0.00  0.00     0.028 H 
ATOM     19  H2  ZXD d           2.143  27.777  27.628  0.00  0.00     0.028 H 
ATOM     20  H3  ZXD d           1.274  29.187  28.320  0.00  0.00     0.028 H 
ENDBRANCH  15  17
BRANCH  15  21
ATOM     21  CAB ZXD d           2.329  29.080  25.059  0.00  0.00    -0.071 C 
ATOM     22  H5  ZXD d           1.863  28.806  24.101  0.00  0.00     0.028 H 
ATOM     23  H6  ZXD d           3.105  28.343  25.313  0.00  0.00     0.028 H 
ATOM     24  H7  ZXD d           2.784  30.078  24.973  0.00  0.00     0.028 H 
ENDBRANCH  15  21
ENDBRANCH   1  15
BRANCH   6  25
ATOM     25  OAE ZXD d          -1.541  29.197  27.126  0.00  0.00    -0.391 OA
ATOM     26  H18 ZXD d          -1.497  29.640  26.286  0.00  0.00     0.210 HD
ENDBRANCH   6  25
BRANCH   5  27
ATOM     27  OAD ZXD d          -2.825  26.779  27.780  0.00  0.00    -0.390 OA
ATOM     28  H16 ZXD d          -3.249  27.625  27.856  0.00  0.00     0.210 HD
ENDBRANCH   5  27
BRANCH   4  29
ATOM     29  OAC ZXD d          -3.450  26.087  25.115  0.00  0.00    -0.391 OA
ATOM     30  H14 ZXD d          -3.379  25.837  24.201  0.00  0.00     0.210 HD
ENDBRANCH   4  29
TORSDOF 6
ENDMDL
MODEL 5
REMARK VINA RESULT:      -5.1      1.859      2.201
REMARK  6 active torsions:
REMARK  status: ('A' for Active; 'I' for Inactive)
REMARK    1  A    between atoms: CAA_1  and  CAH_2 
REMARK    2  A    between atoms: CAH_2  and  CAB_3 
REMARK    3  A    between atoms: CAH_2  and  CAL_4 
REMARK    4  A    between atoms: CAI_7  and  OAC_8 
REMARK    5  A    between atoms: CAJ_9  and  OAD_10 
REMARK    6  A    between atoms: CAK_11  and  OAE_12 
ROOT
ATOM      1  CAL ZXD d           0.128  28.882  25.984  0.00  0.00     0.131 C 
ATOM      2  NAG ZXD d          -0.478  29.543  27.152  0.00  0.00    -0.066 N 
ATOM      3  CAF ZXD d          -1.947  29.464  27.092  0.00  0.00     0.108 C 
ATOM      4  CAI ZXD d          -2.363  27.987  27.129  0.00  0.00     0.086 C 
ATOM      5  CAJ ZXD d          -1.778  27.270  25.911  0.00  0.00     0.088 C 
ATOM      6  CAK ZXD d          -0.255  27.398  25.955  0.00  0.00     0.090 C 
ATOM      7  H8  ZXD d          -0.280  29.351  25.076  0.00  0.00     0.089 H 
ATOM      8  H9  ZXD d          -0.199  30.511  27.166  0.00  0.00     0.277 HD
ATOM      9  H10 ZXD d          -0.157  29.089  27.993  0.00  0.00     0.277 HD
ATOM     10  H11 ZXD d          -2.305  29.925  26.160  0.00  0.00     0.079 H 
ATOM     11  H12 ZXD d          -2.382  29.992  27.954  0.00  0.00     0.079 H 
ATOM     12  H13 ZXD d          -1.967  27.526  28.046  0.00  0.00     0.089 H 
ATOM     13  H15 ZXD d          -2.159  27.738  24.991  0.00  0.00     0.091 H 
ATOM     14  H17 ZXD d           0.185  26.919  25.068  0.00  0.00     0.090 H 
ENDROOT
BRANCH   1  15
ATOM     15  CAH ZXD d           1.646  29.095  25.973  0.00  0.00    -0.031 C 
ATOM     16  H4  ZXD d           1.867  30.044  25.462  0.00  0.00     0.042 H 
BRANCH  15  17
ATOM     17  CAA ZXD d           2.170  29.164  27.411  0.00  0.00    -0.071 C 
ATOM     18  H1  ZXD d           2.063  30.190  27.791  0.00  0.00     0.028 H 
ATOM     19  H2  ZXD d           3.232  28.875  27.429  0.00  0.00     0.028 H 
ATOM     20  H3  ZXD d           1.593  28.475  28.045  0.00  0.00     0.028 H 
ENDBRANCH  15  17
BRANCH  15  21
ATOM     21  CAB ZXD d           2.360  27.957  25.237  0.00  0.00    -0.071 C 
ATOM     22  H5  ZXD d           1.643  27.151  25.023  0.00  0.00     0.028 H 
ATOM     23  H6  ZXD d           3.173  27.567  25.867  0.00  0.00     0.028 H 
ATOM     24  H7  ZXD d           2.778  28.336  24.292  0.00  0.00     0.028 H 
ENDBRANCH  15  21
ENDBRANCH   1  15
BRANCH   6  25
ATOM     25  OAE ZXD d           0.231  26.761  27.138  0.00  0.00    -0.391 OA
ATOM     26  H18 ZXD d           0.170  25.818  27.036  0.00  0.00     0.210 HD
ENDBRANCH   6  25
BRANCH   5  27
ATOM     27  OAD ZXD d          -2.158  25.893  25.928  0.00  0.00    -0.390 OA
ATOM     28  H16 ZXD d          -1.487  25.375  25.498  0.00  0.00     0.210 HD
ENDBRANCH   5  27
BRANCH   4  29
ATOM     29  OAC ZXD d          -3.788  27.863  27.125  0.00  0.00    -0.391 OA
ATOM     30  H14 ZXD d          -4.168  28.605  26.669  0.00  0.00     0.210 HD
ENDBRANCH   4  29
TORSDOF 6
ENDMDL
MODEL 6
REMARK VINA RESULT:      -4.5      2.000      4.280
REMARK  6 active torsions:
REMARK  status: ('A' for Active; 'I' for Inactive)
REMARK    1  A    between atoms: CAA_1  and  CAH_2 
REMARK    2  A    between atoms: CAH_2  and  CAB_3 
REMARK    3  A    between atoms: CAH_2  and  CAL_4 
REMARK    4  A    between atoms: CAI_7  and  OAC_8 
REMARK    5  A    between atoms: CAJ_9  and  OAD_10 
REMARK    6  A    between atoms: CAK_11  and  OAE_12 
ROOT
ATOM      1  CAL ZXD d          -0.980  27.813  25.669  0.00  0.00     0.131 C 
ATOM      2  NAG ZXD d          -0.884  29.110  26.360  0.00  0.00    -0.066 N 
ATOM      3  CAF ZXD d           0.376  29.207  27.117  0.00  0.00     0.108 C 
ATOM      4  CAI ZXD d           1.550  29.119  26.133  0.00  0.00     0.086 C 
ATOM      5  CAJ ZXD d           1.505  27.768  25.416  0.00  0.00     0.088 C 
ATOM      6  CAK ZXD d           0.173  27.656  24.672  0.00  0.00     0.090 C 
ATOM      7  H8  ZXD d          -0.881  27.017  26.423  0.00  0.00     0.089 H 
ATOM      8  H9  ZXD d          -1.659  29.205  26.996  0.00  0.00     0.277 HD
ATOM      9  H10 ZXD d          -0.917  29.852  25.678  0.00  0.00     0.277 HD
ATOM     10  H11 ZXD d           0.438  28.380  27.840  0.00  0.00     0.079 H 
ATOM     11  H12 ZXD d           0.413  30.167  27.653  0.00  0.00     0.079 H 
ATOM     12  H13 ZXD d           1.457  29.926  25.392  0.00  0.00     0.089 H 
ATOM     13  H15 ZXD d           1.581  26.957  26.155  0.00  0.00     0.091 H 
ATOM     14  H17 ZXD d           0.104  26.676  24.178  0.00  0.00     0.090 H 
ENDROOT
BRANCH   1  15
ATOM     15  CAH ZXD d          -2.353  27.657  25.006  0.00  0.00    -0.031 C 
ATOM     16  H4  ZXD d          -2.639  28.618  24.555  0.00  0.00     0.042 H 
BRANCH  15  17
ATOM     17  CAA ZXD d          -2.281  26.588  23.911  0.00  0.00    -0.071 C 
ATOM     18  H1  ZXD d          -1.273  26.148  23.894  0.00  0.00     0.028 H 
ATOM     19  H2  ZXD d          -2.496  27.049  22.935  0.00  0.00     0.028 H 
ATOM     20  H3  ZXD d          -3.021  25.802  24.116  0.00  0.00     0.028 H 
ENDBRANCH  15  17
BRANCH  15  21
ATOM     21  CAB ZXD d          -3.419  27.251  26.028  0.00  0.00    -0.071 C 
ATOM     22  H5  ZXD d          -3.856  26.285  25.738  0.00  0.00     0.028 H 
ATOM     23  H6  ZXD d          -4.208  28.016  26.058  0.00  0.00     0.028 H 
ATOM     24  H7  ZXD d          -2.958  27.160  27.023  0.00  0.00     0.028 H 
ENDBRANCH  15  21
ENDBRANCH   1  15
BRANCH   6  25
ATOM     25  OAE ZXD d           0.098  28.695  23.695  0.00  0.00    -0.391 OA
ATOM     26  H18 ZXD d          -0.249  28.342  22.884  0.00  0.00     0.210 HD
ENDBRANCH   6  25
BRANCH   5  27
ATOM     27  OAD ZXD d           2.593  27.668  24.497  0.00  0.00    -0.390 OA
ATOM     28  H16 ZXD d           3.328  28.177  24.820  0.00  0.00     0.210 HD
ENDBRANCH   5  27
BRANCH   4  29
ATOM     29  OAC ZXD d           2.797  29.260  26.819  0.00  0.00    -0.391 OA
ATOM     30  H14 ZXD d           3.373  28.545  26.575  0.00  0.00     0.210 HD
ENDBRANCH   4  29
TORSDOF 6
ENDMDL
