MODEL 1
REMARK VINA RESULT:      -8.8      0.000      0.000
REMARK  6 active torsions:
REMARK  status: ('A' for Active; 'I' for Inactive)
REMARK    1  A    between atoms: N1_2  and  C1_1 
REMARK    2  A    between atoms: C2_3  and  O2_5 
REMARK    3  A    between atoms: C9_17  and  N3_8 
REMARK    4  A    between atoms: C4_9  and  O4_10 
REMARK    5  A    between atoms: C5_11  and  C6_13 
REMARK    6  A    between atoms: C6_13  and  O6_14 
ROOT
ATOM      1  C1  DKZ d          33.201  23.024  28.134  0.00  0.00     0.141 C 
ATOM      2  C2  DKZ d          33.480  23.283  26.641  0.00  0.00     0.110 C 
ATOM      3  C3  DKZ d          32.497  22.458  25.780  0.00  0.00     0.134 C 
ATOM      4  F3  DKZ d          32.879  22.491  24.459  0.00  0.00    -0.244 F 
ATOM      5  C4  DKZ d          32.416  20.982  26.241  0.00  0.00     0.094 C 
ATOM      6  C5  DKZ d          32.338  20.812  27.777  0.00  0.00     0.088 C 
ATOM      7  O5  DKZ d          33.368  21.597  28.429  0.00  0.00    -0.353 OA
ATOM      8  H1  DKZ d          32.171  23.348  28.343  0.00  0.00     0.123 H 
ATOM      9  H2  DKZ d          34.501  22.945  26.415  0.00  0.00     0.094 H 
ATOM     10  H5  DKZ d          31.496  22.908  25.872  0.00  0.00     0.100 H 
ATOM     11  H7  DKZ d          33.316  20.460  25.884  0.00  0.00     0.091 H 
ATOM     12  H9  DKZ d          31.349  21.154  28.116  0.00  0.00     0.090 H 
ENDROOT
BRANCH   1  13
ATOM     13  N1  DKZ d          34.117  23.644  29.119  0.00  0.00    -0.280 N 
ATOM     14  C7  DKZ d          35.520  23.482  29.041  0.00  0.00    -0.009 A 
ATOM     15  C8  DKZ d          36.325  24.075  30.013  0.00  0.00    -0.024 A 
ATOM     16  H13 DKZ d          35.964  22.903  28.233  0.00  0.00     0.112 H 
ATOM     17  C9  DKZ d          35.697  24.794  31.041  0.00  0.00     0.125 A 
ATOM     18  H14 DKZ d          37.409  23.984  29.974  0.00  0.00     0.091 H 
ATOM     19  N2  DKZ d          34.351  24.923  31.100  0.00  0.00    -0.293 N 
ATOM     20  C10 DKZ d          33.548  24.358  30.175  0.00  0.00     0.330 A 
ATOM     21  H3  DKZ d          33.943  25.451  31.846  0.00  0.00     0.172 HD
ATOM     22  O10 DKZ d          32.316  24.480  30.236  0.00  0.00    -0.246 OA
BRANCH  17  23
ATOM     23  N3  DKZ d          36.429  25.360  31.996  0.00  0.00    -0.284 NA
ATOM     24  H6  DKZ d          37.025  24.792  32.578  0.00  0.00     0.188 HD
ENDBRANCH  17  23
ENDBRANCH   1  13
BRANCH   2  25
ATOM     25  O2  DKZ d          33.401  24.698  26.337  0.00  0.00    -0.388 OA
ATOM     26  H4  DKZ d          33.918  25.185  26.967  0.00  0.00     0.210 HD
ENDBRANCH   2  25
BRANCH   6  27
ATOM     27  C6  DKZ d          32.536  19.344  28.202  0.00  0.00     0.043 C 
ATOM     28  H10 DKZ d          31.583  18.802  28.111  0.00  0.00     0.078 H 
ATOM     29  H11 DKZ d          32.881  19.305  29.246  0.00  0.00     0.078 H 
BRANCH  27  30
ATOM     30  O6  DKZ d          33.519  18.737  27.350  0.00  0.00    -0.398 OA
ATOM     31  H12 DKZ d          34.355  18.714  27.798  0.00  0.00     0.209 HD
ENDBRANCH  27  30
ENDBRANCH   6  27
BRANCH   5  32
ATOM     32  O4  DKZ d          31.265  20.389  25.650  0.00  0.00    -0.390 OA
ATOM     33  H8  DKZ d          31.530  19.851  24.913  0.00  0.00     0.210 HD
ENDBRANCH   5  32
TORSDOF 6
ENDMDL
MODEL 2
REMARK VINA RESULT:      -7.3      1.138      1.606
REMARK  6 active torsions:
REMARK  status: ('A' for Active; 'I' for Inactive)
REMARK    1  A    between atoms: N1_2  and  C1_1 
REMARK    2  A    between atoms: C2_3  and  O2_5 
REMARK    3  A    between atoms: C9_17  and  N3_8 
REMARK    4  A    between atoms: C4_9  and  O4_10 
REMARK    5  A    between atoms: C5_11  and  C6_13 
REMARK    6  A    between atoms: C6_13  and  O6_14 
ROOT
ATOM      1  C1  DKZ d          33.193  23.132  28.184  0.00  0.00     0.141 C 
ATOM      2  C2  DKZ d          33.647  23.330  26.726  0.00  0.00     0.110 C 
ATOM      3  C3  DKZ d          32.732  22.515  25.783  0.00  0.00     0.134 C 
ATOM      4  F3  DKZ d          33.261  22.489  24.514  0.00  0.00    -0.244 F 
ATOM      5  C4  DKZ d          32.540  21.059  26.275  0.00  0.00     0.094 C 
ATOM      6  C5  DKZ d          32.284  20.944  27.797  0.00  0.00     0.088 C 
ATOM      7  O5  DKZ d          33.266  21.711  28.538  0.00  0.00    -0.353 OA
ATOM      8  H1  DKZ d          32.160  23.503  28.267  0.00  0.00     0.123 H 
ATOM      9  H2  DKZ d          34.672  22.946  26.626  0.00  0.00     0.094 H 
ATOM     10  H5  DKZ d          31.748  23.005  25.749  0.00  0.00     0.100 H 
ATOM     11  H7  DKZ d          33.452  20.492  26.037  0.00  0.00     0.091 H 
ATOM     12  H9  DKZ d          31.279  21.334  28.013  0.00  0.00     0.090 H 
ENDROOT
BRANCH   1  13
ATOM     13  N1  DKZ d          34.018  23.750  29.248  0.00  0.00    -0.280 N 
ATOM     14  C7  DKZ d          33.437  24.394  30.365  0.00  0.00    -0.009 A 
ATOM     15  C8  DKZ d          34.270  24.975  31.322  0.00  0.00    -0.024 A 
ATOM     16  H13 DKZ d          32.354  24.436  30.477  0.00  0.00     0.112 H 
ATOM     17  C9  DKZ d          35.656  24.907  31.116  0.00  0.00     0.125 A 
ATOM     18  H14 DKZ d          33.856  25.465  32.201  0.00  0.00     0.091 H 
ATOM     19  N2  DKZ d          36.186  24.295  30.032  0.00  0.00    -0.293 N 
ATOM     20  C10 DKZ d          35.405  23.728  29.090  0.00  0.00     0.330 A 
ATOM     21  H3  DKZ d          37.181  24.263  29.927  0.00  0.00     0.172 HD
ATOM     22  O10 DKZ d          35.898  23.170  28.100  0.00  0.00    -0.246 OA
BRANCH  17  23
ATOM     23  N3  DKZ d          36.483  25.463  31.996  0.00  0.00    -0.284 NA
ATOM     24  H6  DKZ d          36.113  25.940  32.804  0.00  0.00     0.188 HD
ENDBRANCH  17  23
ENDBRANCH   1  13
BRANCH   2  25
ATOM     25  O2  DKZ d          33.661  24.736  26.373  0.00  0.00    -0.388 OA
ATOM     26  H4  DKZ d          34.107  25.227  27.053  0.00  0.00     0.210 HD
ENDBRANCH   2  25
BRANCH   6  27
ATOM     27  C6  DKZ d          32.373  19.484  28.285  0.00  0.00     0.043 C 
ATOM     28  H10 DKZ d          32.457  19.467  29.381  0.00  0.00     0.078 H 
ATOM     29  H11 DKZ d          33.256  19.000  27.842  0.00  0.00     0.078 H 
BRANCH  27  30
ATOM     30  O6  DKZ d          31.188  18.783  27.882  0.00  0.00    -0.398 OA
ATOM     31  H12 DKZ d          30.895  19.114  27.041  0.00  0.00     0.209 HD
ENDBRANCH  27  30
ENDBRANCH   6  27
BRANCH   5  32
ATOM     32  O4  DKZ d          31.438  20.491  25.576  0.00  0.00    -0.390 OA
ATOM     33  H8  DKZ d          31.513  19.544  25.584  0.00  0.00     0.210 HD
ENDBRANCH   5  32
TORSDOF 6
ENDMDL
MODEL 3
REMARK VINA RESULT:      -6.9      1.005      1.005
REMARK  6 active torsions:
REMARK  status: ('A' for Active; 'I' for Inactive)
REMARK    1  A    between atoms: N1_2  and  C1_1 
REMARK    2  A    between atoms: C2_3  and  O2_5 
REMARK    3  A    between atoms: C9_17  and  N3_8 
REMARK    4  A    between atoms: C4_9  and  O4_10 
REMARK    5  A    between atoms: C5_11  and  C6_13 
REMARK    6  A    between atoms: C6_13  and  O6_14 
ROOT
ATOM      1  C1  DKZ d          33.758  23.308  27.882  0.00  0.00     0.141 C 
ATOM      2  C2  DKZ d          34.199  23.400  26.409  0.00  0.00     0.110 C 
ATOM      3  C3  DKZ d          33.090  22.821  25.499  0.00  0.00     0.134 C 
ATOM      4  F3  DKZ d          33.558  22.677  24.214  0.00  0.00    -0.244 F 
ATOM      5  C4  DKZ d          32.581  21.449  26.003  0.00  0.00     0.094 C 
ATOM      6  C5  DKZ d          32.354  21.392  27.533  0.00  0.00     0.088 C 
ATOM      7  O5  DKZ d          33.510  21.908  28.239  0.00  0.00    -0.353 OA
ATOM      8  H1  DKZ d          32.842  23.908  27.995  0.00  0.00     0.123 H 
ATOM      9  H2  DKZ d          35.103  22.788  26.279  0.00  0.00     0.094 H 
ATOM     10  H5  DKZ d          32.246  23.527  25.493  0.00  0.00     0.100 H 
ATOM     11  H7  DKZ d          33.328  20.686  25.739  0.00  0.00     0.091 H 
ATOM     12  H9  DKZ d          31.474  22.005  27.778  0.00  0.00     0.090 H 
ENDROOT
BRANCH   1  13
ATOM     13  N1  DKZ d          34.737  23.714  28.916  0.00  0.00    -0.280 N 
ATOM     14  C7  DKZ d          36.041  23.169  28.966  0.00  0.00    -0.009 A 
ATOM     15  C8  DKZ d          36.909  23.578  29.979  0.00  0.00    -0.024 A 
ATOM     16  H13 DKZ d          36.364  22.441  28.223  0.00  0.00     0.112 H 
ATOM     17  C9  DKZ d          36.433  24.505  30.919  0.00  0.00     0.125 A 
ATOM     18  H14 DKZ d          37.924  23.191  30.037  0.00  0.00     0.091 H 
ATOM     19  N2  DKZ d          35.176  25.002  30.856  0.00  0.00    -0.293 N 
ATOM     20  C10 DKZ d          34.316  24.622  29.890  0.00  0.00     0.330 A 
ATOM     21  H3  DKZ d          34.879  25.667  31.542  0.00  0.00     0.172 HD
ATOM     22  O10 DKZ d          33.166  25.081  29.839  0.00  0.00    -0.246 OA
BRANCH  17  23
ATOM     23  N3  DKZ d          37.224  24.908  31.909  0.00  0.00    -0.284 NA
ATOM     24  H6  DKZ d          37.074  24.564  32.846  0.00  0.00     0.188 HD
ENDBRANCH  17  23
ENDBRANCH   1  13
BRANCH   2  25
ATOM     25  O2  DKZ d          34.528  24.764  26.050  0.00  0.00    -0.388 OA
ATOM     26  H4  DKZ d          35.468  24.890  26.113  0.00  0.00     0.210 HD
ENDBRANCH   2  25
BRANCH   6  27
ATOM     27  C6  DKZ d          32.116  19.950  28.024  0.00  0.00     0.043 C 
ATOM     28  H10 DKZ d          32.170  19.922  29.123  0.00  0.00     0.078 H 
ATOM     29  H11 DKZ d          32.884  19.285  27.603  0.00  0.00     0.078 H 
BRANCH  27  30
ATOM     30  O6  DKZ d          30.817  19.517  27.595  0.00  0.00    -0.398 OA
ATOM     31  H12 DKZ d          30.756  18.572  27.676  0.00  0.00     0.209 HD
ENDBRANCH  27  30
ENDBRANCH   6  27
BRANCH   5  32
ATOM     32  O4  DKZ d          31.356  21.154  25.342  0.00  0.00    -0.390 OA
ATOM     33  H8  DKZ d          30.828  20.587  25.892  0.00  0.00     0.210 HD
ENDBRANCH   5  32
TORSDOF 6
ENDMDL
MODEL 4
REMARK VINA RESULT:      -6.2      3.105      5.829
REMARK  6 active torsions:
REMARK  status: ('A' for Active; 'I' for Inactive)
REMARK    1  A    between atoms: N1_2  and  C1_1 
REMARK    2  A    between atoms: C2_3  and  O2_5 
REMARK    3  A    between atoms: C9_17  and  N3_8 
REMARK    4  A    between atoms: C4_9  and  O4_10 
REMARK    5  A    between atoms: C5_11  and  C6_13 
REMARK    6  A    between atoms: C6_13  and  O6_14 
ROOT
ATOM      1  C1  DKZ d          33.674  23.716  28.733  0.00  0.00     0.141 C 
ATOM      2  C2  DKZ d          32.897  24.216  29.965  0.00  0.00     0.110 C 
ATOM      3  C3  DKZ d          33.779  25.196  30.772  0.00  0.00     0.134 C 
ATOM      4  F3  DKZ d          33.198  25.466  31.989  0.00  0.00    -0.244 F 
ATOM      5  C4  DKZ d          35.202  24.636  31.010  0.00  0.00     0.094 C 
ATOM      6  C5  DKZ d          35.829  23.972  29.760  0.00  0.00     0.088 C 
ATOM      7  O5  DKZ d          34.899  23.034  29.161  0.00  0.00    -0.353 OA
ATOM      8  H1  DKZ d          33.911  24.591  28.110  0.00  0.00     0.123 H 
ATOM      9  H2  DKZ d          32.670  23.351  30.606  0.00  0.00     0.094 H 
ATOM     10  H5  DKZ d          33.863  26.133  30.202  0.00  0.00     0.100 H 
ATOM     11  H7  DKZ d          35.147  23.880  31.807  0.00  0.00     0.091 H 
ATOM     12  H9  DKZ d          36.071  24.760  29.031  0.00  0.00     0.090 H 
ENDROOT
BRANCH   1  13
ATOM     13  N1  DKZ d          33.031  22.680  27.892  0.00  0.00    -0.280 N 
ATOM     14  C7  DKZ d          33.289  21.301  28.077  0.00  0.00    -0.009 A 
ATOM     15  C8  DKZ d          32.668  20.377  27.238  0.00  0.00    -0.024 A 
ATOM     16  H13 DKZ d          33.963  20.966  28.865  0.00  0.00     0.112 H 
ATOM     17  C9  DKZ d          31.825  20.866  26.228  0.00  0.00     0.125 A 
ATOM     18  H14 DKZ d          32.831  19.308  27.362  0.00  0.00     0.091 H 
ATOM     19  N2  DKZ d          31.604  22.191  26.064  0.00  0.00    -0.293 N 
ATOM     20  C10 DKZ d          32.194  23.107  26.860  0.00  0.00     0.330 A 
ATOM     21  H3  DKZ d          30.990  22.498  25.337  0.00  0.00     0.172 HD
ATOM     22  O10 DKZ d          31.988  24.319  26.703  0.00  0.00    -0.246 OA
BRANCH  17  23
ATOM     23  N3  DKZ d          31.227  20.018  25.397  0.00  0.00    -0.284 NA
ATOM     24  H6  DKZ d          31.757  19.278  24.963  0.00  0.00     0.188 HD
ENDBRANCH  17  23
ENDBRANCH   1  13
BRANCH   2  25
ATOM     25  O2  DKZ d          31.641  24.823  29.575  0.00  0.00    -0.388 OA
ATOM     26  H4  DKZ d          31.636  24.963  28.635  0.00  0.00     0.210 HD
ENDBRANCH   2  25
BRANCH   6  27
ATOM     27  C6  DKZ d          37.113  23.194  30.106  0.00  0.00     0.043 C 
ATOM     28  H10 DKZ d          37.982  23.701  29.661  0.00  0.00     0.078 H 
ATOM     29  H11 DKZ d          37.044  22.171  29.708  0.00  0.00     0.078 H 
BRANCH  27  30
ATOM     30  O6  DKZ d          37.262  23.145  31.532  0.00  0.00    -0.398 OA
ATOM     31  H12 DKZ d          38.169  23.308  31.762  0.00  0.00     0.209 HD
ENDBRANCH  27  30
ENDBRANCH   6  27
BRANCH   5  32
ATOM     32  O4  DKZ d          36.040  25.705  31.435  0.00  0.00    -0.390 OA
ATOM     33  H8  DKZ d          36.254  26.255  30.690  0.00  0.00     0.210 HD
ENDBRANCH   5  32
TORSDOF 6
ENDMDL
