MODEL 1
REMARK VINA RESULT:      -7.1      0.000      0.000
REMARK  9 active torsions:
REMARK  status: ('A' for Active; 'I' for Inactive)
REMARK       I    between atoms: N7_8  and  C9_9 
REMARK    1  A    between atoms: C9_9  and  C11_11 
REMARK    2  A    between atoms: C12_12  and  N19_20 
REMARK    3  A    between atoms: C13_13  and  O17_18 
REMARK    4  A    between atoms: O17_18  and  C18_19 
REMARK       I    between atoms: N19_20  and  C20_21 
REMARK    5  A    between atoms: C20_21  and  C22_23 
REMARK    6  A    between atoms: C25_26  and  C28_29 
REMARK    7  A    between atoms: C28_29  and  N29_30 
REMARK    8  A    between atoms: N29_30  and  C31_31 
REMARK    9  A    between atoms: N29_30  and  C32_32 
ROOT
ATOM      1  C11 XLD d           7.432   7.471  22.368  0.00  0.00     0.063 A 
ATOM      2  C12 XLD d           6.245   7.463  23.211  0.00  0.00     0.084 A 
ATOM      3  C13 XLD d           6.200   8.289  24.376  0.00  0.00     0.097 A 
ATOM      4  C14 XLD d           7.319   9.103  24.702  0.00  0.00    -0.028 A 
ATOM      5  C15 XLD d           8.470   9.098  23.882  0.00  0.00     0.037 A 
ATOM      6 CL2  XLD d           9.813  10.050  24.241  0.00  0.00    -0.084 Cl
ATOM      7  C16 XLD d           8.509   8.301  22.743  0.00  0.00    -0.044 A 
ATOM      8  H5  XLD d           7.288   9.732  25.584  0.00  0.00     0.090 H 
ATOM      9  H6  XLD d           9.398   8.318  22.122  0.00  0.00     0.087 H 
ENDROOT
BRANCH   2  10
ATOM     10  N19 XLD d           5.189   6.647  22.882  0.00  0.00    -0.319 N 
ATOM     11  C20 XLD d           4.161   6.937  22.029  0.00  0.00     0.264 C 
ATOM     12  O21 XLD d           4.159   8.078  21.492  0.00  0.00    -0.267 OA
ATOM     13  H10 XLD d           5.172   5.744  23.312  0.00  0.00     0.169 HD
BRANCH  11  14
ATOM     14  C22 XLD d           3.057   6.055  21.769  0.00  0.00     0.095 A 
ATOM     15  S23 XLD d           1.674   6.102  22.837  0.00  0.00    -0.094 SA
ATOM     16  C24 XLD d           0.932   4.848  21.935  0.00  0.00    -0.035 A 
ATOM     17  C25 XLD d           1.661   4.378  20.852  0.00  0.00    -0.011 A 
ATOM     18  H11 XLD d          -0.047   4.446  22.194  0.00  0.00     0.096 H 
ATOM     19  C26 XLD d           2.883   5.081  20.748  0.00  0.00     0.065 A 
ATOM     20 CL3  XLD d           3.997   4.722  19.507  0.00  0.00    -0.082 Cl
BRANCH  17  21
ATOM     21  C28 XLD d           1.233   3.285  19.922  0.00  0.00     0.024 C 
ATOM     22  H12 XLD d           1.658   3.535  18.938  0.00  0.00     0.071 H 
ATOM     23  H13 XLD d           0.136   3.338  19.872  0.00  0.00     0.071 H 
BRANCH  21  24
ATOM     24  N29 XLD d           1.574   1.833  20.171  0.00  0.00    -0.346 N 
BRANCH  24  25
ATOM     25  C31 XLD d           1.859   0.975  18.987  0.00  0.00    -0.015 C 
ATOM     26  H14 XLD d           1.611   1.526  18.067  0.00  0.00     0.056 H 
ATOM     27  H15 XLD d           1.250   0.061  19.042  0.00  0.00     0.056 H 
ATOM     28  H16 XLD d           2.925   0.706  18.977  0.00  0.00     0.056 H 
ENDBRANCH  24  25
BRANCH  24  29
ATOM     29  C32 XLD d           2.487   1.652  21.239  0.00  0.00     0.239 A 
ATOM     30  N33 XLD d           2.113   1.435  22.521  0.00  0.00    -0.249 NA
ATOM     31  C34 XLD d           3.233   1.271  23.368  0.00  0.00     0.039 A 
ATOM     32  C35 XLD d           4.437   1.426  22.410  0.00  0.00     0.046 A 
ATOM     33  H17 XLD d           3.229   0.276  23.836  0.00  0.00     0.070 H 
ATOM     34  H18 XLD d           3.251   2.045  24.150  0.00  0.00     0.070 H 
ATOM     35  O36 XLD d           3.833   1.657  21.135  0.00  0.00    -0.319 OA
ATOM     36  H19 XLD d           5.046   0.511  22.395  0.00  0.00     0.077 H 
ATOM     37  H20 XLD d           5.065   2.280  22.705  0.00  0.00     0.077 H 
ENDBRANCH  24  29
ENDBRANCH  21  24
ENDBRANCH  17  21
ENDBRANCH  11  14
ENDBRANCH   2  10
BRANCH   1  38
ATOM     38  C9  XLD d           7.605   6.686  21.168  0.00  0.00     0.259 C 
ATOM     39  N7  XLD d           7.561   5.314  21.251  0.00  0.00    -0.307 N 
ATOM     40  C1  XLD d           7.738   4.392  20.259  0.00  0.00     0.130 A 
ATOM     41  H4  XLD d           7.376   4.941  22.160  0.00  0.00     0.170 HD
ATOM     42  N2  XLD d           8.506   4.654  19.154  0.00  0.00    -0.242 NA
ATOM     43  C6  XLD d           7.151   3.109  20.393  0.00  0.00    -0.037 A 
ATOM     44  C3  XLD d           8.710   3.775  18.170  0.00  0.00     0.025 A 
ATOM     45  C4  XLD d           8.126   2.485  18.232  0.00  0.00     0.051 A 
ATOM     46  H1  XLD d           9.325   4.049  17.321  0.00  0.00     0.117 H 
ATOM     47 CL1  XLD d           8.284   1.358  16.887  0.00  0.00    -0.083 Cl
ATOM     48  C5  XLD d           7.350   2.158  19.375  0.00  0.00    -0.057 A 
ATOM     49  H2  XLD d           6.910   1.171  19.465  0.00  0.00     0.086 H 
ATOM     50  H3  XLD d           6.558   2.864  21.267  0.00  0.00     0.089 H 
ATOM     51  O10 XLD d           7.820   7.261  20.066  0.00  0.00    -0.267 OA
ENDBRANCH   1  38
BRANCH   3  52
ATOM     52  O17 XLD d           5.074   8.264  25.145  0.00  0.00    -0.354 OA
BRANCH  52  53
ATOM     53  C18 XLD d           3.923   9.102  25.093  0.00  0.00     0.010 C 
ATOM     54  H7  XLD d           3.017   8.479  25.071  0.00  0.00     0.066 H 
ATOM     55  H8  XLD d           3.963   9.724  24.186  0.00  0.00     0.066 H 
ATOM     56  H9  XLD d           3.901   9.749  25.981  0.00  0.00     0.066 H 
ENDBRANCH  52  53
ENDBRANCH   3  52
TORSDOF 9
ENDMDL
MODEL 2
REMARK VINA RESULT:      -6.8      3.837      7.482
REMARK  9 active torsions:
REMARK  status: ('A' for Active; 'I' for Inactive)
REMARK       I    between atoms: N7_8  and  C9_9 
REMARK    1  A    between atoms: C9_9  and  C11_11 
REMARK    2  A    between atoms: C12_12  and  N19_20 
REMARK    3  A    between atoms: C13_13  and  O17_18 
REMARK    4  A    between atoms: O17_18  and  C18_19 
REMARK       I    between atoms: N19_20  and  C20_21 
REMARK    5  A    between atoms: C20_21  and  C22_23 
REMARK    6  A    between atoms: C25_26  and  C28_29 
REMARK    7  A    between atoms: C28_29  and  N29_30 
REMARK    8  A    between atoms: N29_30  and  C31_31 
REMARK    9  A    between atoms: N29_30  and  C32_32 
ROOT
ATOM      1  C11 XLD d           4.410   5.275  18.337  0.00  0.00     0.063 A 
ATOM      2  C12 XLD d           4.133   6.638  18.768  0.00  0.00     0.084 A 
ATOM      3  C13 XLD d           2.887   7.248  18.426  0.00  0.00     0.097 A 
ATOM      4  C14 XLD d           1.936   6.519  17.662  0.00  0.00    -0.028 A 
ATOM      5  C15 XLD d           2.217   5.199  17.241  0.00  0.00     0.037 A 
ATOM      6 CL2  XLD d           1.112   4.308  16.333  0.00  0.00    -0.084 Cl
ATOM      7  C16 XLD d           3.426   4.602  17.583  0.00  0.00    -0.044 A 
ATOM      8  H5  XLD d           0.989   6.977  17.401  0.00  0.00     0.090 H 
ATOM      9  H6  XLD d           3.619   3.586  17.258  0.00  0.00     0.087 H 
ENDROOT
BRANCH   2  10
ATOM     10  N19 XLD d           5.083   7.324  19.486  0.00  0.00    -0.319 N 
ATOM     11  C20 XLD d           6.108   8.076  18.983  0.00  0.00     0.264 C 
ATOM     12  O21 XLD d           6.216   8.144  17.728  0.00  0.00    -0.267 OA
ATOM     13  H10 XLD d           5.017   7.267  20.482  0.00  0.00     0.169 HD
BRANCH  11  14
ATOM     14  C22 XLD d           7.101   8.727  19.792  0.00  0.00     0.095 A 
ATOM     15  S23 XLD d           7.676  10.305  19.310  0.00  0.00    -0.094 SA
ATOM     16  C24 XLD d           8.750  10.326  20.646  0.00  0.00    -0.035 A 
ATOM     17  C25 XLD d           8.711   9.205  21.461  0.00  0.00    -0.011 A 
ATOM     18  H11 XLD d           9.418  11.163  20.841  0.00  0.00     0.096 H 
ATOM     19  C26 XLD d           7.753   8.285  20.977  0.00  0.00     0.065 A 
ATOM     20 CL3  XLD d           7.478   6.803  21.776  0.00  0.00    -0.082 Cl
BRANCH  17  21
ATOM     21  C28 XLD d           9.556   8.982  22.677  0.00  0.00     0.024 C 
ATOM     22  H12 XLD d          10.469   9.578  22.529  0.00  0.00     0.071 H 
ATOM     23  H13 XLD d           9.813   7.913  22.679  0.00  0.00     0.071 H 
BRANCH  21  24
ATOM     24  N29 XLD d           9.066   9.300  24.071  0.00  0.00    -0.346 N 
BRANCH  24  25
ATOM     25  C31 XLD d           7.603   9.202  24.331  0.00  0.00    -0.015 C 
ATOM     26  H14 XLD d           7.260   8.180  24.115  0.00  0.00     0.056 H 
ATOM     27  H15 XLD d           7.067   9.914  23.684  0.00  0.00     0.056 H 
ATOM     28  H16 XLD d           7.401   9.441  25.386  0.00  0.00     0.056 H 
ENDBRANCH  24  25
BRANCH  24  29
ATOM     29  C32 XLD d           9.865   8.719  25.087  0.00  0.00     0.239 A 
ATOM     30  N33 XLD d           9.467   7.679  25.856  0.00  0.00    -0.249 NA
ATOM     31  C34 XLD d          10.473   7.296  26.772  0.00  0.00     0.039 A 
ATOM     32  C35 XLD d          11.626   8.283  26.477  0.00  0.00     0.046 A 
ATOM     33  H17 XLD d          10.790   6.258  26.595  0.00  0.00     0.070 H 
ATOM     34  H18 XLD d          10.122   7.401  27.809  0.00  0.00     0.070 H 
ATOM     35  O36 XLD d          11.117   9.100  25.421  0.00  0.00    -0.319 OA
ATOM     36  H19 XLD d          12.530   7.745  26.154  0.00  0.00     0.077 H 
ATOM     37  H20 XLD d          11.859   8.890  27.364  0.00  0.00     0.077 H 
ENDBRANCH  24  29
ENDBRANCH  21  24
ENDBRANCH  17  21
ENDBRANCH  11  14
ENDBRANCH   2  10
BRANCH   1  38
ATOM     38  C9  XLD d           5.625   4.546  18.616  0.00  0.00     0.259 C 
ATOM     39  N7  XLD d           6.191   3.780  17.623  0.00  0.00    -0.307 N 
ATOM     40  C1  XLD d           7.302   2.989  17.683  0.00  0.00     0.130 A 
ATOM     41  H4  XLD d           5.725   3.806  16.738  0.00  0.00     0.170 HD
ATOM     42  N2  XLD d           7.719   2.411  18.855  0.00  0.00    -0.242 NA
ATOM     43  C6  XLD d           8.024   2.717  16.494  0.00  0.00    -0.037 A 
ATOM     44  C3  XLD d           8.793   1.624  18.949  0.00  0.00     0.025 A 
ATOM     45  C4  XLD d           9.573   1.338  17.802  0.00  0.00     0.051 A 
ATOM     46  H1  XLD d           9.070   1.202  19.909  0.00  0.00     0.117 H 
ATOM     47 CL1  XLD d          11.060   0.403  17.931  0.00  0.00    -0.083 Cl
ATOM     48  C5  XLD d           9.159   1.888  16.559  0.00  0.00    -0.057 A 
ATOM     49  H2  XLD d           9.720   1.668  15.658  0.00  0.00     0.086 H 
ATOM     50  H3  XLD d           7.706   3.141  15.549  0.00  0.00     0.089 H 
ATOM     51  O10 XLD d           6.139   4.594  19.767  0.00  0.00    -0.267 OA
ENDBRANCH   1  38
BRANCH   3  52
ATOM     52  O17 XLD d           2.653   8.524  18.846  0.00  0.00    -0.354 OA
BRANCH  52  53
ATOM     53  C18 XLD d           2.362   9.691  18.084  0.00  0.00     0.010 C 
ATOM     54  H7  XLD d           3.282  10.054  17.602  0.00  0.00     0.066 H 
ATOM     55  H8  XLD d           1.962  10.472  18.747  0.00  0.00     0.066 H 
ATOM     56  H9  XLD d           1.616   9.447  17.312  0.00  0.00     0.066 H 
ENDBRANCH  52  53
ENDBRANCH   3  52
TORSDOF 9
ENDMDL
MODEL 3
REMARK VINA RESULT:      -6.4      1.920      2.653
REMARK  9 active torsions:
REMARK  status: ('A' for Active; 'I' for Inactive)
REMARK       I    between atoms: N7_8  and  C9_9 
REMARK    1  A    between atoms: C9_9  and  C11_11 
REMARK    2  A    between atoms: C12_12  and  N19_20 
REMARK    3  A    between atoms: C13_13  and  O17_18 
REMARK    4  A    between atoms: O17_18  and  C18_19 
REMARK       I    between atoms: N19_20  and  C20_21 
REMARK    5  A    between atoms: C20_21  and  C22_23 
REMARK    6  A    between atoms: C25_26  and  C28_29 
REMARK    7  A    between atoms: C28_29  and  N29_30 
REMARK    8  A    between atoms: N29_30  and  C31_31 
REMARK    9  A    between atoms: N29_30  and  C32_32 
ROOT
ATOM      1  C11 XLD d           6.968   7.297  22.250  0.00  0.00     0.063 A 
ATOM      2  C12 XLD d           5.630   7.450  22.801  0.00  0.00     0.084 A 
ATOM      3  C13 XLD d           5.432   8.251  23.968  0.00  0.00     0.097 A 
ATOM      4  C14 XLD d           6.548   8.883  24.580  0.00  0.00    -0.028 A 
ATOM      5  C15 XLD d           7.846   8.723  24.043  0.00  0.00     0.037 A 
ATOM      6 CL2  XLD d           9.189   9.457  24.746  0.00  0.00    -0.084 Cl
ATOM      7  C16 XLD d           8.035   7.950  22.902  0.00  0.00    -0.044 A 
ATOM      8  H5  XLD d           6.403   9.493  25.464  0.00  0.00     0.090 H 
ATOM      9  H6  XLD d           9.037   7.847  22.500  0.00  0.00     0.087 H 
ENDROOT
BRANCH   2  10
ATOM     10  N19 XLD d           4.575   6.806  22.199  0.00  0.00    -0.319 N 
ATOM     11  C20 XLD d           4.158   5.524  22.424  0.00  0.00     0.264 C 
ATOM     12  O21 XLD d           4.810   4.841  23.260  0.00  0.00    -0.267 OA
ATOM     13  H10 XLD d           4.058   7.332  21.523  0.00  0.00     0.169 HD
BRANCH  11  14
ATOM     14  C22 XLD d           3.077   4.894  21.719  0.00  0.00     0.095 A 
ATOM     15  S23 XLD d           1.594   4.556  22.581  0.00  0.00    -0.094 SA
ATOM     16  C24 XLD d           0.933   3.841  21.170  0.00  0.00    -0.035 A 
ATOM     17  C25 XLD d           1.763   3.836  20.058  0.00  0.00    -0.011 A 
ATOM     18  H11 XLD d          -0.070   3.418  21.148  0.00  0.00     0.096 H 
ATOM     19  C26 XLD d           2.996   4.452  20.369  0.00  0.00     0.065 A 
ATOM     20 CL3  XLD d           4.225   4.595  19.195  0.00  0.00    -0.082 Cl
BRANCH  17  21
ATOM     21  C28 XLD d           1.419   3.261  18.718  0.00  0.00     0.024 C 
ATOM     22  H12 XLD d           1.634   4.051  17.982  0.00  0.00     0.071 H 
ATOM     23  H13 XLD d           0.338   3.063  18.738  0.00  0.00     0.071 H 
BRANCH  21  24
ATOM     24  N29 XLD d           2.069   2.004  18.188  0.00  0.00    -0.346 N 
BRANCH  24  25
ATOM     25  C31 XLD d           1.293   0.735  18.270  0.00  0.00    -0.015 C 
ATOM     26  H14 XLD d           0.333   0.924  18.774  0.00  0.00     0.056 H 
ATOM     27  H15 XLD d           1.867  -0.010  18.841  0.00  0.00     0.056 H 
ATOM     28  H16 XLD d           1.105   0.354  17.255  0.00  0.00     0.056 H 
ENDBRANCH  24  25
BRANCH  24  29
ATOM     29  C32 XLD d           2.716   2.196  16.942  0.00  0.00     0.239 A 
ATOM     30  N33 XLD d           3.475   1.254  16.334  0.00  0.00    -0.249 NA
ATOM     31  C34 XLD d           3.979   1.714  15.096  0.00  0.00     0.039 A 
ATOM     32  C35 XLD d           3.420   3.151  14.988  0.00  0.00     0.046 A 
ATOM     33  H17 XLD d           3.616   1.088  14.268  0.00  0.00     0.070 H 
ATOM     34  H18 XLD d           5.080   1.720  15.097  0.00  0.00     0.070 H 
ATOM     35  O36 XLD d           2.663   3.316  16.189  0.00  0.00    -0.319 OA
ATOM     36  H19 XLD d           2.775   3.255  14.103  0.00  0.00     0.077 H 
ATOM     37  H20 XLD d           4.236   3.886  14.936  0.00  0.00     0.077 H 
ENDBRANCH  24  29
ENDBRANCH  21  24
ENDBRANCH  17  21
ENDBRANCH  11  14
ENDBRANCH   2  10
BRANCH   1  38
ATOM     38  C9  XLD d           7.303   6.518  21.080  0.00  0.00     0.259 C 
ATOM     39  N7  XLD d           7.411   5.152  21.192  0.00  0.00    -0.307 N 
ATOM     40  C1  XLD d           7.752   4.241  20.234  0.00  0.00     0.130 A 
ATOM     41  H4  XLD d           7.214   4.775  22.097  0.00  0.00     0.170 HD
ATOM     42  N2  XLD d           8.551   4.572  19.169  0.00  0.00    -0.242 NA
ATOM     43  C6  XLD d           7.308   2.901  20.363  0.00  0.00    -0.037 A 
ATOM     44  C3  XLD d           8.913   3.706  18.220  0.00  0.00     0.025 A 
ATOM     45  C4  XLD d           8.478   2.359  18.277  0.00  0.00     0.051 A 
ATOM     46  H1  XLD d           9.544   4.035  17.402  0.00  0.00     0.117 H 
ATOM     47 CL1  XLD d           8.845   1.236  16.970  0.00  0.00    -0.083 Cl
ATOM     48  C5  XLD d           7.676   1.962  19.380  0.00  0.00    -0.057 A 
ATOM     49  H2  XLD d           7.347   0.933  19.466  0.00  0.00     0.086 H 
ATOM     50  H3  XLD d           6.695   2.603  21.205  0.00  0.00     0.089 H 
ATOM     51  O10 XLD d           7.518   7.096  19.980  0.00  0.00    -0.267 OA
ENDBRANCH   1  38
BRANCH   3  52
ATOM     52  O17 XLD d           4.167   8.379  24.459  0.00  0.00    -0.354 OA
BRANCH  52  53
ATOM     53  C18 XLD d           3.584   9.454  25.189  0.00  0.00     0.010 C 
ATOM     54  H7  XLD d           3.014  10.098  24.502  0.00  0.00     0.066 H 
ATOM     55  H8  XLD d           4.377  10.043  25.671  0.00  0.00     0.066 H 
ATOM     56  H9  XLD d           2.908   9.051  25.958  0.00  0.00     0.066 H 
ENDBRANCH  52  53
ENDBRANCH   3  52
TORSDOF 9
ENDMDL
MODEL 4
REMARK VINA RESULT:      -6.2      3.513      8.750
REMARK  9 active torsions:
REMARK  status: ('A' for Active; 'I' for Inactive)
REMARK       I    between atoms: N7_8  and  C9_9 
REMARK    1  A    between atoms: C9_9  and  C11_11 
REMARK    2  A    between atoms: C12_12  and  N19_20 
REMARK    3  A    between atoms: C13_13  and  O17_18 
REMARK    4  A    between atoms: O17_18  and  C18_19 
REMARK       I    between atoms: N19_20  and  C20_21 
REMARK    5  A    between atoms: C20_21  and  C22_23 
REMARK    6  A    between atoms: C25_26  and  C28_29 
REMARK    7  A    between atoms: C28_29  and  N29_30 
REMARK    8  A    between atoms: N29_30  and  C31_31 
REMARK    9  A    between atoms: N29_30  and  C32_32 
ROOT
ATOM      1  C11 XLD d           4.314   5.268  19.282  0.00  0.00     0.063 A 
ATOM      2  C12 XLD d           5.733   5.325  18.963  0.00  0.00     0.084 A 
ATOM      3  C13 XLD d           6.310   4.320  18.126  0.00  0.00     0.097 A 
ATOM      4  C14 XLD d           5.491   3.273  17.622  0.00  0.00    -0.028 A 
ATOM      5  C15 XLD d           4.115   3.223  17.944  0.00  0.00     0.037 A 
ATOM      6 CL2  XLD d           3.118   1.994  17.365  0.00  0.00    -0.084 Cl
ATOM      7  C16 XLD d           3.553   4.206  18.751  0.00  0.00    -0.044 A 
ATOM      8  H5  XLD d           5.923   2.510  16.986  0.00  0.00     0.090 H 
ATOM      9  H6  XLD d           2.495   4.154  18.979  0.00  0.00     0.087 H 
ENDROOT
BRANCH   2  10
ATOM     10  N19 XLD d           6.502   6.337  19.485  0.00  0.00    -0.319 N 
ATOM     11  C20 XLD d           7.143   6.342  20.692  0.00  0.00     0.264 C 
ATOM     12  O21 XLD d           7.011   5.323  21.423  0.00  0.00    -0.267 OA
ATOM     13  H10 XLD d           6.603   7.157  18.922  0.00  0.00     0.169 HD
BRANCH  11  14
ATOM     14  C22 XLD d           7.891   7.458  21.203  0.00  0.00     0.095 A 
ATOM     15  S23 XLD d           8.798   8.446  20.082  0.00  0.00    -0.094 SA
ATOM     16  C24 XLD d           9.361   9.409  21.383  0.00  0.00    -0.035 A 
ATOM     17  C25 XLD d           8.906   9.041  22.640  0.00  0.00    -0.011 A 
ATOM     18  H11 XLD d          10.032  10.254  21.232  0.00  0.00     0.096 H 
ATOM     19  C26 XLD d           8.049   7.922  22.538  0.00  0.00     0.065 A 
ATOM     20 CL3  XLD d           7.330   7.239  23.926  0.00  0.00    -0.082 Cl
BRANCH  17  21
ATOM     21  C28 XLD d           9.264   9.717  23.928  0.00  0.00     0.024 C 
ATOM     22  H12 XLD d           8.459   9.471  24.637  0.00  0.00     0.071 H 
ATOM     23  H13 XLD d           9.253  10.796  23.721  0.00  0.00     0.071 H 
BRANCH  21  24
ATOM     24  N29 XLD d          10.561   9.440  24.652  0.00  0.00    -0.346 N 
BRANCH  24  25
ATOM     25  C31 XLD d          11.425  10.604  24.996  0.00  0.00    -0.015 C 
ATOM     26  H14 XLD d          12.382  10.521  24.460  0.00  0.00     0.056 H 
ATOM     27  H15 XLD d          11.611  10.614  26.081  0.00  0.00     0.056 H 
ATOM     28  H16 XLD d          10.920  11.536  24.702  0.00  0.00     0.056 H 
ENDBRANCH  24  25
BRANCH  24  29
ATOM     29  C32 XLD d          10.420   8.504  25.707  0.00  0.00     0.239 A 
ATOM     30  N33 XLD d           9.242   8.219  26.308  0.00  0.00    -0.249 NA
ATOM     31  C34 XLD d           9.396   7.235  27.312  0.00  0.00     0.039 A 
ATOM     32  C35 XLD d          10.909   6.916  27.277  0.00  0.00     0.046 A 
ATOM     33  H17 XLD d           8.800   6.341  27.080  0.00  0.00     0.070 H 
ATOM     34  H18 XLD d           9.100   7.628  28.296  0.00  0.00     0.070 H 
ATOM     35  O36 XLD d          11.415   7.767  26.246  0.00  0.00    -0.319 OA
ATOM     36  H19 XLD d          11.080   5.858  27.030  0.00  0.00     0.077 H 
ATOM     37  H20 XLD d          11.380   7.149  28.243  0.00  0.00     0.077 H 
ENDBRANCH  24  29
ENDBRANCH  21  24
ENDBRANCH  17  21
ENDBRANCH  11  14
ENDBRANCH   2  10
BRANCH   1  38
ATOM     38  C9  XLD d           3.610   6.218  20.114  0.00  0.00     0.259 C 
ATOM     39  N7  XLD d           3.759   6.154  21.479  0.00  0.00    -0.307 N 
ATOM     40  C1  XLD d           3.162   6.919  22.440  0.00  0.00     0.130 A 
ATOM     41  H4  XLD d           4.389   5.453  21.814  0.00  0.00     0.170 HD
ATOM     42  N2  XLD d           1.936   7.501  22.246  0.00  0.00    -0.242 NA
ATOM     43  C6  XLD d           3.804   7.081  23.693  0.00  0.00    -0.037 A 
ATOM     44  C3  XLD d           1.317   8.245  23.166  0.00  0.00     0.025 A 
ATOM     45  C4  XLD d           1.921   8.469  24.428  0.00  0.00     0.051 A 
ATOM     46  H1  XLD d           0.349   8.680  22.945  0.00  0.00     0.117 H 
ATOM     47 CL1  XLD d           1.176   9.547  25.605  0.00  0.00    -0.083 Cl
ATOM     48  C5  XLD d           3.176   7.858  24.686  0.00  0.00    -0.057 A 
ATOM     49  H2  XLD d           3.653   7.989  25.651  0.00  0.00     0.086 H 
ATOM     50  H3  XLD d           4.763   6.614  23.885  0.00  0.00     0.089 H 
ATOM     51  O10 XLD d           2.849   7.073  19.585  0.00  0.00    -0.267 OA
ENDBRANCH   1  38
BRANCH   3  52
ATOM     52  O17 XLD d           7.640   4.400  17.840  0.00  0.00    -0.354 OA
BRANCH  52  53
ATOM     53  C18 XLD d           8.747   3.791  18.498  0.00  0.00     0.010 C 
ATOM     54  H7  XLD d           9.584   4.504  18.544  0.00  0.00     0.066 H 
ATOM     55  H8  XLD d           9.058   2.896  17.939  0.00  0.00     0.066 H 
ATOM     56  H9  XLD d           8.454   3.504  19.518  0.00  0.00     0.066 H 
ENDBRANCH  52  53
ENDBRANCH   3  52
TORSDOF 9
ENDMDL
MODEL 5
REMARK VINA RESULT:      -5.4      1.556      2.183
REMARK  9 active torsions:
REMARK  status: ('A' for Active; 'I' for Inactive)
REMARK       I    between atoms: N7_8  and  C9_9 
REMARK    1  A    between atoms: C9_9  and  C11_11 
REMARK    2  A    between atoms: C12_12  and  N19_20 
REMARK    3  A    between atoms: C13_13  and  O17_18 
REMARK    4  A    between atoms: O17_18  and  C18_19 
REMARK       I    between atoms: N19_20  and  C20_21 
REMARK    5  A    between atoms: C20_21  and  C22_23 
REMARK    6  A    between atoms: C25_26  and  C28_29 
REMARK    7  A    between atoms: C28_29  and  N29_30 
REMARK    8  A    between atoms: N29_30  and  C31_31 
REMARK    9  A    between atoms: N29_30  and  C32_32 
ROOT
ATOM      1  C11 XLD d           7.345   7.072  21.265  0.00  0.00     0.063 A 
ATOM      2  C12 XLD d           6.616   7.203  22.518  0.00  0.00     0.084 A 
ATOM      3  C13 XLD d           7.020   8.186  23.472  0.00  0.00     0.097 A 
ATOM      4  C14 XLD d           8.135   9.021  23.188  0.00  0.00    -0.028 A 
ATOM      5  C15 XLD d           8.842   8.882  21.972  0.00  0.00     0.037 A 
ATOM      6 CL2  XLD d          10.168   9.854  21.606  0.00  0.00    -0.084 Cl
ATOM      7  C16 XLD d           8.441   7.930  21.040  0.00  0.00    -0.044 A 
ATOM      8  H5  XLD d           8.445   9.769  23.909  0.00  0.00     0.090 H 
ATOM      9  H6  XLD d           8.991   7.846  20.109  0.00  0.00     0.087 H 
ENDROOT
BRANCH   2  10
ATOM     10  N19 XLD d           5.557   6.364  22.772  0.00  0.00    -0.319 N 
ATOM     11  C20 XLD d           4.235   6.615  22.534  0.00  0.00     0.264 C 
ATOM     12  O21 XLD d           3.937   7.738  22.043  0.00  0.00    -0.267 OA
ATOM     13  H10 XLD d           5.778   5.476  23.175  0.00  0.00     0.169 HD
BRANCH  11  14
ATOM     14  C22 XLD d           3.169   5.713  22.874  0.00  0.00     0.095 A 
ATOM     15  S23 XLD d           1.755   6.348  23.681  0.00  0.00    -0.094 SA
ATOM     16  C24 XLD d           1.082   4.772  23.748  0.00  0.00    -0.035 A 
ATOM     17  C25 XLD d           1.859   3.767  23.191  0.00  0.00    -0.011 A 
ATOM     18  H11 XLD d           0.111   4.574  24.199  0.00  0.00     0.096 H 
ATOM     19  C26 XLD d           3.058   4.309  22.676  0.00  0.00     0.065 A 
ATOM     20 CL3  XLD d           4.220   3.310  21.926  0.00  0.00    -0.082 Cl
BRANCH  17  21
ATOM     21  C28 XLD d           1.496   2.315  23.137  0.00  0.00     0.024 C 
ATOM     22  H12 XLD d           0.571   2.252  22.545  0.00  0.00     0.071 H 
ATOM     23  H13 XLD d           1.289   2.013  24.174  0.00  0.00     0.071 H 
BRANCH  21  24
ATOM     24  N29 XLD d           2.430   1.269  22.573  0.00  0.00    -0.346 N 
BRANCH  24  25
ATOM     25  C31 XLD d           2.770   0.104  23.436  0.00  0.00    -0.015 C 
ATOM     26  H14 XLD d           3.182   0.463  24.390  0.00  0.00     0.056 H 
ATOM     27  H15 XLD d           3.516  -0.524  22.927  0.00  0.00     0.056 H 
ATOM     28  H16 XLD d           1.862  -0.487  23.628  0.00  0.00     0.056 H 
ENDBRANCH  24  25
BRANCH  24  29
ATOM     29  C32 XLD d           2.125   0.917  21.234  0.00  0.00     0.239 A 
ATOM     30  N33 XLD d           0.969   0.321  20.857  0.00  0.00    -0.249 NA
ATOM     31  C34 XLD d           0.929   0.104  19.461  0.00  0.00     0.039 A 
ATOM     32  C35 XLD d           2.284   0.662  18.968  0.00  0.00     0.046 A 
ATOM     33  H17 XLD d           0.090   0.649  19.003  0.00  0.00     0.070 H 
ATOM     34  H18 XLD d           0.839  -0.968  19.232  0.00  0.00     0.070 H 
ATOM     35  O36 XLD d           2.917   1.128  20.162  0.00  0.00    -0.319 OA
ATOM     36  H19 XLD d           2.133   1.488  18.258  0.00  0.00     0.077 H 
ATOM     37  H20 XLD d           2.883  -0.127  18.491  0.00  0.00     0.077 H 
ENDBRANCH  24  29
ENDBRANCH  21  24
ENDBRANCH  17  21
ENDBRANCH  11  14
ENDBRANCH   2  10
BRANCH   1  38
ATOM     38  C9  XLD d           7.040   6.122  20.220  0.00  0.00     0.259 C 
ATOM     39  N7  XLD d           8.036   5.298  19.751  0.00  0.00    -0.307 N 
ATOM     40  C1  XLD d           7.975   4.367  18.753  0.00  0.00     0.130 A 
ATOM     41  H4  XLD d           8.924   5.393  20.201  0.00  0.00     0.170 HD
ATOM     42  N2  XLD d           7.088   4.476  17.713  0.00  0.00    -0.242 NA
ATOM     43  C6  XLD d           8.884   3.281  18.764  0.00  0.00    -0.037 A 
ATOM     44  C3  XLD d           7.007   3.592  16.716  0.00  0.00     0.025 A 
ATOM     45  C4  XLD d           7.869   2.468  16.685  0.00  0.00     0.051 A 
ATOM     46  H1  XLD d           6.279   3.736  15.926  0.00  0.00     0.117 H 
ATOM     47 CL1  XLD d           7.694   1.230  15.444  0.00  0.00    -0.083 Cl
ATOM     48  C5  XLD d           8.828   2.333  17.724  0.00  0.00    -0.057 A 
ATOM     49  H2  XLD d           9.519   1.498  17.717  0.00  0.00     0.086 H 
ATOM     50  H3  XLD d           9.612   3.180  19.560  0.00  0.00     0.089 H 
ATOM     51  O10 XLD d           5.878   6.076  19.731  0.00  0.00    -0.267 OA
ENDBRANCH   1  38
BRANCH   3  52
ATOM     52  O17 XLD d           6.317   8.288  24.636  0.00  0.00    -0.354 OA
BRANCH  52  53
ATOM     53  C18 XLD d           5.207   9.122  24.953  0.00  0.00     0.010 C 
ATOM     54  H7  XLD d           4.412   8.516  25.412  0.00  0.00     0.066 H 
ATOM     55  H8  XLD d           4.826   9.591  24.033  0.00  0.00     0.066 H 
ATOM     56  H9  XLD d           5.525   9.904  25.658  0.00  0.00     0.066 H 
ENDBRANCH  52  53
ENDBRANCH   3  52
TORSDOF 9
ENDMDL
MODEL 6
REMARK VINA RESULT:      -5.0      3.987      7.688
REMARK  9 active torsions:
REMARK  status: ('A' for Active; 'I' for Inactive)
REMARK       I    between atoms: N7_8  and  C9_9 
REMARK    1  A    between atoms: C9_9  and  C11_11 
REMARK    2  A    between atoms: C12_12  and  N19_20 
REMARK    3  A    between atoms: C13_13  and  O17_18 
REMARK    4  A    between atoms: O17_18  and  C18_19 
REMARK       I    between atoms: N19_20  and  C20_21 
REMARK    5  A    between atoms: C20_21  and  C22_23 
REMARK    6  A    between atoms: C25_26  and  C28_29 
REMARK    7  A    between atoms: C28_29  and  N29_30 
REMARK    8  A    between atoms: N29_30  and  C31_31 
REMARK    9  A    between atoms: N29_30  and  C32_32 
ROOT
ATOM      1  C11 XLD d           4.192   3.409  21.315  0.00  0.00     0.063 A 
ATOM      2  C12 XLD d           3.748   2.918  20.019  0.00  0.00     0.084 A 
ATOM      3  C13 XLD d           3.133   1.632  19.923  0.00  0.00     0.097 A 
ATOM      4  C14 XLD d           2.969   0.844  21.095  0.00  0.00    -0.028 A 
ATOM      5  C15 XLD d           3.411   1.326  22.348  0.00  0.00     0.037 A 
ATOM      6 CL2  XLD d           3.233   0.417  23.755  0.00  0.00    -0.084 Cl
ATOM      7  C16 XLD d           4.001   2.582  22.442  0.00  0.00    -0.044 A 
ATOM      8  H5  XLD d           2.502  -0.131  21.027  0.00  0.00     0.090 H 
ATOM      9  H6  XLD d           4.325   2.937  23.414  0.00  0.00     0.087 H 
ENDROOT
BRANCH   2  10
ATOM     10  N19 XLD d           3.942   3.694  18.901  0.00  0.00    -0.319 N 
ATOM     11  C20 XLD d           5.051   3.721  18.102  0.00  0.00     0.264 C 
ATOM     12  O21 XLD d           6.014   2.971  18.421  0.00  0.00    -0.267 OA
ATOM     13  H10 XLD d           3.192   4.304  18.646  0.00  0.00     0.169 HD
BRANCH  11  14
ATOM     14  C22 XLD d           5.210   4.598  16.975  0.00  0.00     0.095 A 
ATOM     15  S23 XLD d           6.054   4.008  15.563  0.00  0.00    -0.094 SA
ATOM     16  C24 XLD d           5.855   5.531  14.803  0.00  0.00    -0.035 A 
ATOM     17  C25 XLD d           5.178   6.486  15.547  0.00  0.00    -0.011 A 
ATOM     18  H11 XLD d           6.235   5.736  13.804  0.00  0.00     0.096 H 
ATOM     19  C26 XLD d           4.795   5.947  16.797  0.00  0.00     0.065 A 
ATOM     20 CL3  XLD d           3.942   6.889  17.934  0.00  0.00    -0.082 Cl
BRANCH  17  21
ATOM     21  C28 XLD d           4.889   7.888  15.109  0.00  0.00     0.024 C 
ATOM     22  H12 XLD d           3.902   8.142  15.523  0.00  0.00     0.071 H 
ATOM     23  H13 XLD d           4.829   7.859  14.011  0.00  0.00     0.071 H 
BRANCH  21  24
ATOM     24  N29 XLD d           5.799   9.045  15.450  0.00  0.00    -0.346 N 
BRANCH  24  25
ATOM     25  C31 XLD d           6.051  10.066  14.395  0.00  0.00    -0.015 C 
ATOM     26  H14 XLD d           6.864  10.732  14.716  0.00  0.00     0.056 H 
ATOM     27  H15 XLD d           5.136  10.655  14.229  0.00  0.00     0.056 H 
ATOM     28  H16 XLD d           6.337   9.563  13.459  0.00  0.00     0.056 H 
ENDBRANCH  24  25
BRANCH  24  29
ATOM     29  C32 XLD d           5.537   9.600  16.728  0.00  0.00     0.239 A 
ATOM     30  N33 XLD d           6.460   9.691  17.713  0.00  0.00    -0.249 NA
ATOM     31  C34 XLD d           5.925  10.304  18.870  0.00  0.00     0.039 A 
ATOM     32  C35 XLD d           4.461  10.604  18.477  0.00  0.00     0.046 A 
ATOM     33  H17 XLD d           6.466  11.232  19.108  0.00  0.00     0.070 H 
ATOM     34  H18 XLD d           5.969   9.622  19.732  0.00  0.00     0.070 H 
ATOM     35  O36 XLD d           4.359  10.119  17.136  0.00  0.00    -0.319 OA
ATOM     36  H19 XLD d           4.257  11.684  18.518  0.00  0.00     0.077 H 
ATOM     37  H20 XLD d           3.761  10.073  19.139  0.00  0.00     0.077 H 
ENDBRANCH  24  29
ENDBRANCH  21  24
ENDBRANCH  17  21
ENDBRANCH  11  14
ENDBRANCH   2  10
BRANCH   1  38
ATOM     38  C9  XLD d           4.826   4.686  21.548  0.00  0.00     0.259 C 
ATOM     39  N7  XLD d           5.992   4.988  20.883  0.00  0.00    -0.307 N 
ATOM     40  C1  XLD d           6.767   6.108  20.985  0.00  0.00     0.130 A 
ATOM     41  H4  XLD d           6.315   4.295  20.240  0.00  0.00     0.170 HD
ATOM     42  N2  XLD d           6.810   6.859  22.131  0.00  0.00    -0.242 NA
ATOM     43  C6  XLD d           7.589   6.482  19.893  0.00  0.00    -0.037 A 
ATOM     44  C3  XLD d           7.564   7.952  22.270  0.00  0.00     0.025 A 
ATOM     45  C4  XLD d           8.385   8.395  21.204  0.00  0.00     0.051 A 
ATOM     46  H1  XLD d           7.548   8.504  23.204  0.00  0.00     0.117 H 
ATOM     47 CL1  XLD d           9.290   9.901  21.327  0.00  0.00    -0.083 Cl
ATOM     48  C5  XLD d           8.398   7.628  20.009  0.00  0.00    -0.057 A 
ATOM     49  H2  XLD d           9.034   7.926  19.183  0.00  0.00     0.086 H 
ATOM     50  H3  XLD d           7.594   5.895  18.982  0.00  0.00     0.089 H 
ATOM     51  O10 XLD d           4.324   5.496  22.375  0.00  0.00    -0.267 OA
ENDBRANCH   1  38
BRANCH   3  52
ATOM     52  O17 XLD d           2.723   1.200  18.697  0.00  0.00    -0.354 OA
BRANCH  52  53
ATOM     53  C18 XLD d           1.526   0.522  18.329  0.00  0.00     0.010 C 
ATOM     54  H7  XLD d           1.347   0.651  17.251  0.00  0.00     0.066 H 
ATOM     55  H8  XLD d           0.680   0.939  18.894  0.00  0.00     0.066 H 
ATOM     56  H9  XLD d           1.626  -0.549  18.556  0.00  0.00     0.066 H 
ENDBRANCH  52  53
ENDBRANCH   3  52
TORSDOF 9
ENDMDL
MODEL 7
REMARK VINA RESULT:      -4.8      3.781      7.141
REMARK  9 active torsions:
REMARK  status: ('A' for Active; 'I' for Inactive)
REMARK       I    between atoms: N7_8  and  C9_9 
REMARK    1  A    between atoms: C9_9  and  C11_11 
REMARK    2  A    between atoms: C12_12  and  N19_20 
REMARK    3  A    between atoms: C13_13  and  O17_18 
REMARK    4  A    between atoms: O17_18  and  C18_19 
REMARK       I    between atoms: N19_20  and  C20_21 
REMARK    5  A    between atoms: C20_21  and  C22_23 
REMARK    6  A    between atoms: C25_26  and  C28_29 
REMARK    7  A    between atoms: C28_29  and  N29_30 
REMARK    8  A    between atoms: N29_30  and  C31_31 
REMARK    9  A    between atoms: N29_30  and  C32_32 
ROOT
ATOM      1  C11 XLD d           3.724   6.163  17.268  0.00  0.00     0.063 A 
ATOM      2  C12 XLD d           3.789   7.518  17.795  0.00  0.00     0.084 A 
ATOM      3  C13 XLD d           2.933   8.529  17.257  0.00  0.00     0.097 A 
ATOM      4  C14 XLD d           2.033   8.199  16.208  0.00  0.00    -0.028 A 
ATOM      5  C15 XLD d           1.983   6.882  15.697  0.00  0.00     0.037 A 
ATOM      6 CL2  XLD d           0.929   6.459  14.452  0.00  0.00    -0.084 Cl
ATOM      7  C16 XLD d           2.809   5.897  16.227  0.00  0.00    -0.044 A 
ATOM      8  H5  XLD d           1.382   8.961  15.798  0.00  0.00     0.090 H 
ATOM      9  H6  XLD d           2.749   4.891  15.827  0.00  0.00     0.087 H 
ENDROOT
BRANCH   2  10
ATOM     10  N19 XLD d           4.686   7.810  18.794  0.00  0.00    -0.319 N 
ATOM     11  C20 XLD d           5.996   8.169  18.643  0.00  0.00     0.264 C 
ATOM     12  O21 XLD d           6.450   8.226  17.467  0.00  0.00    -0.267 OA
ATOM     13  H10 XLD d           4.344   7.755  19.732  0.00  0.00     0.169 HD
BRANCH  11  14
ATOM     14  C22 XLD d           6.897   8.410  19.736  0.00  0.00     0.095 A 
ATOM     15  S23 XLD d           7.953   9.800  19.665  0.00  0.00    -0.094 SA
ATOM     16  C24 XLD d           8.642   9.359  21.171  0.00  0.00    -0.035 A 
ATOM     17  C25 XLD d           8.124   8.210  21.751  0.00  0.00    -0.011 A 
ATOM     18  H11 XLD d           9.433   9.941  21.641  0.00  0.00     0.096 H 
ATOM     19  C26 XLD d           7.110   7.667  20.931  0.00  0.00     0.065 A 
ATOM     20 CL3  XLD d           6.283   6.245  21.384  0.00  0.00    -0.082 Cl
BRANCH  17  21
ATOM     21  C28 XLD d           8.566   7.617  23.053  0.00  0.00     0.024 C 
ATOM     22  H12 XLD d           9.664   7.570  23.012  0.00  0.00     0.071 H 
ATOM     23  H13 XLD d           8.156   6.597  23.080  0.00  0.00     0.071 H 
BRANCH  21  24
ATOM     24  N29 XLD d           8.221   8.244  24.385  0.00  0.00    -0.346 N 
BRANCH  24  25
ATOM     25  C31 XLD d           9.069   9.372  24.860  0.00  0.00    -0.015 C 
ATOM     26  H14 XLD d           8.997   9.449  25.955  0.00  0.00     0.056 H 
ATOM     27  H15 XLD d           8.721  10.310  24.402  0.00  0.00     0.056 H 
ATOM     28  H16 XLD d          10.116   9.191  24.574  0.00  0.00     0.056 H 
ENDBRANCH  24  25
BRANCH  24  29
ATOM     29  C32 XLD d           6.831   8.466  24.552  0.00  0.00     0.239 A 
ATOM     30  N33 XLD d           5.890   7.508  24.379  0.00  0.00    -0.249 NA
ATOM     31  C34 XLD d           4.591   8.007  24.630  0.00  0.00     0.039 A 
ATOM     32  C35 XLD d           4.837   9.489  24.999  0.00  0.00     0.046 A 
ATOM     33  H17 XLD d           4.118   7.468  25.464  0.00  0.00     0.070 H 
ATOM     34  H18 XLD d           3.958   7.926  23.734  0.00  0.00     0.070 H 
ATOM     35  O36 XLD d           6.256   9.633  24.911  0.00  0.00    -0.319 OA
ATOM     36  H19 XLD d           4.486   9.702  26.020  0.00  0.00     0.077 H 
ATOM     37  H20 XLD d           4.330  10.158  24.289  0.00  0.00     0.077 H 
ENDBRANCH  24  29
ENDBRANCH  21  24
ENDBRANCH  17  21
ENDBRANCH  11  14
ENDBRANCH   2  10
BRANCH   1  38
ATOM     38  C9  XLD d           4.531   5.054  17.721  0.00  0.00     0.259 C 
ATOM     39  N7  XLD d           5.885   5.068  17.483  0.00  0.00    -0.307 N 
ATOM     40  C1  XLD d           6.815   4.115  17.786  0.00  0.00     0.130 A 
ATOM     41  H4  XLD d           6.235   5.885  17.025  0.00  0.00     0.170 HD
ATOM     42  N2  XLD d           6.488   2.787  17.886  0.00  0.00    -0.242 NA
ATOM     43  C6  XLD d           8.168   4.499  17.959  0.00  0.00    -0.037 A 
ATOM     44  C3  XLD d           7.372   1.828  18.170  0.00  0.00     0.025 A 
ATOM     45  C4  XLD d           8.735   2.152  18.383  0.00  0.00     0.051 A 
ATOM     46  H1  XLD d           7.045   0.796  18.239  0.00  0.00     0.117 H 
ATOM     47 CL1  XLD d           9.889   0.916  18.878  0.00  0.00    -0.083 Cl
ATOM     48  C5  XLD d           9.126   3.511  18.256  0.00  0.00    -0.057 A 
ATOM     49  H2  XLD d          10.165   3.789  18.388  0.00  0.00     0.086 H 
ATOM     50  H3  XLD d           8.462   5.538  17.863  0.00  0.00     0.089 H 
ATOM     51  O10 XLD d           3.986   4.077  18.304  0.00  0.00    -0.267 OA
ENDBRANCH   1  38
BRANCH   3  52
ATOM     52  O17 XLD d           3.013   9.788  17.774  0.00  0.00    -0.354 OA
BRANCH  52  53
ATOM     53  C18 XLD d           2.156  10.441  18.706  0.00  0.00     0.010 C 
ATOM     54  H7  XLD d           2.086   9.839  19.624  0.00  0.00     0.066 H 
ATOM     55  H8  XLD d           1.155  10.556  18.264  0.00  0.00     0.066 H 
ATOM     56  H9  XLD d           2.566  11.432  18.948  0.00  0.00     0.066 H 
ENDBRANCH  52  53
ENDBRANCH   3  52
TORSDOF 9
ENDMDL
MODEL 8
REMARK VINA RESULT:      -4.7      3.680      8.873
REMARK  9 active torsions:
REMARK  status: ('A' for Active; 'I' for Inactive)
REMARK       I    between atoms: N7_8  and  C9_9 
REMARK    1  A    between atoms: C9_9  and  C11_11 
REMARK    2  A    between atoms: C12_12  and  N19_20 
REMARK    3  A    between atoms: C13_13  and  O17_18 
REMARK    4  A    between atoms: O17_18  and  C18_19 
REMARK       I    between atoms: N19_20  and  C20_21 
REMARK    5  A    between atoms: C20_21  and  C22_23 
REMARK    6  A    between atoms: C25_26  and  C28_29 
REMARK    7  A    between atoms: C28_29  and  N29_30 
REMARK    8  A    between atoms: N29_30  and  C31_31 
REMARK    9  A    between atoms: N29_30  and  C32_32 
ROOT
ATOM      1  C11 XLD d           2.685   4.675  19.120  0.00  0.00     0.063 A 
ATOM      2  C12 XLD d           3.928   4.999  18.437  0.00  0.00     0.084 A 
ATOM      3  C13 XLD d           4.206   4.420  17.160  0.00  0.00     0.097 A 
ATOM      4  C14 XLD d           3.265   3.529  16.576  0.00  0.00    -0.028 A 
ATOM      5  C15 XLD d           2.063   3.214  17.250  0.00  0.00     0.037 A 
ATOM      6 CL2  XLD d           0.929   2.159  16.586  0.00  0.00    -0.084 Cl
ATOM      7  C16 XLD d           1.790   3.785  18.489  0.00  0.00    -0.044 A 
ATOM      8  H5  XLD d           3.470   3.088  15.607  0.00  0.00     0.090 H 
ATOM      9  H6  XLD d           0.859   3.537  18.986  0.00  0.00     0.087 H 
ENDROOT
BRANCH   2  10
ATOM     10  N19 XLD d           4.828   5.846  19.039  0.00  0.00    -0.319 N 
ATOM     11  C20 XLD d           5.765   5.516  19.977  0.00  0.00     0.264 C 
ATOM     12  O21 XLD d           5.812   4.313  20.353  0.00  0.00    -0.267 OA
ATOM     13  H10 XLD d           4.792   6.806  18.761  0.00  0.00     0.169 HD
BRANCH  11  14
ATOM     14  C22 XLD d           6.642   6.464  20.607  0.00  0.00     0.095 A 
ATOM     15  S23 XLD d           7.919   7.188  19.659  0.00  0.00    -0.094 SA
ATOM     16  C24 XLD d           8.453   8.058  21.036  0.00  0.00    -0.035 A 
ATOM     17  C25 XLD d           7.723   7.847  22.196  0.00  0.00    -0.011 A 
ATOM     18  H11 XLD d           9.308   8.732  21.003  0.00  0.00     0.096 H 
ATOM     19  C26 XLD d           6.671   6.937  21.949  0.00  0.00     0.065 A 
ATOM     20 CL3  XLD d           5.596   6.480  23.193  0.00  0.00    -0.082 Cl
BRANCH  17  21
ATOM     21  C28 XLD d           7.997   8.480  23.526  0.00  0.00     0.024 C 
ATOM     22  H12 XLD d           7.667   7.755  24.285  0.00  0.00     0.071 H 
ATOM     23  H13 XLD d           7.362   9.376  23.575  0.00  0.00     0.071 H 
BRANCH  21  24
ATOM     24  N29 XLD d           9.382   8.922  23.940  0.00  0.00    -0.346 N 
BRANCH  24  25
ATOM     25  C31 XLD d           9.721  10.366  23.799  0.00  0.00    -0.015 C 
ATOM     26  H14 XLD d           9.335  10.740  22.839  0.00  0.00     0.056 H 
ATOM     27  H15 XLD d          10.813  10.490  23.829  0.00  0.00     0.056 H 
ATOM     28  H16 XLD d           9.263  10.932  24.624  0.00  0.00     0.056 H 
ENDBRANCH  24  25
BRANCH  24  29
ATOM     29  C32 XLD d           9.801   8.356  25.170  0.00  0.00     0.239 A 
ATOM     30  N33 XLD d          10.994   8.621  25.753  0.00  0.00    -0.249 NA
ATOM     31  C34 XLD d          11.135   7.934  26.980  0.00  0.00     0.039 A 
ATOM     32  C35 XLD d           9.810   7.147  27.109  0.00  0.00     0.046 A 
ATOM     33  H17 XLD d          11.255   8.640  27.814  0.00  0.00     0.070 H 
ATOM     34  H18 XLD d          11.996   7.250  26.951  0.00  0.00     0.070 H 
ATOM     35  O36 XLD d           9.086   7.499  25.929  0.00  0.00    -0.319 OA
ATOM     36  H19 XLD d           9.259   7.453  28.012  0.00  0.00     0.077 H 
ATOM     37  H20 XLD d           9.999   6.065  27.144  0.00  0.00     0.077 H 
ENDBRANCH  24  29
ENDBRANCH  21  24
ENDBRANCH  17  21
ENDBRANCH  11  14
ENDBRANCH   2  10
BRANCH   1  38
ATOM     38  C9  XLD d           2.285   5.189  20.410  0.00  0.00     0.259 C 
ATOM     39  N7  XLD d           2.345   6.544  20.639  0.00  0.00    -0.307 N 
ATOM     40  C1  XLD d           2.056   7.229  21.784  0.00  0.00     0.130 A 
ATOM     41  H4  XLD d           2.640   7.102  19.864  0.00  0.00     0.170 HD
ATOM     42  N2  XLD d           2.179   6.656  23.024  0.00  0.00    -0.242 NA
ATOM     43  C6  XLD d           1.662   8.588  21.697  0.00  0.00    -0.037 A 
ATOM     44  C3  XLD d           1.916   7.298  24.165  0.00  0.00     0.025 A 
ATOM     45  C4  XLD d           1.489   8.649  24.143  0.00  0.00     0.051 A 
ATOM     46  H1  XLD d           2.029   6.783  25.112  0.00  0.00     0.117 H 
ATOM     47 CL1  XLD d           1.022   9.471  25.628  0.00  0.00    -0.083 Cl
ATOM     48  C5  XLD d           1.381   9.294  22.882  0.00  0.00    -0.057 A 
ATOM     49  H2  XLD d           1.081  10.335  22.832  0.00  0.00     0.086 H 
ATOM     50  H3  XLD d           1.579   9.076  20.734  0.00  0.00     0.089 H 
ATOM     51  O10 XLD d           1.914   4.395  21.316  0.00  0.00    -0.267 OA
ENDBRANCH   1  38
BRANCH   3  52
ATOM     52  O17 XLD d           5.376   4.745  16.542  0.00  0.00    -0.354 OA
BRANCH  52  53
ATOM     53  C18 XLD d           5.678   4.814  15.151  0.00  0.00     0.010 C 
ATOM     54  H7  XLD d           4.935   4.232  14.585  0.00  0.00     0.066 H 
ATOM     55  H8  XLD d           6.682   4.400  14.973  0.00  0.00     0.066 H 
ATOM     56  H9  XLD d           5.650   5.863  14.822  0.00  0.00     0.066 H 
ENDBRANCH  52  53
ENDBRANCH   3  52
TORSDOF 9
ENDMDL
MODEL 9
REMARK VINA RESULT:      -4.6      2.682      7.017
REMARK  9 active torsions:
REMARK  status: ('A' for Active; 'I' for Inactive)
REMARK       I    between atoms: N7_8  and  C9_9 
REMARK    1  A    between atoms: C9_9  and  C11_11 
REMARK    2  A    between atoms: C12_12  and  N19_20 
REMARK    3  A    between atoms: C13_13  and  O17_18 
REMARK    4  A    between atoms: O17_18  and  C18_19 
REMARK       I    between atoms: N19_20  and  C20_21 
REMARK    5  A    between atoms: C20_21  and  C22_23 
REMARK    6  A    between atoms: C25_26  and  C28_29 
REMARK    7  A    between atoms: C28_29  and  N29_30 
REMARK    8  A    between atoms: N29_30  and  C31_31 
REMARK    9  A    between atoms: N29_30  and  C32_32 
ROOT
ATOM      1  C11 XLD d           5.497   3.863  17.370  0.00  0.00     0.063 A 
ATOM      2  C12 XLD d           4.472   3.231  18.187  0.00  0.00     0.084 A 
ATOM      3  C13 XLD d           3.984   1.936  17.832  0.00  0.00     0.097 A 
ATOM      4  C14 XLD d           4.501   1.283  16.680  0.00  0.00    -0.028 A 
ATOM      5  C15 XLD d           5.491   1.909  15.888  0.00  0.00     0.037 A 
ATOM      6 CL2  XLD d           6.123   1.164  14.515  0.00  0.00    -0.084 Cl
ATOM      7  C16 XLD d           5.972   3.165  16.239  0.00  0.00    -0.044 A 
ATOM      8  H5  XLD d           4.135   0.300  16.408  0.00  0.00     0.090 H 
ATOM      9  H6  XLD d           6.737   3.624  15.624  0.00  0.00     0.087 H 
ENDROOT
BRANCH   2  10
ATOM     10  N19 XLD d           3.976   3.898  19.282  0.00  0.00    -0.319 N 
ATOM     11  C20 XLD d           2.926   4.772  19.305  0.00  0.00     0.264 C 
ATOM     12  O21 XLD d           2.351   5.016  18.209  0.00  0.00    -0.267 OA
ATOM     13  H10 XLD d           4.433   3.724  20.155  0.00  0.00     0.169 HD
BRANCH  11  14
ATOM     14  C22 XLD d           2.491   5.478  20.478  0.00  0.00     0.095 A 
ATOM     15  S23 XLD d           1.587   4.610  21.695  0.00  0.00    -0.094 SA
ATOM     16  C24 XLD d           1.444   6.046  22.619  0.00  0.00    -0.035 A 
ATOM     17  C25 XLD d           2.045   7.170  22.072  0.00  0.00    -0.011 A 
ATOM     18  H11 XLD d           0.916   6.075  23.571  0.00  0.00     0.096 H 
ATOM     19  C26 XLD d           2.659   6.843  20.842  0.00  0.00     0.065 A 
ATOM     20 CL3  XLD d           3.483   8.027  19.932  0.00  0.00    -0.082 Cl
BRANCH  17  21
ATOM     21  C28 XLD d           2.049   8.539  22.681  0.00  0.00     0.024 C 
ATOM     22  H12 XLD d           1.004   8.883  22.667  0.00  0.00     0.071 H 
ATOM     23  H13 XLD d           2.651   9.170  22.012  0.00  0.00     0.071 H 
BRANCH  21  24
ATOM     24  N29 XLD d           2.559   8.800  24.079  0.00  0.00    -0.346 N 
BRANCH  24  25
ATOM     25  C31 XLD d           1.807   8.200  25.216  0.00  0.00    -0.015 C 
ATOM     26  H14 XLD d           1.494   8.995  25.908  0.00  0.00     0.056 H 
ATOM     27  H15 XLD d           2.454   7.484  25.746  0.00  0.00     0.056 H 
ATOM     28  H16 XLD d           0.918   7.677  24.832  0.00  0.00     0.056 H 
ENDBRANCH  24  25
BRANCH  24  29
ATOM     29  C32 XLD d           3.966   8.664  24.192  0.00  0.00     0.239 A 
ATOM     30  N33 XLD d           4.744   9.484  24.936  0.00  0.00    -0.249 NA
ATOM     31  C34 XLD d           6.104   9.100  24.878  0.00  0.00     0.039 A 
ATOM     32  C35 XLD d           6.094   7.867  23.945  0.00  0.00     0.046 A 
ATOM     33  H17 XLD d           6.480   8.834  25.876  0.00  0.00     0.070 H 
ATOM     34  H18 XLD d           6.722   9.907  24.456  0.00  0.00     0.070 H 
ATOM     35  O36 XLD d           4.717   7.712  23.597  0.00  0.00    -0.319 OA
ATOM     36  H19 XLD d           6.468   6.976  24.470  0.00  0.00     0.077 H 
ATOM     37  H20 XLD d           6.705   8.049  23.049  0.00  0.00     0.077 H 
ENDBRANCH  24  29
ENDBRANCH  21  24
ENDBRANCH  17  21
ENDBRANCH  11  14
ENDBRANCH   2  10
BRANCH   1  38
ATOM     38  C9  XLD d           6.074   5.164  17.618  0.00  0.00     0.259 C 
ATOM     39  N7  XLD d           6.473   5.489  18.893  0.00  0.00    -0.307 N 
ATOM     40  C1  XLD d           6.999   6.664  19.350  0.00  0.00     0.130 A 
ATOM     41  H4  XLD d           6.364   4.769  19.578  0.00  0.00     0.170 HD
ATOM     42  N2  XLD d           6.720   7.866  18.751  0.00  0.00    -0.242 NA
ATOM     43  C6  XLD d           7.821   6.652  20.504  0.00  0.00    -0.037 A 
ATOM     44  C3  XLD d           7.207   9.034  19.176  0.00  0.00     0.025 A 
ATOM     45  C4  XLD d           8.058   9.085  20.307  0.00  0.00     0.051 A 
ATOM     46  H1  XLD d           6.949   9.948  18.652  0.00  0.00     0.117 H 
ATOM     47 CL1  XLD d           8.806  10.600  20.806  0.00  0.00    -0.083 Cl
ATOM     48  C5  XLD d           8.348   7.868  20.980  0.00  0.00    -0.057 A 
ATOM     49  H2  XLD d           8.976   7.876  21.864  0.00  0.00     0.086 H 
ATOM     50  H3  XLD d           8.041   5.721  21.013  0.00  0.00     0.089 H 
ATOM     51  O10 XLD d           6.179   5.996  16.675  0.00  0.00    -0.267 OA
ENDBRANCH   1  38
BRANCH   3  52
ATOM     52  O17 XLD d           3.027   1.366  18.619  0.00  0.00    -0.354 OA
BRANCH  52  53
ATOM     53  C18 XLD d           1.618   1.296  18.424  0.00  0.00     0.010 C 
ATOM     54  H7  XLD d           1.311   2.053  17.687  0.00  0.00     0.066 H 
ATOM     55  H8  XLD d           1.106   1.487  19.380  0.00  0.00     0.066 H 
ATOM     56  H9  XLD d           1.347   0.296  18.057  0.00  0.00     0.066 H 
ENDBRANCH  52  53
ENDBRANCH   3  52
TORSDOF 9
ENDMDL
MODEL 10
REMARK VINA RESULT:      -4.6      3.440      6.524
REMARK  9 active torsions:
REMARK  status: ('A' for Active; 'I' for Inactive)
REMARK       I    between atoms: N7_8  and  C9_9 
REMARK    1  A    between atoms: C9_9  and  C11_11 
REMARK    2  A    between atoms: C12_12  and  N19_20 
REMARK    3  A    between atoms: C13_13  and  O17_18 
REMARK    4  A    between atoms: O17_18  and  C18_19 
REMARK       I    between atoms: N19_20  and  C20_21 
REMARK    5  A    between atoms: C20_21  and  C22_23 
REMARK    6  A    between atoms: C25_26  and  C28_29 
REMARK    7  A    between atoms: C28_29  and  N29_30 
REMARK    8  A    between atoms: N29_30  and  C31_31 
REMARK    9  A    between atoms: N29_30  and  C32_32 
ROOT
ATOM      1  C11 XLD d           6.734   4.293  17.569  0.00  0.00     0.063 A 
ATOM      2  C12 XLD d           6.779   4.021  18.999  0.00  0.00     0.084 A 
ATOM      3  C13 XLD d           7.507   2.890  19.481  0.00  0.00     0.097 A 
ATOM      4  C14 XLD d           8.172   2.040  18.557  0.00  0.00    -0.028 A 
ATOM      5  C15 XLD d           8.116   2.307  17.170  0.00  0.00     0.037 A 
ATOM      6 CL2  XLD d           8.892   1.317  16.049  0.00  0.00    -0.084 Cl
ATOM      7  C16 XLD d           7.415   3.413  16.702  0.00  0.00    -0.044 A 
ATOM      8  H5  XLD d           8.727   1.181  18.918  0.00  0.00     0.090 H 
ATOM      9  H6  XLD d           7.392   3.606  15.636  0.00  0.00     0.087 H 
ENDROOT
BRANCH   2  10
ATOM     10  N19 XLD d           6.105   4.850  19.864  0.00  0.00    -0.319 N 
ATOM     11  C20 XLD d           6.648   5.809  20.673  0.00  0.00     0.264 C 
ATOM     12  O21 XLD d           7.901   5.950  20.645  0.00  0.00    -0.267 OA
ATOM     13  H10 XLD d           5.112   4.739  19.907  0.00  0.00     0.169 HD
BRANCH  11  14
ATOM     14  C22 XLD d           5.889   6.607  21.596  0.00  0.00     0.095 A 
ATOM     15  S23 XLD d           6.747   7.604  22.748  0.00  0.00    -0.094 SA
ATOM     16  C24 XLD d           5.255   8.123  23.414  0.00  0.00    -0.035 A 
ATOM     17  C25 XLD d           4.119   7.593  22.820  0.00  0.00    -0.011 A 
ATOM     18  H11 XLD d           5.203   8.821  24.248  0.00  0.00     0.096 H 
ATOM     19  C26 XLD d           4.482   6.727  21.764  0.00  0.00     0.065 A 
ATOM     20 CL3  XLD d           3.293   5.922  20.843  0.00  0.00    -0.082 Cl
BRANCH  17  21
ATOM     21  C28 XLD d           2.708   7.883  23.229  0.00  0.00     0.024 C 
ATOM     22  H12 XLD d           2.091   7.726  22.331  0.00  0.00     0.071 H 
ATOM     23  H13 XLD d           2.682   8.945  23.510  0.00  0.00     0.071 H 
BRANCH  21  24
ATOM     24  N29 XLD d           2.020   7.134  24.347  0.00  0.00    -0.346 N 
BRANCH  24  25
ATOM     25  C31 XLD d           0.930   7.833  25.082  0.00  0.00    -0.015 C 
ATOM     26  H14 XLD d           1.308   8.180  26.055  0.00  0.00     0.056 H 
ATOM     27  H15 XLD d           0.091   7.139  25.240  0.00  0.00     0.056 H 
ATOM     28  H16 XLD d           0.586   8.697  24.493  0.00  0.00     0.056 H 
ENDBRANCH  24  25
BRANCH  24  29
ATOM     29  C32 XLD d           1.711   5.793  24.010  0.00  0.00     0.239 A 
ATOM     30  N33 XLD d           1.989   4.733  24.806  0.00  0.00    -0.249 NA
ATOM     31  C34 XLD d           1.552   3.520  24.225  0.00  0.00     0.039 A 
ATOM     32  C35 XLD d           0.931   3.965  22.881  0.00  0.00     0.046 A 
ATOM     33  H17 XLD d           0.801   3.029  24.861  0.00  0.00     0.070 H 
ATOM     34  H18 XLD d           2.397   2.836  24.060  0.00  0.00     0.070 H 
ATOM     35  O36 XLD d           1.097   5.384  22.879  0.00  0.00    -0.319 OA
ATOM     36  H19 XLD d          -0.135   3.696  22.833  0.00  0.00     0.077 H 
ATOM     37  H20 XLD d           1.463   3.508  22.034  0.00  0.00     0.077 H 
ENDBRANCH  24  29
ENDBRANCH  21  24
ENDBRANCH  17  21
ENDBRANCH  11  14
ENDBRANCH   2  10
BRANCH   1  38
ATOM     38  C9  XLD d           6.036   5.399  16.954  0.00  0.00     0.259 C 
ATOM     39  N7  XLD d           5.068   6.063  17.671  0.00  0.00    -0.307 N 
ATOM     40  C1  XLD d           4.269   7.096  17.272  0.00  0.00     0.130 A 
ATOM     41  H4  XLD d           4.930   5.746  18.609  0.00  0.00     0.170 HD
ATOM     42  N2  XLD d           3.926   7.283  15.957  0.00  0.00    -0.242 NA
ATOM     43  C6  XLD d           3.739   7.978  18.247  0.00  0.00    -0.037 A 
ATOM     44  C3  XLD d           3.139   8.275  15.533  0.00  0.00     0.025 A 
ATOM     45  C4  XLD d           2.602   9.206  16.455  0.00  0.00     0.051 A 
ATOM     46  H1  XLD d           2.911   8.367  14.477  0.00  0.00     0.117 H 
ATOM     47 CL1  XLD d           1.665  10.589  15.898  0.00  0.00    -0.083 Cl
ATOM     48  C5  XLD d           2.904   9.032  17.832  0.00  0.00    -0.057 A 
ATOM     49  H2  XLD d           2.488   9.713  18.566  0.00  0.00     0.086 H 
ATOM     50  H3  XLD d           3.974   7.842  19.296  0.00  0.00     0.089 H 
ATOM     51  O10 XLD d           6.299   5.725  15.765  0.00  0.00    -0.267 OA
ENDBRANCH   1  38
BRANCH   3  52
ATOM     52  O17 XLD d           7.535   2.663  20.825  0.00  0.00    -0.354 OA
BRANCH  52  53
ATOM     53  C18 XLD d           6.509   2.175  21.684  0.00  0.00     0.010 C 
ATOM     54  H7  XLD d           6.614   1.087  21.799  0.00  0.00     0.066 H 
ATOM     55  H8  XLD d           5.526   2.405  21.247  0.00  0.00     0.066 H 
ATOM     56  H9  XLD d           6.595   2.658  22.668  0.00  0.00     0.066 H 
ENDBRANCH  52  53
ENDBRANCH   3  52
TORSDOF 9
ENDMDL
