REMARK  1 active torsions:
REMARK  status: ('A' for Active; 'I' for Inactive)
REMARK    1  A    between atoms: C3_3  and  N15_15 
ROOT
ATOM      1  C1  PRL d           8.982  23.182  49.516  0.00  0.00    -0.069 A 
ATOM      2  C2  PRL d           9.670  23.649  48.475  0.00  0.00    -0.057 A 
ATOM      3  C3  PRL d          10.665  22.851  47.794  0.00  0.00     0.028 A 
ATOM      4  C4  PRL d          10.902  21.573  48.264  0.00  0.00    -0.029 A 
ATOM      5  C5  PRL d           9.939  17.864  51.143  0.00  0.00    -0.029 A 
ATOM      6  C6  PRL d           9.231  17.253  52.163  0.00  0.00     0.028 A 
ATOM      7  C7  PRL d           8.222  18.030  52.852  0.00  0.00    -0.057 A 
ATOM      8  C8  PRL d           7.968  19.299  52.528  0.00  0.00    -0.069 A 
ATOM      9  C9  PRL d           8.475  21.272  51.058  0.00  0.00    -0.059 A 
ATOM     10  N10 PRL d          10.385  19.776  49.768  0.00  0.00    -0.247 NA
ATOM     11  C11 PRL d          10.196  21.070  49.336  0.00  0.00     0.070 A 
ATOM     12  C12 PRL d           8.690  19.965  51.464  0.00  0.00    -0.006 A 
ATOM     13  C13 PRL d           9.190  21.846  50.020  0.00  0.00    -0.006 A 
ATOM     14  C14 PRL d           9.691  19.173  50.793  0.00  0.00     0.070 A 
ATOM     15  N16 PRL d           9.453  15.962  52.502  0.00  0.00    -0.399 N 
ATOM     16  H1  PRL d           8.249  23.820  49.995  0.00  0.00     0.085 H 
ATOM     17  H2  PRL d           9.478  24.658  48.128  0.00  0.00     0.086 H 
ATOM     18  H3  PRL d          11.654  20.957  47.783  0.00  0.00     0.090 H 
ATOM     19  H4  PRL d          10.700  17.304  50.611  0.00  0.00     0.090 H 
ATOM     20  H5  PRL d           7.657  17.568  53.654  0.00  0.00     0.086 H 
ATOM     21  H6  PRL d           7.205  19.843  53.073  0.00  0.00     0.085 H 
ATOM     22  H7  PRL d           7.724  21.864  51.569  0.00  0.00     0.086 H 
ATOM     23  H10 PRL d          10.173  15.416  52.007  0.00  0.00     0.156 HD
ATOM     24  H11 PRL d           8.902  15.525  53.255  0.00  0.00     0.156 HD
ENDROOT
BRANCH   3  25
ATOM     25  N15 PRL d          11.274  23.326  46.684  0.00  0.00    -0.399 N 
ATOM     26  H8  PRL d          11.077  24.283  46.358  0.00  0.00     0.156 HD
ATOM     27  H9  PRL d          11.935  22.731  46.164  0.00  0.00     0.156 HD
ENDBRANCH   3  25
TORSDOF 1
