MODEL 1
REMARK VINA RESULT:      -7.5      0.000      0.000
REMARK  1 active torsions:
REMARK  status: ('A' for Active; 'I' for Inactive)
REMARK    1  A    between atoms: C3_3  and  N15_15 
ROOT
ATOM      1  C1  PRL d           9.040  23.291  49.506  0.00  0.00    -0.069 A 
ATOM      2  C2  PRL d           9.837  23.581  48.478  0.00  0.00    -0.057 A 
ATOM      3  C3  PRL d          10.831  22.650  47.992  0.00  0.00     0.028 A 
ATOM      4  C4  PRL d          10.948  21.434  48.639  0.00  0.00    -0.029 A 
ATOM      5  C5  PRL d           9.526  18.189  51.867  0.00  0.00    -0.029 A 
ATOM      6  C6  PRL d           8.702  17.755  52.890  0.00  0.00     0.028 A 
ATOM      7  C7  PRL d           7.693  18.668  53.385  0.00  0.00    -0.057 A 
ATOM      8  C8  PRL d           7.546  19.895  52.883  0.00  0.00    -0.069 A 
ATOM      9  C9  PRL d           8.292  21.629  51.226  0.00  0.00    -0.059 A 
ATOM     10  N10 PRL d          10.201  19.879  50.306  0.00  0.00    -0.247 NA
ATOM     11  C11 PRL d          10.129  21.113  49.700  0.00  0.00     0.070 A 
ATOM     12  C12 PRL d           8.391  20.377  51.811  0.00  0.00    -0.006 A 
ATOM     13  C13 PRL d           9.123  22.024  50.190  0.00  0.00    -0.006 A 
ATOM     14  C14 PRL d           9.390  19.452  51.335  0.00  0.00     0.070 A 
ATOM     15  N16 PRL d           8.814  16.510  53.408  0.00  0.00    -0.399 N 
ATOM     16  H1  PRL d           8.313  24.024  49.835  0.00  0.00     0.085 H 
ATOM     17  H2  PRL d           9.738  24.545  47.991  0.00  0.00     0.086 H 
ATOM     18  H3  PRL d          11.696  20.722  48.306  0.00  0.00     0.090 H 
ATOM     19  H4  PRL d          10.290  17.525  51.478  0.00  0.00     0.090 H 
ATOM     20  H5  PRL d           7.037  18.345  54.187  0.00  0.00     0.086 H 
ATOM     21  H6  PRL d           6.778  20.545  53.287  0.00  0.00     0.085 H 
ATOM     22  H7  PRL d           7.542  22.321  51.591  0.00  0.00     0.086 H 
ATOM     23  H10 PRL d           9.535  15.867  53.050  0.00  0.00     0.156 HD
ATOM     24  H11 PRL d           8.178  16.205  54.159  0.00  0.00     0.156 HD
ENDROOT
BRANCH   3  25
ATOM     25  N15 PRL d          11.555  22.943  46.889  0.00  0.00    -0.399 N 
ATOM     26  H8  PRL d          12.576  23.063  46.959  0.00  0.00     0.156 HD
ATOM     27  H9  PRL d          11.087  23.047  45.977  0.00  0.00     0.156 HD
ENDBRANCH   3  25
TORSDOF 1
ENDMDL
MODEL 2
REMARK VINA RESULT:      -7.4      0.191      5.666
REMARK  1 active torsions:
REMARK  status: ('A' for Active; 'I' for Inactive)
REMARK    1  A    between atoms: C3_3  and  N15_15 
ROOT
ATOM      1  C1  PRL d           7.660  19.778  52.801  0.00  0.00    -0.069 A 
ATOM      2  C2  PRL d           7.881  18.567  53.312  0.00  0.00    -0.057 A 
ATOM      3  C3  PRL d           8.880  17.675  52.766  0.00  0.00     0.028 A 
ATOM      4  C4  PRL d           9.606  18.109  51.672  0.00  0.00    -0.029 A 
ATOM      5  C5  PRL d          10.880  21.449  48.479  0.00  0.00    -0.029 A 
ATOM      6  C6  PRL d          10.788  22.711  47.920  0.00  0.00     0.028 A 
ATOM      7  C7  PRL d           9.802  23.624  48.458  0.00  0.00    -0.057 A 
ATOM      8  C8  PRL d           8.996  23.277  49.463  0.00  0.00    -0.069 A 
ATOM      9  C9  PRL d           8.282  21.535  51.126  0.00  0.00    -0.059 A 
ATOM     10  N10 PRL d          10.160  19.821  50.085  0.00  0.00    -0.247 NA
ATOM     11  C11 PRL d           9.396  19.361  51.134  0.00  0.00     0.070 A 
ATOM     12  C12 PRL d           9.070  21.965  50.071  0.00  0.00    -0.006 A 
ATOM     13  C13 PRL d           8.414  20.270  51.673  0.00  0.00    -0.006 A 
ATOM     14  C14 PRL d          10.058  21.072  49.518  0.00  0.00     0.070 A 
ATOM     15  N16 PRL d          11.604  23.098  46.912  0.00  0.00    -0.399 N 
ATOM     16  H1  PRL d           6.898  20.408  53.244  0.00  0.00     0.085 H 
ATOM     17  H2  PRL d           7.293  18.240  54.162  0.00  0.00     0.086 H 
ATOM     18  H3  PRL d          10.351  17.456  51.232  0.00  0.00     0.090 H 
ATOM     19  H4  PRL d          11.611  20.746  48.094  0.00  0.00     0.090 H 
ATOM     20  H5  PRL d           9.715  24.618  48.032  0.00  0.00     0.086 H 
ATOM     21  H6  PRL d           8.271  23.993  49.832  0.00  0.00     0.085 H 
ATOM     22  H7  PRL d           7.538  22.209  51.534  0.00  0.00     0.086 H 
ATOM     23  H10 PRL d          12.303  22.442  46.534  0.00  0.00     0.156 HD
ATOM     24  H11 PRL d          11.526  24.049  46.522  0.00  0.00     0.156 HD
ENDROOT
BRANCH   3  25
ATOM     25  N15 PRL d           9.139  16.493  53.369  0.00  0.00    -0.399 N 
ATOM     26  H8  PRL d           8.788  15.617  52.958  0.00  0.00     0.156 HD
ATOM     27  H9  PRL d           9.688  16.469  54.241  0.00  0.00     0.156 HD
ENDBRANCH   3  25
TORSDOF 1
ENDMDL
MODEL 3
REMARK VINA RESULT:      -7.2      1.461      6.140
REMARK  1 active torsions:
REMARK  status: ('A' for Active; 'I' for Inactive)
REMARK    1  A    between atoms: C3_3  and  N15_15 
ROOT
ATOM      1  C1  PRL d           9.739  18.740  51.536  0.00  0.00    -0.069 A 
ATOM      2  C2  PRL d           8.924  18.560  52.575  0.00  0.00    -0.057 A 
ATOM      3  C3  PRL d           7.996  19.581  53.007  0.00  0.00     0.028 A 
ATOM      4  C4  PRL d           7.981  20.777  52.314  0.00  0.00    -0.029 A 
ATOM      5  C5  PRL d           9.371  23.608  48.705  0.00  0.00    -0.029 A 
ATOM      6  C6  PRL d          10.116  23.872  47.568  0.00  0.00     0.028 A 
ATOM      7  C7  PRL d          11.044  22.859  47.111  0.00  0.00    -0.057 A 
ATOM      8  C8  PRL d          11.192  21.699  47.753  0.00  0.00    -0.069 A 
ATOM      9  C9  PRL d          10.510  20.207  49.656  0.00  0.00    -0.059 A 
ATOM     10  N10 PRL d           8.757  22.146  50.503  0.00  0.00    -0.247 NA
ATOM     11  C11 PRL d           8.812  20.980  51.233  0.00  0.00     0.070 A 
ATOM     12  C12 PRL d          10.426  21.392  48.943  0.00  0.00    -0.006 A 
ATOM     13  C13 PRL d           9.736  19.969  50.779  0.00  0.00    -0.006 A 
ATOM     14  C14 PRL d           9.509  22.416  49.381  0.00  0.00     0.070 A 
ATOM     15  N16 PRL d           9.974  25.032  46.886  0.00  0.00    -0.399 N 
ATOM     16  H1  PRL d          10.419  17.946  51.253  0.00  0.00     0.085 H 
ATOM     17  H2  PRL d           8.958  17.619  53.113  0.00  0.00     0.086 H 
ATOM     18  H3  PRL d           7.307  21.567  52.625  0.00  0.00     0.090 H 
ATOM     19  H4  PRL d           8.669  24.349  49.068  0.00  0.00     0.090 H 
ATOM     20  H5  PRL d          11.636  23.049  46.223  0.00  0.00     0.086 H 
ATOM     21  H6  PRL d          11.901  20.971  47.376  0.00  0.00     0.085 H 
ATOM     22  H7  PRL d          11.204  19.443  49.324  0.00  0.00     0.086 H 
ATOM     23  H10 PRL d           9.311  25.747  47.217  0.00  0.00     0.156 HD
ATOM     24  H11 PRL d          10.529  25.199  46.034  0.00  0.00     0.156 HD
ENDROOT
BRANCH   3  25
ATOM     25  N15 PRL d           7.120  19.325  54.005  0.00  0.00    -0.399 N 
ATOM     26  H8  PRL d           7.405  18.740  54.803  0.00  0.00     0.156 HD
ATOM     27  H9  PRL d           6.167  19.715  53.967  0.00  0.00     0.156 HD
ENDBRANCH   3  25
TORSDOF 1
ENDMDL
MODEL 4
REMARK VINA RESULT:      -6.9      1.513      2.469
REMARK  1 active torsions:
REMARK  status: ('A' for Active; 'I' for Inactive)
REMARK    1  A    between atoms: C3_3  and  N15_15 
ROOT
ATOM      1  C1  PRL d          11.223  21.655  47.665  0.00  0.00    -0.069 A 
ATOM      2  C2  PRL d          11.154  22.820  47.023  0.00  0.00    -0.057 A 
ATOM      3  C3  PRL d          10.225  23.856  47.415  0.00  0.00     0.028 A 
ATOM      4  C4  PRL d           9.383  23.602  48.481  0.00  0.00    -0.029 A 
ATOM      5  C5  PRL d           7.857  20.895  52.130  0.00  0.00    -0.029 A 
ATOM      6  C6  PRL d           7.896  19.755  52.914  0.00  0.00     0.028 A 
ATOM      7  C7  PRL d           8.827  18.708  52.546  0.00  0.00    -0.057 A 
ATOM      8  C8  PRL d           9.630  18.820  51.488  0.00  0.00    -0.069 A 
ATOM      9  C9  PRL d          10.426  20.201  49.546  0.00  0.00    -0.059 A 
ATOM     10  N10 PRL d           8.650  22.171  50.263  0.00  0.00    -0.247 NA
ATOM     11  C11 PRL d           9.444  22.404  49.162  0.00  0.00     0.070 A 
ATOM     12  C12 PRL d           9.614  20.002  50.650  0.00  0.00    -0.006 A 
ATOM     13  C13 PRL d          10.373  21.363  48.795  0.00  0.00    -0.006 A 
ATOM     14  C14 PRL d           8.679  21.030  51.033  0.00  0.00     0.070 A 
ATOM     15  N16 PRL d           7.107  19.620  54.004  0.00  0.00    -0.399 N 
ATOM     16  H1  PRL d          11.934  20.908  47.332  0.00  0.00     0.085 H 
ATOM     17  H2  PRL d          11.814  22.997  46.182  0.00  0.00     0.086 H 
ATOM     18  H3  PRL d           8.665  24.355  48.787  0.00  0.00     0.090 H 
ATOM     19  H4  PRL d           7.169  21.694  52.384  0.00  0.00     0.090 H 
ATOM     20  H5  PRL d           8.872  17.807  53.149  0.00  0.00     0.086 H 
ATOM     21  H6  PRL d          10.310  18.010  51.249  0.00  0.00     0.085 H 
ATOM     22  H7  PRL d          11.125  19.422  49.260  0.00  0.00     0.086 H 
ATOM     23  H10 PRL d           6.447  20.369  54.259  0.00  0.00     0.156 HD
ATOM     24  H11 PRL d           7.165  18.767  54.580  0.00  0.00     0.156 HD
ENDROOT
BRANCH   3  25
ATOM     25  N15 PRL d          10.250  25.060  46.799  0.00  0.00    -0.399 N 
ATOM     26  H8  PRL d          10.680  25.870  47.269  0.00  0.00     0.156 HD
ATOM     27  H9  PRL d           9.840  25.168  45.860  0.00  0.00     0.156 HD
ENDBRANCH   3  25
TORSDOF 1
ENDMDL
MODEL 5
REMARK VINA RESULT:      -5.5      1.686      2.716
REMARK  1 active torsions:
REMARK  status: ('A' for Active; 'I' for Inactive)
REMARK    1  A    between atoms: C3_3  and  N15_15 
ROOT
ATOM      1  C1  PRL d          10.405  21.541  49.233  0.00  0.00    -0.069 A 
ATOM      2  C2  PRL d           9.836  22.743  49.146  0.00  0.00    -0.057 A 
ATOM      3  C3  PRL d           8.666  23.095  49.918  0.00  0.00     0.028 A 
ATOM      4  C4  PRL d           8.130  22.134  50.755  0.00  0.00    -0.029 A 
ATOM      5  C5  PRL d           8.197  17.834  52.871  0.00  0.00    -0.029 A 
ATOM      6  C6  PRL d           8.749  16.586  53.097  0.00  0.00     0.028 A 
ATOM      7  C7  PRL d           9.929  16.216  52.342  0.00  0.00    -0.057 A 
ATOM      8  C8  PRL d          10.481  17.040  51.451  0.00  0.00    -0.069 A 
ATOM      9  C9  PRL d          10.451  19.272  50.299  0.00  0.00    -0.059 A 
ATOM     10  N10 PRL d           8.213  19.949  51.742  0.00  0.00    -0.247 NA
ATOM     11  C11 PRL d           8.707  20.887  50.863  0.00  0.00     0.070 A 
ATOM     12  C12 PRL d           9.928  18.354  51.195  0.00  0.00    -0.006 A 
ATOM     13  C13 PRL d           9.883  20.522  50.111  0.00  0.00    -0.006 A 
ATOM     14  C14 PRL d           8.754  18.700  51.956  0.00  0.00     0.070 A 
ATOM     15  N16 PRL d           8.223  15.735  54.008  0.00  0.00    -0.399 N 
ATOM     16  H1  PRL d          11.279  21.324  48.631  0.00  0.00     0.085 H 
ATOM     17  H2  PRL d          10.265  23.479  48.475  0.00  0.00     0.086 H 
ATOM     18  H3  PRL d           7.242  22.365  51.334  0.00  0.00     0.090 H 
ATOM     19  H4  PRL d           7.314  18.136  53.423  0.00  0.00     0.090 H 
ATOM     20  H5  PRL d          10.375  15.241  52.506  0.00  0.00     0.086 H 
ATOM     21  H6  PRL d          11.362  16.720  50.907  0.00  0.00     0.085 H 
ATOM     22  H7  PRL d          11.332  19.005  49.726  0.00  0.00     0.086 H 
ATOM     23  H10 PRL d           7.383  16.006  54.540  0.00  0.00     0.156 HD
ATOM     24  H11 PRL d           8.661  14.816  54.169  0.00  0.00     0.156 HD
ENDROOT
BRANCH   3  25
ATOM     25  N15 PRL d           8.175  24.354  49.872  0.00  0.00    -0.399 N 
ATOM     26  H8  PRL d           8.819  25.157  49.836  0.00  0.00     0.156 HD
ATOM     27  H9  PRL d           7.157  24.511  49.874  0.00  0.00     0.156 HD
ENDBRANCH   3  25
TORSDOF 1
ENDMDL
MODEL 6
REMARK VINA RESULT:      -5.5      1.674      6.043
REMARK  1 active torsions:
REMARK  status: ('A' for Active; 'I' for Inactive)
REMARK    1  A    between atoms: C3_3  and  N15_15 
ROOT
ATOM      1  C1  PRL d          10.377  16.959  51.463  0.00  0.00    -0.069 A 
ATOM      2  C2  PRL d           9.787  16.143  52.336  0.00  0.00    -0.057 A 
ATOM      3  C3  PRL d           8.672  16.571  53.151  0.00  0.00     0.028 A 
ATOM      4  C4  PRL d           8.232  17.874  53.014  0.00  0.00    -0.029 A 
ATOM      5  C5  PRL d           8.293  22.172  50.893  0.00  0.00    -0.029 A 
ATOM      6  C6  PRL d           8.781  23.077  49.967  0.00  0.00     0.028 A 
ATOM      7  C7  PRL d           9.890  22.666  49.132  0.00  0.00    -0.057 A 
ATOM      8  C8  PRL d          10.440  21.455  49.238  0.00  0.00    -0.069 A 
ATOM      9  C9  PRL d          10.456  19.206  50.355  0.00  0.00    -0.059 A 
ATOM     10  N10 PRL d           8.352  20.010  51.928  0.00  0.00    -0.247 NA
ATOM     11  C11 PRL d           8.827  18.731  52.112  0.00  0.00     0.070 A 
ATOM     12  C12 PRL d           9.951  20.485  50.195  0.00  0.00    -0.006 A 
ATOM     13  C13 PRL d           9.931  18.319  51.280  0.00  0.00    -0.006 A 
ATOM     14  C14 PRL d           8.847  20.916  51.017  0.00  0.00     0.070 A 
ATOM     15  N16 PRL d           8.232  24.305  49.823  0.00  0.00    -0.399 N 
ATOM     16  H1  PRL d          11.212  16.592  50.877  0.00  0.00     0.085 H 
ATOM     17  H2  PRL d          10.153  15.128  52.437  0.00  0.00     0.086 H 
ATOM     18  H3  PRL d           7.408  18.227  53.624  0.00  0.00     0.090 H 
ATOM     19  H4  PRL d           7.463  22.454  51.530  0.00  0.00     0.090 H 
ATOM     20  H5  PRL d          10.285  23.362  48.400  0.00  0.00     0.086 H 
ATOM     21  H6  PRL d          11.271  21.192  48.593  0.00  0.00     0.085 H 
ATOM     22  H7  PRL d          11.289  18.889  49.738  0.00  0.00     0.086 H 
ATOM     23  H10 PRL d           7.443  24.590  50.421  0.00  0.00     0.156 HD
ATOM     24  H11 PRL d           8.603  24.956  49.115  0.00  0.00     0.156 HD
ENDROOT
BRANCH   3  25
ATOM     25  N15 PRL d           8.039  15.687  53.955  0.00  0.00    -0.399 N 
ATOM     26  H8  PRL d           7.888  15.911  54.949  0.00  0.00     0.156 HD
ATOM     27  H9  PRL d           7.709  14.788  53.574  0.00  0.00     0.156 HD
ENDBRANCH   3  25
TORSDOF 1
ENDMDL
MODEL 7
REMARK VINA RESULT:      -4.8      1.949      5.708
REMARK  1 active torsions:
REMARK  status: ('A' for Active; 'I' for Inactive)
REMARK    1  A    between atoms: C3_3  and  N15_15 
ROOT
ATOM      1  C1  PRL d           8.681  16.426  52.214  0.00  0.00    -0.069 A 
ATOM      2  C2  PRL d           9.677  15.772  52.811  0.00  0.00    -0.057 A 
ATOM      3  C3  PRL d          11.002  16.339  52.930  0.00  0.00     0.028 A 
ATOM      4  C4  PRL d          11.221  17.592  52.389  0.00  0.00    -0.029 A 
ATOM      5  C5  PRL d           9.721  21.618  50.266  0.00  0.00    -0.029 A 
ATOM      6  C6  PRL d           8.744  22.415  49.695  0.00  0.00     0.028 A 
ATOM      7  C7  PRL d           7.407  21.872  49.576  0.00  0.00    -0.057 A 
ATOM      8  C8  PRL d           7.107  20.642  49.996  0.00  0.00    -0.069 A 
ATOM      9  C9  PRL d           7.871  18.506  51.074  0.00  0.00    -0.059 A 
ATOM     10  N10 PRL d          10.400  19.559  51.288  0.00  0.00    -0.247 NA
ATOM     11  C11 PRL d          10.202  18.286  51.773  0.00  0.00     0.070 A 
ATOM     12  C12 PRL d           8.107  19.786  50.599  0.00  0.00    -0.006 A 
ATOM     13  C13 PRL d           8.870  17.743  51.656  0.00  0.00    -0.006 A 
ATOM     14  C14 PRL d           9.431  20.346  50.707  0.00  0.00     0.070 A 
ATOM     15  N16 PRL d           9.014  23.673  49.276  0.00  0.00    -0.399 N 
ATOM     16  H1  PRL d           7.706  15.957  52.147  0.00  0.00     0.085 H 
ATOM     17  H2  PRL d           9.489  14.786  53.219  0.00  0.00     0.086 H 
ATOM     18  H3  PRL d          12.209  18.035  52.449  0.00  0.00     0.090 H 
ATOM     19  H4  PRL d          10.731  22.001  50.367  0.00  0.00     0.090 H 
ATOM     20  H5  PRL d           6.628  22.482  49.131  0.00  0.00     0.086 H 
ATOM     21  H6  PRL d           6.092  20.276  49.884  0.00  0.00     0.085 H 
ATOM     22  H7  PRL d           6.875  18.088  50.986  0.00  0.00     0.086 H 
ATOM     23  H10 PRL d           9.968  24.052  49.365  0.00  0.00     0.156 HD
ATOM     24  H11 PRL d           8.265  24.252  48.869  0.00  0.00     0.156 HD
ENDROOT
BRANCH   3  25
ATOM     25  N15 PRL d          11.961  15.686  53.625  0.00  0.00    -0.399 N 
ATOM     26  H8  PRL d          12.669  16.218  54.150  0.00  0.00     0.156 HD
ATOM     27  H9  PRL d          11.984  14.656  53.628  0.00  0.00     0.156 HD
ENDBRANCH   3  25
TORSDOF 1
ENDMDL
