MODEL 1
REMARK VINA RESULT:      -7.7      0.000      0.000
REMARK  9 active torsions:
REMARK  status: ('A' for Active; 'I' for Inactive)
REMARK    1  A    between atoms: C20_6  and  C17_7 
REMARK    2  A    between atoms: C4_11  and  C1_12 
REMARK    3  A    between atoms: N12_24  and  C19_25 
REMARK    4  A    between atoms: C19_25  and  C21_26 
REMARK    5  A    between atoms: C21_26  and  C23_27 
REMARK    6  A    between atoms: C23_27  and  N29_28 
REMARK    7  A    between atoms: N29_28  and  C32_29 
REMARK    8  A    between atoms: N29_28  and  C31_30 
REMARK    9  A    between atoms: N29_28  and  C30_31 
ROOT
ATOM      1  C1  Y5H d          -1.715  12.192  22.063  0.00  0.00     0.160 C 
ATOM      2  N3  Y5H d          -2.370  13.485  21.732  0.00  0.00    -0.055 N 
ATOM      3  C7  Y5H d          -2.378  13.492  20.259  0.00  0.00     0.117 C 
ATOM      4  C14 Y5H d          -0.959  13.927  19.852  0.00  0.00    -0.036 C 
ATOM      5  C15 Y5H d          -0.521  14.836  21.011  0.00  0.00    -0.040 C 
ATOM      6  C8  Y5H d          -1.567  14.669  22.129  0.00  0.00     0.085 C 
ATOM      7  C5  Y5H d          -2.752  12.080  19.819  0.00  0.00     0.066 A 
ATOM      8  C2  Y5H d          -2.391  11.207  21.050  0.00  0.00     0.071 A 
ATOM      9  C6  Y5H d          -3.741  10.635  21.461  0.00  0.00     0.234 A 
ATOM     10  O13 Y5H d          -3.985   9.851  22.363  0.00  0.00    -0.272 OA
ATOM     11  C11 Y5H d          -4.243  11.949  19.637  0.00  0.00     0.233 A 
ATOM     12  O18 Y5H d          -4.970  12.440  18.772  0.00  0.00    -0.272 OA
ATOM     13  N12 Y5H d          -4.778  11.144  20.661  0.00  0.00    -0.288 N 
ATOM     14  H4  Y5H d          -0.631  12.255  21.887  0.00  0.00     0.096 H 
ATOM     15  H5  Y5H d          -3.297  13.534  22.127  0.00  0.00     0.281 HD
ATOM     16  H6  Y5H d          -3.115  14.207  19.865  0.00  0.00     0.086 H 
ATOM     17  H7  Y5H d          -0.974  14.480  18.901  0.00  0.00     0.036 H 
ATOM     18  H8  Y5H d          -0.292  13.057  19.760  0.00  0.00     0.036 H 
ATOM     19  H9  Y5H d          -0.487  15.884  20.679  0.00  0.00     0.035 H 
ATOM     20  H10 Y5H d           0.473  14.534  21.374  0.00  0.00     0.035 H 
ATOM     21  H11 Y5H d          -1.075  14.495  23.097  0.00  0.00     0.076 H 
ATOM     22  H12 Y5H d          -2.205  15.563  22.198  0.00  0.00     0.076 H 
ATOM     23  H13 Y5H d          -2.211  11.780  18.910  0.00  0.00     0.059 H 
ATOM     24  H14 Y5H d          -1.694  10.393  20.801  0.00  0.00     0.059 H 
ENDROOT
BRANCH  13  25
ATOM     25  C19 Y5H d          -6.193  10.778  20.827  0.00  0.00     0.007 C 
ATOM     26  H15 Y5H d          -6.804  11.370  20.129  0.00  0.00     0.065 H 
ATOM     27  H16 Y5H d          -6.504  10.994  21.860  0.00  0.00     0.065 H 
BRANCH  25  28
ATOM     28  C21 Y5H d          -6.400   9.285  20.538  0.00  0.00    -0.027 C 
ATOM     29  H17 Y5H d          -7.186   8.868  21.185  0.00  0.00     0.037 H 
ATOM     30  H18 Y5H d          -5.465   8.727  20.691  0.00  0.00     0.037 H 
BRANCH  28  31
ATOM     31  C23 Y5H d          -6.829   9.232  19.059  0.00  0.00     0.086 C 
ATOM     32  H19 Y5H d          -6.432  10.123  18.551  0.00  0.00     0.076 H 
ATOM     33  H20 Y5H d          -7.928   9.245  19.017  0.00  0.00     0.076 H 
BRANCH  31  34
ATOM     34  N29 Y5H d          -6.337   8.002  18.322  0.00  0.00    -0.079 N 
BRANCH  34  35
ATOM     35  C32 Y5H d          -7.226   6.831  18.629  0.00  0.00     0.067 C 
ATOM     36  H21 Y5H d          -6.807   5.922  18.173  0.00  0.00     0.068 H 
ATOM     37  H22 Y5H d          -8.231   7.016  18.220  0.00  0.00     0.068 H 
ATOM     38  H23 Y5H d          -7.292   6.697  19.719  0.00  0.00     0.068 H 
ENDBRANCH  34  35
BRANCH  34  39
ATOM     39  C31 Y5H d          -4.976   7.687  18.898  0.00  0.00     0.067 C 
ATOM     40  H24 Y5H d          -4.222   7.724  18.099  0.00  0.00     0.068 H 
ATOM     41  H25 Y5H d          -4.990   6.681  19.342  0.00  0.00     0.068 H 
ATOM     42  H26 Y5H d          -4.726   8.426  19.673  0.00  0.00     0.068 H 
ENDBRANCH  34  39
BRANCH  34  43
ATOM     43  C30 Y5H d          -6.259   8.196  16.845  0.00  0.00     0.067 C 
ATOM     44  H27 Y5H d          -5.354   7.704  16.458  0.00  0.00     0.068 H 
ATOM     45  H28 Y5H d          -6.219   9.270  16.618  0.00  0.00     0.068 H 
ATOM     46  H29 Y5H d          -7.148   7.753  16.371  0.00  0.00     0.068 H 
ENDBRANCH  34  43
ENDBRANCH  31  34
ENDBRANCH  28  31
ENDBRANCH  25  28
ENDBRANCH  13  25
BRANCH   1  47
ATOM     47  C4  Y5H d          -1.952  11.746  23.483  0.00  0.00     0.091 A 
ATOM     48  N16 Y5H d          -1.463  10.571  24.006  0.00  0.00    -0.224 NA
ATOM     49  C17 Y5H d          -1.863  10.580  25.262  0.00  0.00     0.186 A 
ATOM     50  O10 Y5H d          -2.670  11.623  25.581  0.00  0.00    -0.301 OA
ATOM     51  C9  Y5H d          -2.675  12.372  24.415  0.00  0.00     0.047 A 
ATOM     52  H3  Y5H d          -3.188  13.324  24.280  0.00  0.00     0.126 H 
BRANCH  49  53
ATOM     53  C20 Y5H d          -1.737   9.515  26.246  0.00  0.00     0.059 A 
ATOM     54  C22 Y5H d          -2.617   9.211  27.278  0.00  0.00    -0.060 A 
ATOM     55  C24 Y5H d          -2.280   8.025  27.971  0.00  0.00    -0.054 A 
ATOM     56  H2  Y5H d          -3.481   9.824  27.528  0.00  0.00     0.085 H 
ATOM     57  C25 Y5H d          -1.189   7.420  27.403  0.00  0.00     0.075 A 
ATOM     58  H1  Y5H d          -2.815   7.645  28.840  0.00  0.00     0.086 H 
ATOM     59 CL1  Y5H d          -0.434   5.914  27.878  0.00  0.00    -0.076 Cl
ATOM     60  S1  Y5H d          -0.487   8.322  26.090  0.00  0.00    -0.074 SA
ENDBRANCH  49  53
ENDBRANCH   1  47
TORSDOF 9
ENDMDL
MODEL 2
REMARK VINA RESULT:      -7.2      1.694      3.222
REMARK  9 active torsions:
REMARK  status: ('A' for Active; 'I' for Inactive)
REMARK    1  A    between atoms: C20_6  and  C17_7 
REMARK    2  A    between atoms: C4_11  and  C1_12 
REMARK    3  A    between atoms: N12_24  and  C19_25 
REMARK    4  A    between atoms: C19_25  and  C21_26 
REMARK    5  A    between atoms: C21_26  and  C23_27 
REMARK    6  A    between atoms: C23_27  and  N29_28 
REMARK    7  A    between atoms: N29_28  and  C32_29 
REMARK    8  A    between atoms: N29_28  and  C31_30 
REMARK    9  A    between atoms: N29_28  and  C30_31 
ROOT
ATOM      1  C1  Y5H d          -1.656  12.220  22.061  0.00  0.00     0.160 C 
ATOM      2  N3  Y5H d          -2.283  13.530  21.741  0.00  0.00    -0.055 N 
ATOM      3  C7  Y5H d          -2.289  13.550  20.268  0.00  0.00     0.117 C 
ATOM      4  C14 Y5H d          -0.861  13.957  19.865  0.00  0.00    -0.036 C 
ATOM      5  C15 Y5H d          -0.403  14.847  21.033  0.00  0.00    -0.040 C 
ATOM      6  C8  Y5H d          -1.455  14.693  22.149  0.00  0.00     0.085 C 
ATOM      7  C5  Y5H d          -2.694  12.150  19.816  0.00  0.00     0.066 A 
ATOM      8  C2  Y5H d          -2.353  11.259  21.040  0.00  0.00     0.071 A 
ATOM      9  C6  Y5H d          -3.715  10.713  21.445  0.00  0.00     0.234 A 
ATOM     10  O13 Y5H d          -3.977   9.927  22.339  0.00  0.00    -0.272 OA
ATOM     11  C11 Y5H d          -4.186  12.054  19.631  0.00  0.00     0.233 A 
ATOM     12  O18 Y5H d          -4.902  12.567  18.771  0.00  0.00    -0.272 OA
ATOM     13  N12 Y5H d          -4.740  11.251  20.648  0.00  0.00    -0.288 N 
ATOM     14  H4  Y5H d          -0.571  12.261  21.887  0.00  0.00     0.096 H 
ATOM     15  H5  Y5H d          -3.208  13.596  22.136  0.00  0.00     0.281 HD
ATOM     16  H6  Y5H d          -3.010  14.284  19.880  0.00  0.00     0.086 H 
ATOM     17  H7  Y5H d          -0.863  14.518  18.920  0.00  0.00     0.036 H 
ATOM     18  H8  Y5H d          -0.212  13.074  19.766  0.00  0.00     0.036 H 
ATOM     19  H9  Y5H d          -0.346  15.896  20.709  0.00  0.00     0.035 H 
ATOM     20  H10 Y5H d           0.583  14.520  21.394  0.00  0.00     0.035 H 
ATOM     21  H11 Y5H d          -0.967  14.500  23.115  0.00  0.00     0.076 H 
ATOM     22  H12 Y5H d          -2.073  15.600  22.225  0.00  0.00     0.076 H 
ATOM     23  H13 Y5H d          -2.158  11.846  18.905  0.00  0.00     0.059 H 
ATOM     24  H14 Y5H d          -1.673  10.432  20.784  0.00  0.00     0.059 H 
ENDROOT
BRANCH  13  25
ATOM     25  C19 Y5H d          -6.163  10.915  20.810  0.00  0.00     0.007 C 
ATOM     26  H15 Y5H d          -6.259  10.076  21.514  0.00  0.00     0.065 H 
ATOM     27  H16 Y5H d          -6.579  10.625  19.834  0.00  0.00     0.065 H 
BRANCH  25  28
ATOM     28  C21 Y5H d          -6.941  12.122  21.353  0.00  0.00    -0.027 C 
ATOM     29  H17 Y5H d          -7.999  11.865  21.508  0.00  0.00     0.037 H 
ATOM     30  H18 Y5H d          -6.870  12.974  20.661  0.00  0.00     0.037 H 
BRANCH  28  31
ATOM     31  C23 Y5H d          -6.259  12.451  22.694  0.00  0.00     0.086 C 
ATOM     32  H19 Y5H d          -5.176  12.294  22.580  0.00  0.00     0.076 H 
ATOM     33  H20 Y5H d          -6.651  11.765  23.460  0.00  0.00     0.076 H 
BRANCH  31  34
ATOM     34  N29 Y5H d          -6.487  13.874  23.165  0.00  0.00    -0.079 N 
BRANCH  34  35
ATOM     35  C32 Y5H d          -7.897  14.294  22.859  0.00  0.00     0.067 C 
ATOM     36  H21 Y5H d          -8.599  13.665  23.426  0.00  0.00     0.068 H 
ATOM     37  H22 Y5H d          -8.089  14.178  21.782  0.00  0.00     0.068 H 
ATOM     38  H23 Y5H d          -8.036  15.347  23.145  0.00  0.00     0.068 H 
ENDBRANCH  34  35
BRANCH  34  39
ATOM     39  C31 Y5H d          -5.577  14.742  22.328  0.00  0.00     0.067 C 
ATOM     40  H24 Y5H d          -4.999  15.408  22.986  0.00  0.00     0.068 H 
ATOM     41  H25 Y5H d          -6.180  15.345  21.634  0.00  0.00     0.068 H 
ATOM     42  H26 Y5H d          -4.888  14.105  21.755  0.00  0.00     0.068 H 
ENDBRANCH  34  39
BRANCH  34  43
ATOM     43  C30 Y5H d          -6.216  14.062  24.619  0.00  0.00     0.067 C 
ATOM     44  H27 Y5H d          -6.315  13.096  25.138  0.00  0.00     0.068 H 
ATOM     45  H28 Y5H d          -6.938  14.778  25.038  0.00  0.00     0.068 H 
ATOM     46  H29 Y5H d          -5.195  14.447  24.755  0.00  0.00     0.068 H 
ENDBRANCH  34  43
ENDBRANCH  31  34
ENDBRANCH  28  31
ENDBRANCH  25  28
ENDBRANCH  13  25
BRANCH   1  47
ATOM     47  C4  Y5H d          -1.904  11.768  23.477  0.00  0.00     0.091 A 
ATOM     48  N16 Y5H d          -1.409  10.596  24.002  0.00  0.00    -0.224 NA
ATOM     49  C17 Y5H d          -1.823  10.597  25.253  0.00  0.00     0.186 A 
ATOM     50  O10 Y5H d          -2.644  11.631  25.567  0.00  0.00    -0.301 OA
ATOM     51  C9  Y5H d          -2.643  12.384  24.403  0.00  0.00     0.047 A 
ATOM     52  H3  Y5H d          -3.163  13.331  24.266  0.00  0.00     0.126 H 
BRANCH  49  53
ATOM     53  C20 Y5H d          -1.697   9.530  26.235  0.00  0.00     0.059 A 
ATOM     54  C22 Y5H d          -2.564   9.241  27.283  0.00  0.00    -0.060 A 
ATOM     55  C24 Y5H d          -2.235   8.050  27.971  0.00  0.00    -0.054 A 
ATOM     56  H2  Y5H d          -3.412   9.869  27.548  0.00  0.00     0.085 H 
ATOM     57  C25 Y5H d          -1.165   7.426  27.384  0.00  0.00     0.075 A 
ATOM     58  H1  Y5H d          -2.760   7.679  28.849  0.00  0.00     0.086 H 
ATOM     59 CL1  Y5H d          -0.428   5.907  27.845  0.00  0.00    -0.076 Cl
ATOM     60  S1  Y5H d          -0.472   8.315  26.058  0.00  0.00    -0.074 SA
ENDBRANCH  49  53
ENDBRANCH   1  47
TORSDOF 9
ENDMDL
MODEL 3
REMARK VINA RESULT:      -6.8      3.943      7.274
REMARK  9 active torsions:
REMARK  status: ('A' for Active; 'I' for Inactive)
REMARK    1  A    between atoms: C20_6  and  C17_7 
REMARK    2  A    between atoms: C4_11  and  C1_12 
REMARK    3  A    between atoms: N12_24  and  C19_25 
REMARK    4  A    between atoms: C19_25  and  C21_26 
REMARK    5  A    between atoms: C21_26  and  C23_27 
REMARK    6  A    between atoms: C23_27  and  N29_28 
REMARK    7  A    between atoms: N29_28  and  C32_29 
REMARK    8  A    between atoms: N29_28  and  C31_30 
REMARK    9  A    between atoms: N29_28  and  C30_31 
ROOT
ATOM      1  C1  Y5H d          -4.172  13.142  17.505  0.00  0.00     0.160 C 
ATOM      2  N3  Y5H d          -2.889  12.826  16.824  0.00  0.00    -0.055 N 
ATOM      3  C7  Y5H d          -2.072  14.027  17.070  0.00  0.00     0.117 C 
ATOM      4  C14 Y5H d          -2.550  15.057  16.031  0.00  0.00    -0.036 C 
ATOM      5  C15 Y5H d          -2.999  14.184  14.847  0.00  0.00    -0.040 C 
ATOM      6  C8  Y5H d          -3.015  12.727  15.348  0.00  0.00     0.085 C 
ATOM      7  C5  Y5H d          -2.321  14.434  18.518  0.00  0.00     0.066 A 
ATOM      8  C2  Y5H d          -3.688  13.778  18.852  0.00  0.00     0.071 A 
ATOM      9  C6  Y5H d          -3.328  12.807  19.968  0.00  0.00     0.234 A 
ATOM     10  O13 Y5H d          -4.071  12.075  20.599  0.00  0.00    -0.272 OA
ATOM     11  C11 Y5H d          -1.315  13.794  19.439  0.00  0.00     0.233 A 
ATOM     12  O18 Y5H d          -0.110  14.019  19.556  0.00  0.00    -0.272 OA
ATOM     13  N12 Y5H d          -1.946  12.807  20.221  0.00  0.00    -0.288 N 
ATOM     14  H4  Y5H d          -4.752  13.865  16.914  0.00  0.00     0.096 H 
ATOM     15  H5  Y5H d          -2.473  11.988  17.203  0.00  0.00     0.281 HD
ATOM     16  H6  Y5H d          -1.001  13.821  16.924  0.00  0.00     0.086 H 
ATOM     17  H7  Y5H d          -1.731  15.728  15.736  0.00  0.00     0.036 H 
ATOM     18  H8  Y5H d          -3.390  15.651  16.422  0.00  0.00     0.036 H 
ATOM     19  H9  Y5H d          -2.293  14.289  14.010  0.00  0.00     0.035 H 
ATOM     20  H10 Y5H d          -4.005  14.482  14.518  0.00  0.00     0.035 H 
ATOM     21  H11 Y5H d          -3.958  12.234  15.073  0.00  0.00     0.076 H 
ATOM     22  H12 Y5H d          -2.170  12.164  14.925  0.00  0.00     0.076 H 
ATOM     23  H13 Y5H d          -2.333  15.527  18.637  0.00  0.00     0.059 H 
ATOM     24  H14 Y5H d          -4.431  14.507  19.207  0.00  0.00     0.059 H 
ENDROOT
BRANCH  13  25
ATOM     25  C19 Y5H d          -1.301  11.964  21.240  0.00  0.00     0.007 C 
ATOM     26  H15 Y5H d          -0.278  11.722  20.916  0.00  0.00     0.065 H 
ATOM     27  H16 Y5H d          -1.878  11.035  21.359  0.00  0.00     0.065 H 
BRANCH  25  28
ATOM     28  C21 Y5H d          -1.244  12.700  22.587  0.00  0.00    -0.027 C 
ATOM     29  H17 Y5H d          -2.164  13.280  22.753  0.00  0.00     0.037 H 
ATOM     30  H18 Y5H d          -0.375  13.373  22.625  0.00  0.00     0.037 H 
BRANCH  28  31
ATOM     31  C23 Y5H d          -1.111  11.579  23.635  0.00  0.00     0.086 C 
ATOM     32  H19 Y5H d          -0.332  11.868  24.356  0.00  0.00     0.076 H 
ATOM     33  H20 Y5H d          -0.809  10.655  23.119  0.00  0.00     0.076 H 
BRANCH  31  34
ATOM     34  N29 Y5H d          -2.390  11.301  24.401  0.00  0.00    -0.079 N 
BRANCH  34  35
ATOM     35  C32 Y5H d          -2.082  10.513  25.642  0.00  0.00     0.067 C 
ATOM     36  H21 Y5H d          -1.796  11.201  26.452  0.00  0.00     0.068 H 
ATOM     37  H22 Y5H d          -1.253   9.819  25.440  0.00  0.00     0.068 H 
ATOM     38  H23 Y5H d          -2.973   9.943  25.944  0.00  0.00     0.068 H 
ENDBRANCH  34  35
BRANCH  34  39
ATOM     39  C31 Y5H d          -3.226  10.412  23.509  0.00  0.00     0.067 C 
ATOM     40  H24 Y5H d          -3.149   9.371  23.854  0.00  0.00     0.068 H 
ATOM     41  H25 Y5H d          -2.860  10.483  22.474  0.00  0.00     0.068 H 
ATOM     42  H26 Y5H d          -4.276  10.736  23.549  0.00  0.00     0.068 H 
ENDBRANCH  34  39
BRANCH  34  43
ATOM     43  C30 Y5H d          -3.134  12.540  24.768  0.00  0.00     0.067 C 
ATOM     44  H27 Y5H d          -2.535  13.131  25.477  0.00  0.00     0.068 H 
ATOM     45  H28 Y5H d          -4.091  12.268  25.235  0.00  0.00     0.068 H 
ATOM     46  H29 Y5H d          -3.323  13.136  23.864  0.00  0.00     0.068 H 
ENDBRANCH  34  43
ENDBRANCH  31  34
ENDBRANCH  28  31
ENDBRANCH  25  28
ENDBRANCH  13  25
BRANCH   1  47
ATOM     47  C4  Y5H d          -5.028  11.928  17.763  0.00  0.00     0.091 A 
ATOM     48  N16 Y5H d          -4.570  10.634  17.661  0.00  0.00    -0.224 NA
ATOM     49  C17 Y5H d          -5.607   9.893  17.994  0.00  0.00     0.186 A 
ATOM     50  O10 Y5H d          -6.748  10.595  18.206  0.00  0.00    -0.301 OA
ATOM     51  C9  Y5H d          -6.325  11.909  18.082  0.00  0.00     0.047 A 
ATOM     52  H3  Y5H d          -6.951  12.788  18.223  0.00  0.00     0.126 H 
BRANCH  49  53
ATOM     53  C20 Y5H d          -5.723   8.443  17.932  0.00  0.00     0.059 A 
ATOM     54  C22 Y5H d          -5.004   7.506  18.664  0.00  0.00    -0.060 A 
ATOM     55  C24 Y5H d          -5.456   6.179  18.475  0.00  0.00    -0.054 A 
ATOM     56  H2  Y5H d          -4.175   7.767  19.319  0.00  0.00     0.085 H 
ATOM     57  C25 Y5H d          -6.554   6.149  17.655  0.00  0.00     0.075 A 
ATOM     58  H1  Y5H d          -4.993   5.300  18.920  0.00  0.00     0.086 H 
ATOM     59 CL1  Y5H d          -7.489   4.750  17.172  0.00  0.00    -0.076 Cl
ATOM     60  S1  Y5H d          -6.998   7.706  17.015  0.00  0.00    -0.074 SA
ENDBRANCH  49  53
ENDBRANCH   1  47
TORSDOF 9
ENDMDL
MODEL 4
REMARK VINA RESULT:      -6.8      3.895      7.000
REMARK  9 active torsions:
REMARK  status: ('A' for Active; 'I' for Inactive)
REMARK    1  A    between atoms: C20_6  and  C17_7 
REMARK    2  A    between atoms: C4_11  and  C1_12 
REMARK    3  A    between atoms: N12_24  and  C19_25 
REMARK    4  A    between atoms: C19_25  and  C21_26 
REMARK    5  A    between atoms: C21_26  and  C23_27 
REMARK    6  A    between atoms: C23_27  and  N29_28 
REMARK    7  A    between atoms: N29_28  and  C32_29 
REMARK    8  A    between atoms: N29_28  and  C31_30 
REMARK    9  A    between atoms: N29_28  and  C30_31 
ROOT
ATOM      1  C1  Y5H d          -2.792  10.419  22.565  0.00  0.00     0.160 C 
ATOM      2  N3  Y5H d          -2.799  11.499  23.586  0.00  0.00    -0.055 N 
ATOM      3  C7  Y5H d          -1.368  11.720  23.854  0.00  0.00     0.117 C 
ATOM      4  C14 Y5H d          -0.961  10.594  24.820  0.00  0.00    -0.036 C 
ATOM      5  C15 Y5H d          -2.255  10.313  25.602  0.00  0.00    -0.040 C 
ATOM      6  C8  Y5H d          -3.384  11.076  24.884  0.00  0.00     0.085 C 
ATOM      7  C5  Y5H d          -0.661  11.675  22.503  0.00  0.00     0.066 A 
ATOM      8  C2  Y5H d          -1.643  10.877  21.604  0.00  0.00     0.071 A 
ATOM      9  C6  Y5H d          -2.018  11.894  20.535  0.00  0.00     0.234 A 
ATOM     10  O13 Y5H d          -2.744  11.737  19.568  0.00  0.00    -0.272 OA
ATOM     11  C11 Y5H d          -0.565  13.052  21.897  0.00  0.00     0.233 A 
ATOM     12  O18 Y5H d           0.116  14.015  22.251  0.00  0.00    -0.272 OA
ATOM     13  N12 Y5H d          -1.427  13.143  20.787  0.00  0.00    -0.288 N 
ATOM     14  H4  Y5H d          -2.555   9.451  23.030  0.00  0.00     0.096 H 
ATOM     15  H5  Y5H d          -3.263  12.324  23.239  0.00  0.00     0.281 HD
ATOM     16  H6  Y5H d          -1.194  12.698  24.327  0.00  0.00     0.086 H 
ATOM     17  H7  Y5H d          -0.157  10.924  25.494  0.00  0.00     0.036 H 
ATOM     18  H8  Y5H d          -0.633   9.700  24.268  0.00  0.00     0.036 H 
ATOM     19  H9  Y5H d          -2.156  10.669  26.638  0.00  0.00     0.035 H 
ATOM     20  H10 Y5H d          -2.469   9.234  25.604  0.00  0.00     0.035 H 
ATOM     21  H11 Y5H d          -4.251  10.421  24.722  0.00  0.00     0.076 H 
ATOM     22  H12 Y5H d          -3.692  11.953  25.473  0.00  0.00     0.076 H 
ATOM     23  H13 Y5H d           0.329  11.202  22.577  0.00  0.00     0.059 H 
ATOM     24  H14 Y5H d          -1.172   9.996  21.142  0.00  0.00     0.059 H 
ENDROOT
BRANCH  13  25
ATOM     25  C19 Y5H d          -1.614  14.324  19.929  0.00  0.00     0.007 C 
ATOM     26  H15 Y5H d          -1.467  15.234  20.529  0.00  0.00     0.065 H 
ATOM     27  H16 Y5H d          -2.634  14.315  19.519  0.00  0.00     0.065 H 
BRANCH  25  28
ATOM     28  C21 Y5H d          -0.604  14.312  18.772  0.00  0.00    -0.027 C 
ATOM     29  H17 Y5H d          -0.358  13.280  18.481  0.00  0.00     0.037 H 
ATOM     30  H18 Y5H d           0.317  14.843  19.055  0.00  0.00     0.037 H 
BRANCH  28  31
ATOM     31  C23 Y5H d          -1.324  15.044  17.623  0.00  0.00     0.086 C 
ATOM     32  H19 Y5H d          -0.787  15.983  17.421  0.00  0.00     0.076 H 
ATOM     33  H20 Y5H d          -2.351  15.271  17.945  0.00  0.00     0.076 H 
BRANCH  31  34
ATOM     34  N29 Y5H d          -1.392  14.246  16.336  0.00  0.00    -0.079 N 
BRANCH  34  35
ATOM     35  C32 Y5H d          -2.638  13.407  16.320  0.00  0.00     0.067 C 
ATOM     36  H21 Y5H d          -3.206  13.576  17.246  0.00  0.00     0.068 H 
ATOM     37  H22 Y5H d          -2.363  12.344  16.247  0.00  0.00     0.068 H 
ATOM     38  H23 Y5H d          -3.257  13.686  15.454  0.00  0.00     0.068 H 
ENDBRANCH  34  35
BRANCH  34  39
ATOM     39  C31 Y5H d          -0.219  13.294  16.372  0.00  0.00     0.067 C 
ATOM     40  H24 Y5H d          -0.570  12.291  16.655  0.00  0.00     0.068 H 
ATOM     41  H25 Y5H d           0.517  13.647  17.110  0.00  0.00     0.068 H 
ATOM     42  H26 Y5H d           0.250  13.252  15.379  0.00  0.00     0.068 H 
ENDBRANCH  34  39
BRANCH  34  43
ATOM     43  C30 Y5H d          -1.350  15.099  15.114  0.00  0.00     0.067 C 
ATOM     44  H27 Y5H d          -2.261  15.714  15.064  0.00  0.00     0.068 H 
ATOM     45  H28 Y5H d          -1.290  14.459  14.222  0.00  0.00     0.068 H 
ATOM     46  H29 Y5H d          -0.467  15.755  15.155  0.00  0.00     0.068 H 
ENDBRANCH  34  43
ENDBRANCH  31  34
ENDBRANCH  28  31
ENDBRANCH  25  28
ENDBRANCH  13  25
BRANCH   1  47
ATOM     47  C4  Y5H d          -4.095  10.292  21.818  0.00  0.00     0.091 A 
ATOM     48  N16 Y5H d          -4.356   9.299  20.901  0.00  0.00    -0.224 NA
ATOM     49  C17 Y5H d          -5.595   9.528  20.514  0.00  0.00     0.186 A 
ATOM     50  O10 Y5H d          -6.137  10.661  21.027  0.00  0.00    -0.301 OA
ATOM     51  C9  Y5H d          -5.150  11.107  21.892  0.00  0.00     0.047 A 
ATOM     52  H3  Y5H d          -5.224  11.985  22.533  0.00  0.00     0.126 H 
BRANCH  49  53
ATOM     53  C20 Y5H d          -6.336   8.860  19.455  0.00  0.00     0.059 A 
ATOM     54  C22 Y5H d          -7.334   7.902  19.598  0.00  0.00    -0.060 A 
ATOM     55  C24 Y5H d          -7.957   7.554  18.377  0.00  0.00    -0.054 A 
ATOM     56  H2  Y5H d          -7.608   7.462  20.555  0.00  0.00     0.085 H 
ATOM     57  C25 Y5H d          -7.464   8.309  17.344  0.00  0.00     0.075 A 
ATOM     58  H1  Y5H d          -8.725   6.790  18.271  0.00  0.00     0.086 H 
ATOM     59 CL1  Y5H d          -7.957   8.275  15.665  0.00  0.00    -0.076 Cl
ATOM     60  S1  Y5H d          -6.169   9.376  17.807  0.00  0.00    -0.074 SA
ENDBRANCH  49  53
ENDBRANCH   1  47
TORSDOF 9
ENDMDL
MODEL 5
REMARK VINA RESULT:      -6.7      4.040      6.893
REMARK  9 active torsions:
REMARK  status: ('A' for Active; 'I' for Inactive)
REMARK    1  A    between atoms: C20_6  and  C17_7 
REMARK    2  A    between atoms: C4_11  and  C1_12 
REMARK    3  A    between atoms: N12_24  and  C19_25 
REMARK    4  A    between atoms: C19_25  and  C21_26 
REMARK    5  A    between atoms: C21_26  and  C23_27 
REMARK    6  A    between atoms: C23_27  and  N29_28 
REMARK    7  A    between atoms: N29_28  and  C32_29 
REMARK    8  A    between atoms: N29_28  and  C31_30 
REMARK    9  A    between atoms: N29_28  and  C30_31 
ROOT
ATOM      1  C1  Y5H d          -4.293  11.618  22.621  0.00  0.00     0.160 C 
ATOM      2  N3  Y5H d          -4.525  13.082  22.742  0.00  0.00    -0.055 N 
ATOM      3  C7  Y5H d          -3.446  13.520  23.645  0.00  0.00     0.117 C 
ATOM      4  C14 Y5H d          -3.938  13.166  25.060  0.00  0.00    -0.036 C 
ATOM      5  C15 Y5H d          -5.467  13.279  24.942  0.00  0.00    -0.040 C 
ATOM      6  C8  Y5H d          -5.789  13.421  23.442  0.00  0.00     0.085 C 
ATOM      7  C5  Y5H d          -2.188  12.775  23.214  0.00  0.00     0.066 A 
ATOM      8  C2  Y5H d          -2.738  11.540  22.452  0.00  0.00     0.071 A 
ATOM      9  C6  Y5H d          -2.198  11.748  21.044  0.00  0.00     0.234 A 
ATOM     10  O13 Y5H d          -2.325  11.021  20.073  0.00  0.00    -0.272 OA
ATOM     11  C11 Y5H d          -1.407  13.575  22.203  0.00  0.00     0.233 A 
ATOM     12  O18 Y5H d          -0.769  14.617  22.356  0.00  0.00    -0.272 OA
ATOM     13  N12 Y5H d          -1.499  12.962  20.938  0.00  0.00    -0.288 N 
ATOM     14  H4  Y5H d          -4.617  11.101  23.536  0.00  0.00     0.096 H 
ATOM     15  H5  Y5H d          -4.485  13.532  21.841  0.00  0.00     0.281 HD
ATOM     16  H6  Y5H d          -3.276  14.604  23.570  0.00  0.00     0.086 H 
ATOM     17  H7  Y5H d          -3.547  13.877  25.802  0.00  0.00     0.036 H 
ATOM     18  H8  Y5H d          -3.639  12.144  25.337  0.00  0.00     0.036 H 
ATOM     19  H9  Y5H d          -5.825  14.162  25.491  0.00  0.00     0.035 H 
ATOM     20  H10 Y5H d          -5.946  12.376  25.349  0.00  0.00     0.035 H 
ATOM     21  H11 Y5H d          -6.590  12.725  23.151  0.00  0.00     0.076 H 
ATOM     22  H12 Y5H d          -6.096  14.451  23.208  0.00  0.00     0.076 H 
ATOM     23  H13 Y5H d          -1.561  12.500  24.075  0.00  0.00     0.059 H 
ATOM     24  H14 Y5H d          -2.367  10.589  22.864  0.00  0.00     0.059 H 
ENDROOT
BRANCH  13  25
ATOM     25  C19 Y5H d          -0.870  13.438  19.696  0.00  0.00     0.007 C 
ATOM     26  H15 Y5H d          -0.617  12.573  19.064  0.00  0.00     0.065 H 
ATOM     27  H16 Y5H d           0.047  13.992  19.944  0.00  0.00     0.065 H 
BRANCH  25  28
ATOM     28  C21 Y5H d          -1.827  14.361  18.929  0.00  0.00    -0.027 C 
ATOM     29  H17 Y5H d          -1.394  15.366  18.820  0.00  0.00     0.037 H 
ATOM     30  H18 Y5H d          -2.795  14.434  19.447  0.00  0.00     0.037 H 
BRANCH  28  31
ATOM     31  C23 Y5H d          -1.995  13.689  17.553  0.00  0.00     0.086 C 
ATOM     32  H19 Y5H d          -3.057  13.741  17.269  0.00  0.00     0.076 H 
ATOM     33  H20 Y5H d          -1.691  12.636  17.642  0.00  0.00     0.076 H 
BRANCH  31  34
ATOM     34  N29 Y5H d          -1.175  14.332  16.453  0.00  0.00    -0.079 N 
BRANCH  34  35
ATOM     35  C32 Y5H d          -2.014  14.498  15.218  0.00  0.00     0.067 C 
ATOM     36  H21 Y5H d          -1.753  15.444  14.720  0.00  0.00     0.068 H 
ATOM     37  H22 Y5H d          -3.079  14.513  15.497  0.00  0.00     0.068 H 
ATOM     38  H23 Y5H d          -1.827  13.659  14.532  0.00  0.00     0.068 H 
ENDBRANCH  34  35
BRANCH  34  39
ATOM     39  C31 Y5H d          -0.083  13.344  16.114  0.00  0.00     0.067 C 
ATOM     40  H24 Y5H d           0.720  13.415  16.863  0.00  0.00     0.068 H 
ATOM     41  H25 Y5H d           0.324  13.573  15.119  0.00  0.00     0.068 H 
ATOM     42  H26 Y5H d          -0.497  12.325  16.115  0.00  0.00     0.068 H 
ENDBRANCH  34  39
BRANCH  34  43
ATOM     43  C30 Y5H d          -0.599  15.651  16.845  0.00  0.00     0.067 C 
ATOM     44  H27 Y5H d          -0.656  16.344  15.992  0.00  0.00     0.068 H 
ATOM     45  H28 Y5H d           0.452  15.519  17.140  0.00  0.00     0.068 H 
ATOM     46  H29 Y5H d          -1.169  16.063  17.690  0.00  0.00     0.068 H 
ENDBRANCH  34  43
ENDBRANCH  31  34
ENDBRANCH  28  31
ENDBRANCH  25  28
ENDBRANCH  13  25
BRANCH   1  47
ATOM     47  C4  Y5H d          -4.992  10.997  21.438  0.00  0.00     0.091 A 
ATOM     48  N16 Y5H d          -4.894   9.665  21.107  0.00  0.00    -0.224 NA
ATOM     49  C17 Y5H d          -5.669   9.533  20.049  0.00  0.00     0.186 A 
ATOM     50  O10 Y5H d          -6.189  10.700  19.591  0.00  0.00    -0.301 OA
ATOM     51  C9  Y5H d          -5.757  11.617  20.537  0.00  0.00     0.047 A 
ATOM     52  H3  Y5H d          -6.004  12.678  20.543  0.00  0.00     0.126 H 
BRANCH  49  53
ATOM     53  C20 Y5H d          -5.834   8.359  19.205  0.00  0.00     0.059 A 
ATOM     54  C22 Y5H d          -4.899   7.362  18.953  0.00  0.00    -0.060 A 
ATOM     55  C24 Y5H d          -5.418   6.281  18.203  0.00  0.00    -0.054 A 
ATOM     56  H2  Y5H d          -3.867   7.408  19.298  0.00  0.00     0.085 H 
ATOM     57  C25 Y5H d          -6.757   6.452  17.964  0.00  0.00     0.075 A 
ATOM     58  H1  Y5H d          -4.833   5.429  17.862  0.00  0.00     0.086 H 
ATOM     59 CL1  Y5H d          -7.840   5.363  17.124  0.00  0.00    -0.076 Cl
ATOM     60  S1  Y5H d          -7.389   7.965  18.546  0.00  0.00    -0.074 SA
ENDBRANCH  49  53
ENDBRANCH   1  47
TORSDOF 9
ENDMDL
MODEL 6
REMARK VINA RESULT:      -6.2      2.259      5.782
REMARK  9 active torsions:
REMARK  status: ('A' for Active; 'I' for Inactive)
REMARK    1  A    between atoms: C20_6  and  C17_7 
REMARK    2  A    between atoms: C4_11  and  C1_12 
REMARK    3  A    between atoms: N12_24  and  C19_25 
REMARK    4  A    between atoms: C19_25  and  C21_26 
REMARK    5  A    between atoms: C21_26  and  C23_27 
REMARK    6  A    between atoms: C23_27  and  N29_28 
REMARK    7  A    between atoms: N29_28  and  C32_29 
REMARK    8  A    between atoms: N29_28  and  C31_30 
REMARK    9  A    between atoms: N29_28  and  C30_31 
ROOT
ATOM      1  C1  Y5H d          -5.650  10.950  19.345  0.00  0.00     0.160 C 
ATOM      2  N3  Y5H d          -4.677  10.025  18.706  0.00  0.00    -0.055 N 
ATOM      3  C7  Y5H d          -4.941  10.199  17.267  0.00  0.00     0.117 C 
ATOM      4  C14 Y5H d          -6.185   9.339  16.981  0.00  0.00    -0.036 C 
ATOM      5  C15 Y5H d          -6.073   8.200  18.009  0.00  0.00    -0.040 C 
ATOM      6  C8  Y5H d          -4.953   8.594  18.990  0.00  0.00     0.085 C 
ATOM      7  C5  Y5H d          -5.145  11.693  17.039  0.00  0.00     0.066 A 
ATOM      8  C2  Y5H d          -5.539  12.226  18.443  0.00  0.00     0.071 A 
ATOM      9  C6  Y5H d          -4.404  13.187  18.765  0.00  0.00     0.234 A 
ATOM     10  O13 Y5H d          -4.270  13.892  19.751  0.00  0.00    -0.272 OA
ATOM     11  C11 Y5H d          -3.844  12.367  16.687  0.00  0.00     0.233 A 
ATOM     12  O18 Y5H d          -3.170  12.275  15.660  0.00  0.00    -0.272 OA
ATOM     13  N12 Y5H d          -3.426  13.181  17.757  0.00  0.00    -0.288 N 
ATOM     14  H4  Y5H d          -6.664  10.527  19.306  0.00  0.00     0.096 H 
ATOM     15  H5  Y5H d          -3.730  10.262  18.959  0.00  0.00     0.281 HD
ATOM     16  H6  Y5H d          -4.096   9.845  16.658  0.00  0.00     0.086 H 
ATOM     17  H7  Y5H d          -6.165   8.946  15.954  0.00  0.00     0.036 H 
ATOM     18  H8  Y5H d          -7.108   9.918  17.134  0.00  0.00     0.036 H 
ATOM     19  H9  Y5H d          -5.820   7.257  17.503  0.00  0.00     0.035 H 
ATOM     20  H10 Y5H d          -7.025   8.083  18.548  0.00  0.00     0.035 H 
ATOM     21  H11 Y5H d          -5.286   8.464  20.029  0.00  0.00     0.076 H 
ATOM     22  H12 Y5H d          -4.054   7.985  18.814  0.00  0.00     0.076 H 
ATOM     23  H13 Y5H d          -5.914  11.887  16.278  0.00  0.00     0.059 H 
ATOM     24  H14 Y5H d          -6.500  12.761  18.437  0.00  0.00     0.059 H 
ENDROOT
BRANCH  13  25
ATOM     25  C19 Y5H d          -2.206  14.004  17.796  0.00  0.00     0.007 C 
ATOM     26  H15 Y5H d          -2.467  15.022  18.122  0.00  0.00     0.065 H 
ATOM     27  H16 Y5H d          -1.765  14.044  16.789  0.00  0.00     0.065 H 
BRANCH  25  28
ATOM     28  C21 Y5H d          -1.185  13.406  18.773  0.00  0.00    -0.027 C 
ATOM     29  H17 Y5H d          -0.297  13.043  18.234  0.00  0.00     0.037 H 
ATOM     30  H18 Y5H d          -1.632  12.578  19.343  0.00  0.00     0.037 H 
BRANCH  28  31
ATOM     31  C23 Y5H d          -0.814  14.573  19.709  0.00  0.00     0.086 C 
ATOM     32  H19 Y5H d          -1.598  15.341  19.632  0.00  0.00     0.076 H 
ATOM     33  H20 Y5H d           0.145  14.994  19.374  0.00  0.00     0.076 H 
BRANCH  31  34
ATOM     34  N29 Y5H d          -0.678  14.172  21.164  0.00  0.00    -0.079 N 
BRANCH  34  35
ATOM     35  C32 Y5H d           0.285  15.091  21.860  0.00  0.00     0.067 C 
ATOM     36  H21 Y5H d           0.492  15.960  21.219  0.00  0.00     0.068 H 
ATOM     37  H22 Y5H d           1.224  14.554  22.063  0.00  0.00     0.068 H 
ATOM     38  H23 Y5H d          -0.155  15.432  22.809  0.00  0.00     0.068 H 
ENDBRANCH  34  35
BRANCH  34  39
ATOM     39  C31 Y5H d          -0.052  12.796  21.161  0.00  0.00     0.067 C 
ATOM     40  H24 Y5H d          -0.410  12.233  20.287  0.00  0.00     0.068 H 
ATOM     41  H25 Y5H d          -0.334  12.263  22.081  0.00  0.00     0.068 H 
ATOM     42  H26 Y5H d           1.042  12.892  21.114  0.00  0.00     0.068 H 
ENDBRANCH  34  39
BRANCH  34  43
ATOM     43  C30 Y5H d          -1.978  14.166  21.895  0.00  0.00     0.067 C 
ATOM     44  H27 Y5H d          -2.775  14.526  21.228  0.00  0.00     0.068 H 
ATOM     45  H28 Y5H d          -1.908  14.825  22.772  0.00  0.00     0.068 H 
ATOM     46  H29 Y5H d          -2.209  13.142  22.223  0.00  0.00     0.068 H 
ENDBRANCH  34  43
ENDBRANCH  31  34
ENDBRANCH  28  31
ENDBRANCH  25  28
ENDBRANCH  13  25
BRANCH   1  47
ATOM     47  C4  Y5H d          -5.314  11.277  20.777  0.00  0.00     0.091 A 
ATOM     48  N16 Y5H d          -4.154  10.875  21.401  0.00  0.00    -0.224 NA
ATOM     49  C17 Y5H d          -4.239  11.388  22.612  0.00  0.00     0.186 A 
ATOM     50  O10 Y5H d          -5.417  12.011  22.871  0.00  0.00    -0.301 OA
ATOM     51  C9  Y5H d          -6.069  11.948  21.650  0.00  0.00     0.047 A 
ATOM     52  H3  Y5H d          -7.046  12.380  21.435  0.00  0.00     0.126 H 
BRANCH  49  53
ATOM     53  C20 Y5H d          -3.345  11.167  23.738  0.00  0.00     0.059 A 
ATOM     54  C22 Y5H d          -3.618  11.373  25.086  0.00  0.00    -0.060 A 
ATOM     55  C24 Y5H d          -2.585  10.926  25.942  0.00  0.00    -0.054 A 
ATOM     56  H2  Y5H d          -4.536  11.834  25.447  0.00  0.00     0.085 H 
ATOM     57  C25 Y5H d          -1.581  10.327  25.226  0.00  0.00     0.075 A 
ATOM     58  H1  Y5H d          -2.587  11.043  27.025  0.00  0.00     0.086 H 
ATOM     59 CL1  Y5H d          -0.125   9.580  25.847  0.00  0.00    -0.076 Cl
ATOM     60  S1  Y5H d          -1.815  10.385  23.503  0.00  0.00    -0.074 SA
ENDBRANCH  49  53
ENDBRANCH   1  47
TORSDOF 9
ENDMDL
MODEL 7
REMARK VINA RESULT:      -6.0      3.862      7.003
REMARK  9 active torsions:
REMARK  status: ('A' for Active; 'I' for Inactive)
REMARK    1  A    between atoms: C20_6  and  C17_7 
REMARK    2  A    between atoms: C4_11  and  C1_12 
REMARK    3  A    between atoms: N12_24  and  C19_25 
REMARK    4  A    between atoms: C19_25  and  C21_26 
REMARK    5  A    between atoms: C21_26  and  C23_27 
REMARK    6  A    between atoms: C23_27  and  N29_28 
REMARK    7  A    between atoms: N29_28  and  C32_29 
REMARK    8  A    between atoms: N29_28  and  C31_30 
REMARK    9  A    between atoms: N29_28  and  C30_31 
ROOT
ATOM      1  C1  Y5H d          -2.854  14.515  17.551  0.00  0.00     0.160 C 
ATOM      2  N3  Y5H d          -1.453  14.056  17.752  0.00  0.00    -0.055 N 
ATOM      3  C7  Y5H d          -0.732  15.302  18.064  0.00  0.00     0.117 C 
ATOM      4  C14 Y5H d          -0.483  15.974  16.702  0.00  0.00    -0.036 C 
ATOM      5  C15 Y5H d          -0.373  14.784  15.734  0.00  0.00    -0.040 C 
ATOM      6  C8  Y5H d          -0.823  13.533  16.513  0.00  0.00     0.085 C 
ATOM      7  C5  Y5H d          -1.630  16.101  19.003  0.00  0.00     0.066 A 
ATOM      8  C2  Y5H d          -3.046  15.526  18.731  0.00  0.00     0.071 A 
ATOM      9  C6  Y5H d          -3.428  14.930  20.079  0.00  0.00     0.234 A 
ATOM     10  O13 Y5H d          -4.473  14.387  20.394  0.00  0.00    -0.272 OA
ATOM     11  C11 Y5H d          -1.320  15.786  20.444  0.00  0.00     0.233 A 
ATOM     12  O18 Y5H d          -0.324  16.072  21.109  0.00  0.00    -0.272 OA
ATOM     13  N12 Y5H d          -2.379  15.046  21.006  0.00  0.00    -0.288 N 
ATOM     14  H4  Y5H d          -2.957  15.019  16.579  0.00  0.00     0.096 H 
ATOM     15  H5  Y5H d          -1.397  13.377  18.494  0.00  0.00     0.281 HD
ATOM     16  H6  Y5H d           0.228  15.097  18.559  0.00  0.00     0.086 H 
ATOM     17  H7  Y5H d           0.449  16.558  16.715  0.00  0.00     0.036 H 
ATOM     18  H8  Y5H d          -1.323  16.629  16.426  0.00  0.00     0.036 H 
ATOM     19  H9  Y5H d           0.667  14.666  15.396  0.00  0.00     0.035 H 
ATOM     20  H10 Y5H d          -1.026  14.943  14.863  0.00  0.00     0.035 H 
ATOM     21  H11 Y5H d          -1.549  12.953  15.926  0.00  0.00     0.076 H 
ATOM     22  H12 Y5H d           0.041  12.899  16.758  0.00  0.00     0.076 H 
ATOM     23  H13 Y5H d          -1.564  17.182  18.808  0.00  0.00     0.059 H 
ATOM     24  H14 Y5H d          -3.769  16.303  18.441  0.00  0.00     0.059 H 
ENDROOT
BRANCH  13  25
ATOM     25  C19 Y5H d          -2.453  14.553  22.391  0.00  0.00     0.007 C 
ATOM     26  H15 Y5H d          -3.473  14.194  22.593  0.00  0.00     0.065 H 
ATOM     27  H16 Y5H d          -2.208  15.374  23.080  0.00  0.00     0.065 H 
BRANCH  25  28
ATOM     28  C21 Y5H d          -1.460  13.401  22.604  0.00  0.00    -0.027 C 
ATOM     29  H17 Y5H d          -0.591  13.740  23.187  0.00  0.00     0.037 H 
ATOM     30  H18 Y5H d          -1.120  12.997  21.640  0.00  0.00     0.037 H 
BRANCH  28  31
ATOM     31  C23 Y5H d          -2.260  12.341  23.387  0.00  0.00     0.086 C 
ATOM     32  H19 Y5H d          -3.326  12.464  23.145  0.00  0.00     0.076 H 
ATOM     33  H20 Y5H d          -2.105  12.514  24.462  0.00  0.00     0.076 H 
BRANCH  31  34
ATOM     34  N29 Y5H d          -1.859  10.914  23.070  0.00  0.00    -0.079 N 
BRANCH  34  35
ATOM     35  C32 Y5H d          -0.927  10.894  21.892  0.00  0.00     0.067 C 
ATOM     36  H21 Y5H d          -0.334   9.968  21.909  0.00  0.00     0.068 H 
ATOM     37  H22 Y5H d          -0.253  11.762  21.942  0.00  0.00     0.068 H 
ATOM     38  H23 Y5H d          -1.512  10.937  20.961  0.00  0.00     0.068 H 
ENDBRANCH  34  35
BRANCH  34  39
ATOM     39  C31 Y5H d          -3.126  10.210  22.643  0.00  0.00     0.067 C 
ATOM     40  H24 Y5H d          -3.049   9.928  21.583  0.00  0.00     0.068 H 
ATOM     41  H25 Y5H d          -3.985  10.883  22.782  0.00  0.00     0.068 H 
ATOM     42  H26 Y5H d          -3.267   9.306  23.253  0.00  0.00     0.068 H 
ENDBRANCH  34  39
BRANCH  34  43
ATOM     43  C30 Y5H d          -1.221  10.214  24.222  0.00  0.00     0.067 C 
ATOM     44  H27 Y5H d          -1.691  10.548  25.159  0.00  0.00     0.068 H 
ATOM     45  H28 Y5H d          -0.148  10.451  24.246  0.00  0.00     0.068 H 
ATOM     46  H29 Y5H d          -1.355   9.128  24.111  0.00  0.00     0.068 H 
ENDBRANCH  34  43
ENDBRANCH  31  34
ENDBRANCH  28  31
ENDBRANCH  25  28
ENDBRANCH  13  25
BRANCH   1  47
ATOM     47  C4  Y5H d          -3.866  13.401  17.630  0.00  0.00     0.091 A 
ATOM     48  N16 Y5H d          -3.569  12.128  18.062  0.00  0.00    -0.224 NA
ATOM     49  C17 Y5H d          -4.719  11.488  18.009  0.00  0.00     0.186 A 
ATOM     50  O10 Y5H d          -5.735  12.212  17.474  0.00  0.00    -0.301 OA
ATOM     51  C9  Y5H d          -5.152  13.453  17.275  0.00  0.00     0.047 A 
ATOM     52  H3  Y5H d          -5.663  14.334  16.890  0.00  0.00     0.126 H 
BRANCH  49  53
ATOM     53  C20 Y5H d          -4.962  10.070  18.230  0.00  0.00     0.059 A 
ATOM     54  C22 Y5H d          -4.802   9.360  19.415  0.00  0.00    -0.060 A 
ATOM     55  C24 Y5H d          -5.260   8.025  19.335  0.00  0.00    -0.054 A 
ATOM     56  H2  Y5H d          -4.367   9.791  20.315  0.00  0.00     0.085 H 
ATOM     57  C25 Y5H d          -5.821   7.772  18.110  0.00  0.00     0.075 A 
ATOM     58  H1  Y5H d          -5.177   7.295  20.139  0.00  0.00     0.086 H 
ATOM     59 CL1  Y5H d          -6.564   6.286  17.560  0.00  0.00    -0.076 Cl
ATOM     60  S1  Y5H d          -5.713   9.107  16.998  0.00  0.00    -0.074 SA
ENDBRANCH  49  53
ENDBRANCH   1  47
TORSDOF 9
ENDMDL
MODEL 8
REMARK VINA RESULT:      -5.9      3.695      6.771
REMARK  9 active torsions:
REMARK  status: ('A' for Active; 'I' for Inactive)
REMARK    1  A    between atoms: C20_6  and  C17_7 
REMARK    2  A    between atoms: C4_11  and  C1_12 
REMARK    3  A    between atoms: N12_24  and  C19_25 
REMARK    4  A    between atoms: C19_25  and  C21_26 
REMARK    5  A    between atoms: C21_26  and  C23_27 
REMARK    6  A    between atoms: C23_27  and  N29_28 
REMARK    7  A    between atoms: N29_28  and  C32_29 
REMARK    8  A    between atoms: N29_28  and  C31_30 
REMARK    9  A    between atoms: N29_28  and  C30_31 
ROOT
ATOM      1  C1  Y5H d          -6.700   8.686  19.294  0.00  0.00     0.160 C 
ATOM      2  N3  Y5H d          -5.907   8.063  18.202  0.00  0.00    -0.055 N 
ATOM      3  C7  Y5H d          -6.936   7.632  17.241  0.00  0.00     0.117 C 
ATOM      4  C14 Y5H d          -7.487   6.311  17.807  0.00  0.00    -0.036 C 
ATOM      5  C15 Y5H d          -6.282   5.718  18.557  0.00  0.00    -0.040 C 
ATOM      6  C8  Y5H d          -5.208   6.821  18.618  0.00  0.00     0.085 C 
ATOM      7  C5  Y5H d          -7.962   8.758  17.167  0.00  0.00     0.066 A 
ATOM      8  C2  Y5H d          -7.758   9.525  18.501  0.00  0.00     0.071 A 
ATOM      9  C6  Y5H d          -7.315  10.903  18.030  0.00  0.00     0.234 A 
ATOM     10  O13 Y5H d          -7.065  11.886  18.706  0.00  0.00    -0.272 OA
ATOM     11  C11 Y5H d          -7.616   9.731  16.069  0.00  0.00     0.233 A 
ATOM     12  O18 Y5H d          -7.658   9.578  14.848  0.00  0.00    -0.272 OA
ATOM     13  N12 Y5H d          -7.185  10.948  16.632  0.00  0.00    -0.288 N 
ATOM     14  H4  Y5H d          -7.188   7.911  19.904  0.00  0.00     0.096 H 
ATOM     15  H5  Y5H d          -5.255   8.722  17.805  0.00  0.00     0.281 HD
ATOM     16  H6  Y5H d          -6.507   7.459  16.243  0.00  0.00     0.086 H 
ATOM     17  H7  Y5H d          -7.814   5.642  16.998  0.00  0.00     0.036 H 
ATOM     18  H8  Y5H d          -8.326   6.496  18.494  0.00  0.00     0.036 H 
ATOM     19  H9  Y5H d          -5.894   4.841  18.018  0.00  0.00     0.035 H 
ATOM     20  H10 Y5H d          -6.579   5.422  19.574  0.00  0.00     0.035 H 
ATOM     21  H11 Y5H d          -4.815   6.922  19.640  0.00  0.00     0.076 H 
ATOM     22  H12 Y5H d          -4.381   6.593  17.929  0.00  0.00     0.076 H 
ATOM     23  H13 Y5H d          -8.984   8.371  17.050  0.00  0.00     0.059 H 
ATOM     24  H14 Y5H d          -8.686   9.605  19.088  0.00  0.00     0.059 H 
ENDROOT
BRANCH  13  25
ATOM     25  C19 Y5H d          -6.764  12.147  15.889  0.00  0.00     0.007 C 
ATOM     26  H15 Y5H d          -7.100  13.044  16.429  0.00  0.00     0.065 H 
ATOM     27  H16 Y5H d          -7.219  12.129  14.887  0.00  0.00     0.065 H 
BRANCH  25  28
ATOM     28  C21 Y5H d          -5.236  12.183  15.750  0.00  0.00    -0.027 C 
ATOM     29  H17 Y5H d          -4.919  11.708  14.810  0.00  0.00     0.037 H 
ATOM     30  H18 Y5H d          -4.756  11.673  16.598  0.00  0.00     0.037 H 
BRANCH  28  31
ATOM     31  C23 Y5H d          -4.882  13.683  15.746  0.00  0.00     0.086 C 
ATOM     32  H19 Y5H d          -5.799  14.254  15.535  0.00  0.00     0.076 H 
ATOM     33  H20 Y5H d          -4.146  13.864  14.949  0.00  0.00     0.076 H 
BRANCH  31  34
ATOM     34  N29 Y5H d          -4.302  14.179  17.056  0.00  0.00    -0.079 N 
BRANCH  34  35
ATOM     35  C32 Y5H d          -3.077  15.008  16.791  0.00  0.00     0.067 C 
ATOM     36  H21 Y5H d          -2.231  14.347  16.549  0.00  0.00     0.068 H 
ATOM     37  H22 Y5H d          -2.835  15.601  17.686  0.00  0.00     0.068 H 
ATOM     38  H23 Y5H d          -3.268  15.683  15.944  0.00  0.00     0.068 H 
ENDBRANCH  34  35
BRANCH  34  39
ATOM     39  C31 Y5H d          -3.847  12.947  17.804  0.00  0.00     0.067 C 
ATOM     40  H24 Y5H d          -3.077  12.425  17.217  0.00  0.00     0.068 H 
ATOM     41  H25 Y5H d          -4.705  12.277  17.962  0.00  0.00     0.068 H 
ATOM     42  H26 Y5H d          -3.429  13.242  18.777  0.00  0.00     0.068 H 
ENDBRANCH  34  39
BRANCH  34  43
ATOM     43  C30 Y5H d          -5.272  14.968  17.866  0.00  0.00     0.067 C 
ATOM     44  H27 Y5H d          -4.939  16.015  17.920  0.00  0.00     0.068 H 
ATOM     45  H28 Y5H d          -5.329  14.549  18.881  0.00  0.00     0.068 H 
ATOM     46  H29 Y5H d          -6.265  14.924  17.395  0.00  0.00     0.068 H 
ENDBRANCH  34  43
ENDBRANCH  31  34
ENDBRANCH  28  31
ENDBRANCH  25  28
ENDBRANCH  13  25
BRANCH   1  47
ATOM     47  C4  Y5H d          -5.883   9.572  20.199  0.00  0.00     0.091 A 
ATOM     48  N16 Y5H d          -4.515   9.702  20.108  0.00  0.00    -0.224 NA
ATOM     49  C17 Y5H d          -4.208  10.579  21.042  0.00  0.00     0.186 A 
ATOM     50  O10 Y5H d          -5.256  10.960  21.815  0.00  0.00    -0.301 OA
ATOM     51  C9  Y5H d          -6.326  10.315  21.216  0.00  0.00     0.047 A 
ATOM     52  H3  Y5H d          -7.367  10.401  21.526  0.00  0.00     0.126 H 
BRANCH  49  53
ATOM     53  C20 Y5H d          -2.881  10.991  21.477  0.00  0.00     0.059 A 
ATOM     54  C22 Y5H d          -1.744  10.199  21.584  0.00  0.00    -0.060 A 
ATOM     55  C24 Y5H d          -0.576  10.932  21.898  0.00  0.00    -0.054 A 
ATOM     56  H2  Y5H d          -1.751   9.119  21.440  0.00  0.00     0.085 H 
ATOM     57  C25 Y5H d          -0.843  12.276  21.953  0.00  0.00     0.075 A 
ATOM     58  H1  Y5H d           0.403  10.489  22.072  0.00  0.00     0.086 H 
ATOM     59 CL1  Y5H d           0.286  13.578  22.257  0.00  0.00    -0.076 Cl
ATOM     60  S1  Y5H d          -2.524  12.669  21.731  0.00  0.00    -0.074 SA
ENDBRANCH  49  53
ENDBRANCH   1  47
TORSDOF 9
ENDMDL
MODEL 9
REMARK VINA RESULT:      -5.8      3.985      6.990
REMARK  9 active torsions:
REMARK  status: ('A' for Active; 'I' for Inactive)
REMARK    1  A    between atoms: C20_6  and  C17_7 
REMARK    2  A    between atoms: C4_11  and  C1_12 
REMARK    3  A    between atoms: N12_24  and  C19_25 
REMARK    4  A    between atoms: C19_25  and  C21_26 
REMARK    5  A    between atoms: C21_26  and  C23_27 
REMARK    6  A    between atoms: C23_27  and  N29_28 
REMARK    7  A    between atoms: N29_28  and  C32_29 
REMARK    8  A    between atoms: N29_28  and  C31_30 
REMARK    9  A    between atoms: N29_28  and  C30_31 
ROOT
ATOM      1  C1  Y5H d          -2.925  11.374  21.302  0.00  0.00     0.160 C 
ATOM      2  N3  Y5H d          -3.021  11.820  22.717  0.00  0.00    -0.055 N 
ATOM      3  C7  Y5H d          -2.159  13.014  22.754  0.00  0.00     0.117 C 
ATOM      4  C14 Y5H d          -0.724  12.470  22.859  0.00  0.00    -0.036 C 
ATOM      5  C15 Y5H d          -0.901  11.146  23.621  0.00  0.00    -0.040 C 
ATOM      6  C8  Y5H d          -2.414  10.863  23.678  0.00  0.00     0.085 C 
ATOM      7  C5  Y5H d          -2.442  13.794  21.475  0.00  0.00     0.066 A 
ATOM      8  C2  Y5H d          -3.035  12.725  20.518  0.00  0.00     0.071 A 
ATOM      9  C6  Y5H d          -4.442  13.248  20.264  0.00  0.00     0.234 A 
ATOM     10  O13 Y5H d          -5.302  12.776  19.540  0.00  0.00    -0.272 OA
ATOM     11  C11 Y5H d          -3.534  14.810  21.693  0.00  0.00     0.233 A 
ATOM     12  O18 Y5H d          -3.514  15.849  22.354  0.00  0.00    -0.272 OA
ATOM     13  N12 Y5H d          -4.700  14.408  21.013  0.00  0.00    -0.288 N 
ATOM     14  H4  Y5H d          -1.955  10.889  21.117  0.00  0.00     0.096 H 
ATOM     15  H5  Y5H d          -3.976  12.020  22.971  0.00  0.00     0.281 HD
ATOM     16  H6  Y5H d          -2.384  13.644  23.627  0.00  0.00     0.086 H 
ATOM     17  H7  Y5H d          -0.079  13.163  23.419  0.00  0.00     0.036 H 
ATOM     18  H8  Y5H d          -0.294  12.295  21.861  0.00  0.00     0.036 H 
ATOM     19  H9  Y5H d          -0.495  11.238  24.639  0.00  0.00     0.035 H 
ATOM     20  H10 Y5H d          -0.383  10.332  23.092  0.00  0.00     0.035 H 
ATOM     21  H11 Y5H d          -2.626   9.827  23.376  0.00  0.00     0.076 H 
ATOM     22  H12 Y5H d          -2.802  11.036  24.692  0.00  0.00     0.076 H 
ATOM     23  H13 Y5H d          -1.533  14.266  21.076  0.00  0.00     0.059 H 
ATOM     24  H14 Y5H d          -2.480  12.652  19.571  0.00  0.00     0.059 H 
ENDROOT
BRANCH  13  25
ATOM     25  C19 Y5H d          -5.979  15.135  20.979  0.00  0.00     0.007 C 
ATOM     26  H15 Y5H d          -6.457  14.981  20.000  0.00  0.00     0.065 H 
ATOM     27  H16 Y5H d          -5.789  16.208  21.130  0.00  0.00     0.065 H 
BRANCH  25  28
ATOM     28  C21 Y5H d          -6.915  14.626  22.084  0.00  0.00    -0.027 C 
ATOM     29  H17 Y5H d          -6.569  13.656  22.471  0.00  0.00     0.037 H 
ATOM     30  H18 Y5H d          -7.943  14.525  21.707  0.00  0.00     0.037 H 
BRANCH  28  31
ATOM     31  C23 Y5H d          -6.841  15.706  23.182  0.00  0.00     0.086 C 
ATOM     32  H19 Y5H d          -7.807  16.231  23.217  0.00  0.00     0.076 H 
ATOM     33  H20 Y5H d          -6.047  16.418  22.914  0.00  0.00     0.076 H 
BRANCH  31  34
ATOM     34  N29 Y5H d          -6.546  15.156  24.563  0.00  0.00    -0.079 N 
BRANCH  34  35
ATOM     35  C32 Y5H d          -7.822  15.019  25.343  0.00  0.00     0.067 C 
ATOM     36  H21 Y5H d          -8.555  15.754  24.980  0.00  0.00     0.068 H 
ATOM     37  H22 Y5H d          -7.621  15.198  26.410  0.00  0.00     0.068 H 
ATOM     38  H23 Y5H d          -8.225  14.004  25.211  0.00  0.00     0.068 H 
ENDBRANCH  34  35
BRANCH  34  39
ATOM     39  C31 Y5H d          -5.713  16.206  25.261  0.00  0.00     0.067 C 
ATOM     40  H24 Y5H d          -6.368  16.858  25.856  0.00  0.00     0.068 H 
ATOM     41  H25 Y5H d          -5.179  16.809  24.511  0.00  0.00     0.068 H 
ATOM     42  H26 Y5H d          -4.984  15.716  25.922  0.00  0.00     0.068 H 
ENDBRANCH  34  39
BRANCH  34  43
ATOM     43  C30 Y5H d          -5.837  13.845  24.533  0.00  0.00     0.067 C 
ATOM     44  H27 Y5H d          -4.930  13.933  23.917  0.00  0.00     0.068 H 
ATOM     45  H28 Y5H d          -6.499  13.080  24.104  0.00  0.00     0.068 H 
ATOM     46  H29 Y5H d          -5.557  13.556  25.557  0.00  0.00     0.068 H 
ENDBRANCH  34  43
ENDBRANCH  31  34
ENDBRANCH  28  31
ENDBRANCH  25  28
ENDBRANCH  13  25
BRANCH   1  47
ATOM     47  C4  Y5H d          -4.026  10.428  20.896  0.00  0.00     0.091 A 
ATOM     48  N16 Y5H d          -4.008   9.689  19.735  0.00  0.00    -0.224 NA
ATOM     49  C17 Y5H d          -5.119   8.983  19.779  0.00  0.00     0.186 A 
ATOM     50  O10 Y5H d          -5.924   9.278  20.831  0.00  0.00    -0.301 OA
ATOM     51  C9  Y5H d          -5.166  10.190  21.548  0.00  0.00     0.047 A 
ATOM     52  H3  Y5H d          -5.456  10.641  22.496  0.00  0.00     0.126 H 
BRANCH  49  53
ATOM     53  C20 Y5H d          -5.673   8.126  18.741  0.00  0.00     0.059 A 
ATOM     54  C22 Y5H d          -5.339   8.110  17.392  0.00  0.00    -0.060 A 
ATOM     55  C24 Y5H d          -5.956   7.059  16.673  0.00  0.00    -0.054 A 
ATOM     56  H2  Y5H d          -4.668   8.834  16.933  0.00  0.00     0.085 H 
ATOM     57  C25 Y5H d          -6.691   6.260  17.510  0.00  0.00     0.075 A 
ATOM     58  H1  Y5H d          -5.861   6.906  15.600  0.00  0.00     0.086 H 
ATOM     59 CL1  Y5H d          -7.590   4.817  17.094  0.00  0.00    -0.076 Cl
ATOM     60  S1  Y5H d          -6.737   6.820  19.158  0.00  0.00    -0.074 SA
ENDBRANCH  49  53
ENDBRANCH   1  47
TORSDOF 9
ENDMDL
MODEL 10
REMARK VINA RESULT:      -5.7      3.980      6.916
REMARK  9 active torsions:
REMARK  status: ('A' for Active; 'I' for Inactive)
REMARK    1  A    between atoms: C20_6  and  C17_7 
REMARK    2  A    between atoms: C4_11  and  C1_12 
REMARK    3  A    between atoms: N12_24  and  C19_25 
REMARK    4  A    between atoms: C19_25  and  C21_26 
REMARK    5  A    between atoms: C21_26  and  C23_27 
REMARK    6  A    between atoms: C23_27  and  N29_28 
REMARK    7  A    between atoms: N29_28  and  C32_29 
REMARK    8  A    between atoms: N29_28  and  C31_30 
REMARK    9  A    between atoms: N29_28  and  C30_31 
ROOT
ATOM      1  C1  Y5H d          -6.474   8.729  19.212  0.00  0.00     0.160 C 
ATOM      2  N3  Y5H d          -5.850   7.996  18.078  0.00  0.00    -0.055 N 
ATOM      3  C7  Y5H d          -7.005   7.604  17.253  0.00  0.00     0.117 C 
ATOM      4  C14 Y5H d          -7.587   6.358  17.944  0.00  0.00    -0.036 C 
ATOM      5  C15 Y5H d          -6.356   5.707  18.596  0.00  0.00    -0.040 C 
ATOM      6  C8  Y5H d          -5.204   6.723  18.486  0.00  0.00     0.085 C 
ATOM      7  C5  Y5H d          -7.947   8.803  17.225  0.00  0.00     0.066 A 
ATOM      8  C2  Y5H d          -7.546   9.612  18.488  0.00  0.00     0.071 A 
ATOM      9  C6  Y5H d          -7.056  10.927  17.900  0.00  0.00     0.234 A 
ATOM     10  O13 Y5H d          -6.663  11.918  18.492  0.00  0.00    -0.272 OA
ATOM     11  C11 Y5H d          -7.651   9.695  16.047  0.00  0.00     0.233 A 
ATOM     12  O18 Y5H d          -7.834   9.490  14.847  0.00  0.00    -0.272 OA
ATOM     13  N12 Y5H d          -7.073  10.899  16.496  0.00  0.00    -0.288 N 
ATOM     14  H4  Y5H d          -6.949   8.024  19.909  0.00  0.00     0.096 H 
ATOM     15  H5  Y5H d          -5.197   8.583  17.582  0.00  0.00     0.281 HD
ATOM     16  H6  Y5H d          -6.699   7.353  16.227  0.00  0.00     0.086 H 
ATOM     17  H7  Y5H d          -8.048   5.680  17.210  0.00  0.00     0.036 H 
ATOM     18  H8  Y5H d          -8.332   6.639  18.702  0.00  0.00     0.036 H 
ATOM     19  H9  Y5H d          -6.094   4.779  18.068  0.00  0.00     0.035 H 
ATOM     20  H10 Y5H d          -6.563   5.482  19.653  0.00  0.00     0.035 H 
ATOM     21  H11 Y5H d          -4.697   6.840  19.455  0.00  0.00     0.076 H 
ATOM     22  H12 Y5H d          -4.474   6.400  17.729  0.00  0.00     0.076 H 
ATOM     23  H13 Y5H d          -9.002   8.493  17.235  0.00  0.00     0.059 H 
ATOM     24  H14 Y5H d          -8.397   9.791  19.162  0.00  0.00     0.059 H 
ENDROOT
BRANCH  13  25
ATOM     25  C19 Y5H d          -6.647  12.025  15.649  0.00  0.00     0.007 C 
ATOM     26  H15 Y5H d          -6.714  12.958  16.228  0.00  0.00     0.065 H 
ATOM     27  H16 Y5H d          -7.309  12.089  14.773  0.00  0.00     0.065 H 
BRANCH  25  28
ATOM     28  C21 Y5H d          -5.201  11.824  15.177  0.00  0.00    -0.027 C 
ATOM     29  H17 Y5H d          -5.178  11.373  14.174  0.00  0.00     0.037 H 
ATOM     30  H18 Y5H d          -4.648  11.184  15.880  0.00  0.00     0.037 H 
BRANCH  28  31
ATOM     31  C23 Y5H d          -4.603  13.244  15.148  0.00  0.00     0.086 C 
ATOM     32  H19 Y5H d          -5.303  13.926  15.654  0.00  0.00     0.076 H 
ATOM     33  H20 Y5H d          -4.487  13.550  14.098  0.00  0.00     0.076 H 
BRANCH  31  34
ATOM     34  N29 Y5H d          -3.253  13.355  15.829  0.00  0.00    -0.079 N 
BRANCH  34  35
ATOM     35  C32 Y5H d          -2.614  14.671  15.487  0.00  0.00     0.067 C 
ATOM     36  H21 Y5H d          -1.519  14.562  15.504  0.00  0.00     0.068 H 
ATOM     37  H22 Y5H d          -2.918  15.429  16.225  0.00  0.00     0.068 H 
ATOM     38  H23 Y5H d          -2.936  14.985  14.484  0.00  0.00     0.068 H 
ENDBRANCH  34  35
BRANCH  34  39
ATOM     39  C31 Y5H d          -2.389  12.274  15.222  0.00  0.00     0.067 C 
ATOM     40  H24 Y5H d          -1.574  12.736  14.647  0.00  0.00     0.068 H 
ATOM     41  H25 Y5H d          -3.000  11.648  14.554  0.00  0.00     0.068 H 
ATOM     42  H26 Y5H d          -1.966  11.650  16.022  0.00  0.00     0.068 H 
ENDBRANCH  34  39
BRANCH  34  43
ATOM     43  C30 Y5H d          -3.330  13.208  17.311  0.00  0.00     0.067 C 
ATOM     44  H27 Y5H d          -2.420  12.709  17.677  0.00  0.00     0.068 H 
ATOM     45  H28 Y5H d          -4.210  12.605  17.574  0.00  0.00     0.068 H 
ATOM     46  H29 Y5H d          -3.414  14.202  17.774  0.00  0.00     0.068 H 
ENDBRANCH  34  43
ENDBRANCH  31  34
ENDBRANCH  28  31
ENDBRANCH  25  28
ENDBRANCH  13  25
BRANCH   1  47
ATOM     47  C4  Y5H d          -5.501   9.589  19.978  0.00  0.00     0.091 A 
ATOM     48  N16 Y5H d          -5.834  10.294  21.112  0.00  0.00    -0.224 NA
ATOM     49  C17 Y5H d          -4.710  10.874  21.479  0.00  0.00     0.186 A 
ATOM     50  O10 Y5H d          -3.682  10.693  20.612  0.00  0.00    -0.301 OA
ATOM     51  C9  Y5H d          -4.223   9.828  19.674  0.00  0.00     0.047 A 
ATOM     52  H3  Y5H d          -3.690   9.408  18.823  0.00  0.00     0.126 H 
BRANCH  49  53
ATOM     53  C20 Y5H d          -4.514  11.847  22.543  0.00  0.00     0.059 A 
ATOM     54  C22 Y5H d          -3.308  12.349  23.017  0.00  0.00    -0.060 A 
ATOM     55  C24 Y5H d          -3.465  13.390  23.962  0.00  0.00    -0.054 A 
ATOM     56  H2  Y5H d          -2.337  11.978  22.693  0.00  0.00     0.085 H 
ATOM     57  C25 Y5H d          -4.790  13.700  24.131  0.00  0.00     0.075 A 
ATOM     58  H1  Y5H d          -2.645  13.878  24.485  0.00  0.00     0.086 H 
ATOM     59 CL1  Y5H d          -5.474  14.946  25.153  0.00  0.00    -0.076 Cl
ATOM     60  S1  Y5H d          -5.873  12.675  23.234  0.00  0.00    -0.074 SA
ENDBRANCH  49  53
ENDBRANCH   1  47
TORSDOF 9
ENDMDL
