MODEL 1
REMARK VINA RESULT:     -10.5      0.000      0.000
REMARK  3 active torsions:
REMARK  status: ('A' for Active; 'I' for Inactive)
REMARK    1  A    between atoms: CAU_21  and  OAA_1 
REMARK    2  A    between atoms: CAQ_17  and  CAP_16 
REMARK    3  A    between atoms: CAR_18  and  CAU_21 
ROOT
ATOM      1  CAK MOL d          58.109  11.856  51.825  0.00  0.00    -0.036 C 
ATOM      2  CAL MOL d          56.671  10.384  53.076  0.00  0.00    -0.036 C 
ATOM      3  CAM MOL d          57.420  11.268  50.597  0.00  0.00     0.084 C 
ATOM      4  CAN MOL d          55.793  10.034  51.877  0.00  0.00     0.084 C 
ATOM      5  CAO MOL d          55.349  12.350  51.297  0.00  0.00     0.116 C 
ATOM      6  CAS MOL d          57.089  11.846  52.958  0.00  0.00    -0.015 C 
ATOM      7  NAT MOL d          55.980  11.085  50.861  0.00  0.00    -0.068 N 
ATOM      8  CAU MOL d          55.899  12.757  52.663  0.00  0.00     0.113 C 
ATOM      9  H11 MOL d          58.433  12.886  51.619  0.00  0.00     0.036 H 
ATOM     10  H12 MOL d          58.981  11.244  52.098  0.00  0.00     0.036 H 
ATOM     11  H13 MOL d          57.565   9.743  53.083  0.00  0.00     0.036 H 
ATOM     12  H14 MOL d          56.104  10.234  54.007  0.00  0.00     0.036 H 
ATOM     13  H15 MOL d          57.872  10.295  50.358  0.00  0.00     0.076 H 
ATOM     14  H16 MOL d          57.549  11.953  49.746  0.00  0.00     0.076 H 
ATOM     15  H17 MOL d          54.738   9.993  52.183  0.00  0.00     0.076 H 
ATOM     16  H18 MOL d          56.093   9.058  51.465  0.00  0.00     0.076 H 
ATOM     17  H19 MOL d          54.260  12.210  51.368  0.00  0.00     0.081 H 
ATOM     18  H20 MOL d          55.570  13.141  50.564  0.00  0.00     0.081 H 
ATOM     19  H21 MOL d          57.562  12.180  53.893  0.00  0.00     0.045 H 
ATOM     20  H22 MOL d          55.535  10.788  50.007  0.00  0.00     0.280 HD
ENDROOT
BRANCH   8  21
ATOM     21  OAA MOL d          54.894  12.493  53.649  0.00  0.00    -0.383 OA
ATOM     22  H1  MOL d          54.135  13.039  53.479  0.00  0.00     0.211 HD
ENDBRANCH   8  21
BRANCH   8  23
ATOM     23  CAR MOL d          56.226  14.223  52.773  0.00  0.00    -0.022 A 
ATOM     24  CAI MOL d          56.935  14.750  53.849  0.00  0.00    -0.073 A 
ATOM     25  CAG MOL d          57.245  16.105  53.917  0.00  0.00    -0.072 A 
ATOM     26  H9  MOL d          57.251  14.093  54.651  0.00  0.00     0.084 H 
ATOM     27  CAQ MOL d          56.874  17.018  52.933  0.00  0.00    -0.026 A 
ATOM     28  H7  MOL d          57.801  16.467  54.774  0.00  0.00     0.084 H 
ATOM     29  CAH MOL d          56.179  16.482  51.850  0.00  0.00    -0.072 A 
ATOM     30  CAJ MOL d          55.877  15.121  51.761  0.00  0.00    -0.073 A 
ATOM     31  H8  MOL d          55.863  17.143  51.051  0.00  0.00     0.084 H 
ATOM     32  H10 MOL d          55.358  14.752  50.885  0.00  0.00     0.084 H 
BRANCH  27  33
ATOM     33  CAP MOL d          57.188  18.369  53.035  0.00  0.00    -0.026 A 
ATOM     34  CAE MOL d          57.714  18.922  54.201  0.00  0.00    -0.072 A 
ATOM     35  CAC MOL d          58.018  20.277  54.337  0.00  0.00    -0.082 A 
ATOM     36  H5  MOL d          57.896  18.267  55.046  0.00  0.00     0.084 H 
ATOM     37  CAB MOL d          57.821  21.151  53.267  0.00  0.00    -0.083 A 
ATOM     38  H3  MOL d          58.409  20.651  55.276  0.00  0.00     0.083 H 
ATOM     39  CAD MOL d          57.327  20.607  52.084  0.00  0.00    -0.082 A 
ATOM     40  H2  MOL d          58.043  22.209  53.354  0.00  0.00     0.083 H 
ATOM     41  CAF MOL d          57.005  19.252  51.976  0.00  0.00    -0.072 A 
ATOM     42  H4  MOL d          57.188  21.252  51.224  0.00  0.00     0.083 H 
ATOM     43  H6  MOL d          56.601  18.880  51.042  0.00  0.00     0.084 H 
ENDBRANCH  27  33
ENDBRANCH   8  23
TORSDOF 3
ENDMDL
MODEL 2
REMARK VINA RESULT:     -10.5      0.092      1.035
REMARK  3 active torsions:
REMARK  status: ('A' for Active; 'I' for Inactive)
REMARK    1  A    between atoms: CAU_21  and  OAA_1 
REMARK    2  A    between atoms: CAQ_17  and  CAP_16 
REMARK    3  A    between atoms: CAR_18  and  CAU_21 
ROOT
ATOM      1  CAK MOL d          58.146  11.832  51.782  0.00  0.00    -0.036 C 
ATOM      2  CAL MOL d          56.765  10.366  53.102  0.00  0.00    -0.036 C 
ATOM      3  CAM MOL d          57.399  11.243  50.589  0.00  0.00     0.084 C 
ATOM      4  CAN MOL d          55.831  10.015  51.945  0.00  0.00     0.084 C 
ATOM      5  CAO MOL d          55.365  12.332  51.383  0.00  0.00     0.116 C 
ATOM      6  CAS MOL d          57.180  11.827  52.961  0.00  0.00    -0.015 C 
ATOM      7  NAT MOL d          55.973  11.064  50.920  0.00  0.00    -0.068 N 
ATOM      8  CAU MOL d          55.979  12.739  52.721  0.00  0.00     0.113 C 
ATOM      9  H11 MOL d          58.462  12.861  51.558  0.00  0.00     0.036 H 
ATOM     10  H12 MOL d          59.028  11.218  52.015  0.00  0.00     0.036 H 
ATOM     11  H13 MOL d          57.656   9.723  53.068  0.00  0.00     0.036 H 
ATOM     12  H14 MOL d          56.242  10.219  54.058  0.00  0.00     0.036 H 
ATOM     13  H15 MOL d          57.837  10.268  50.330  0.00  0.00     0.076 H 
ATOM     14  H16 MOL d          57.490  11.926  49.731  0.00  0.00     0.076 H 
ATOM     15  H17 MOL d          54.791   9.978  52.302  0.00  0.00     0.076 H 
ATOM     16  H18 MOL d          56.109   9.038  51.523  0.00  0.00     0.076 H 
ATOM     17  H19 MOL d          54.281  12.194  51.505  0.00  0.00     0.081 H 
ATOM     18  H20 MOL d          55.553  13.120  50.638  0.00  0.00     0.081 H 
ATOM     19  H21 MOL d          57.697  12.162  53.873  0.00  0.00     0.045 H 
ATOM     20  H22 MOL d          55.487  10.767  50.088  0.00  0.00     0.280 HD
ENDROOT
BRANCH   8  21
ATOM     21  OAA MOL d          55.022  12.481  53.752  0.00  0.00    -0.383 OA
ATOM     22  H1  MOL d          54.490  13.256  53.891  0.00  0.00     0.211 HD
ENDBRANCH   8  21
BRANCH   8  23
ATOM     23  CAR MOL d          56.315  14.206  52.812  0.00  0.00    -0.022 A 
ATOM     24  CAI MOL d          55.927  15.121  51.836  0.00  0.00    -0.073 A 
ATOM     25  CAG MOL d          56.229  16.474  51.954  0.00  0.00    -0.072 A 
ATOM     26  H9  MOL d          55.380  14.773  50.968  0.00  0.00     0.084 H 
ATOM     27  CAQ MOL d          56.930  17.004  53.034  0.00  0.00    -0.026 A 
ATOM     28  H7  MOL d          55.903  17.147  51.170  0.00  0.00     0.084 H 
ATOM     29  CAH MOL d          57.302  16.086  54.016  0.00  0.00    -0.072 A 
ATOM     30  CAJ MOL d          56.989  14.727  53.918  0.00  0.00    -0.073 A 
ATOM     31  H8  MOL d          57.850  16.437  54.882  0.00  0.00     0.084 H 
ATOM     32  H10 MOL d          57.278  14.061  54.722  0.00  0.00     0.084 H 
BRANCH  27  33
ATOM     33  CAP MOL d          57.228  18.359  53.118  0.00  0.00    -0.026 A 
ATOM     34  CAE MOL d          57.773  18.930  54.268  0.00  0.00    -0.072 A 
ATOM     35  CAC MOL d          58.061  20.289  54.385  0.00  0.00    -0.082 A 
ATOM     36  H5  MOL d          57.982  18.285  55.113  0.00  0.00     0.084 H 
ATOM     37  CAB MOL d          57.828  21.152  53.312  0.00  0.00    -0.083 A 
ATOM     38  H3  MOL d          58.467  20.677  55.312  0.00  0.00     0.083 H 
ATOM     39  CAD MOL d          57.315  20.591  52.145  0.00  0.00    -0.082 A 
ATOM     40  H2  MOL d          58.038  22.213  53.385  0.00  0.00     0.083 H 
ATOM     41  CAF MOL d          57.010  19.231  52.056  0.00  0.00    -0.072 A 
ATOM     42  H4  MOL d          57.149  21.227  51.283  0.00  0.00     0.083 H 
ATOM     43  H6  MOL d          56.590  18.845  51.134  0.00  0.00     0.084 H 
ENDBRANCH  27  33
ENDBRANCH   8  23
TORSDOF 3
ENDMDL
MODEL 3
REMARK VINA RESULT:      -7.6      2.589      7.446
REMARK  3 active torsions:
REMARK  status: ('A' for Active; 'I' for Inactive)
REMARK    1  A    between atoms: CAU_21  and  OAA_1 
REMARK    2  A    between atoms: CAQ_17  and  CAP_16 
REMARK    3  A    between atoms: CAR_18  and  CAU_21 
ROOT
ATOM      1  CAK MOL d          58.857  18.178  52.405  0.00  0.00    -0.036 C 
ATOM      2  CAL MOL d          57.355  20.042  52.149  0.00  0.00    -0.036 C 
ATOM      3  CAM MOL d          59.185  18.798  53.759  0.00  0.00     0.084 C 
ATOM      4  CAN MOL d          57.464  20.478  53.609  0.00  0.00     0.084 C 
ATOM      5  CAO MOL d          56.916  18.283  54.493  0.00  0.00     0.116 C 
ATOM      6  CAS MOL d          57.404  18.519  52.095  0.00  0.00    -0.015 C 
ATOM      7  NAT MOL d          57.959  19.328  54.386  0.00  0.00    -0.068 N 
ATOM      8  CAU MOL d          56.443  17.882  53.097  0.00  0.00     0.113 C 
ATOM      9  H11 MOL d          58.988  17.086  52.448  0.00  0.00     0.036 H 
ATOM     10  H12 MOL d          59.516  18.596  51.629  0.00  0.00     0.036 H 
ATOM     11  H13 MOL d          58.194  20.461  51.573  0.00  0.00     0.036 H 
ATOM     12  H14 MOL d          56.405  20.398  51.726  0.00  0.00     0.036 H 
ATOM     13  H15 MOL d          59.905  19.618  53.620  0.00  0.00     0.076 H 
ATOM     14  H16 MOL d          59.625  18.031  54.413  0.00  0.00     0.076 H 
ATOM     15  H17 MOL d          56.476  20.785  53.983  0.00  0.00     0.076 H 
ATOM     16  H18 MOL d          58.167  21.320  53.697  0.00  0.00     0.076 H 
ATOM     17  H19 MOL d          56.065  18.674  55.069  0.00  0.00     0.081 H 
ATOM     18  H20 MOL d          57.332  17.403  55.005  0.00  0.00     0.081 H 
ATOM     19  H21 MOL d          57.142  18.168  51.087  0.00  0.00     0.045 H 
ATOM     20  H22 MOL d          58.186  19.643  55.316  0.00  0.00     0.280 HD
ENDROOT
BRANCH   8  21
ATOM     21  OAA MOL d          55.148  18.453  52.880  0.00  0.00    -0.383 OA
ATOM     22  H1  MOL d          54.488  17.900  53.283  0.00  0.00     0.211 HD
ENDBRANCH   8  21
BRANCH   8  23
ATOM     23  CAR MOL d          56.287  16.395  52.914  0.00  0.00    -0.022 A 
ATOM     24  CAI MOL d          55.885  15.831  51.706  0.00  0.00    -0.073 A 
ATOM     25  CAG MOL d          55.771  14.452  51.554  0.00  0.00    -0.072 A 
ATOM     26  H9  MOL d          55.657  16.477  50.866  0.00  0.00     0.084 H 
ATOM     27  CAQ MOL d          56.041  13.551  52.581  0.00  0.00    -0.026 A 
ATOM     28  H7  MOL d          55.457  14.061  50.594  0.00  0.00     0.084 H 
ATOM     29  CAH MOL d          56.458  14.121  53.783  0.00  0.00    -0.072 A 
ATOM     30  CAJ MOL d          56.595  15.502  53.943  0.00  0.00    -0.073 A 
ATOM     31  H8  MOL d          56.684  13.471  54.621  0.00  0.00     0.084 H 
ATOM     32  H10 MOL d          56.948  15.891  54.890  0.00  0.00     0.084 H 
BRANCH  27  33
ATOM     33  CAP MOL d          55.905  12.179  52.403  0.00  0.00    -0.026 A 
ATOM     34  CAE MOL d          54.884  11.629  51.628  0.00  0.00    -0.072 A 
ATOM     35  CAC MOL d          54.713  10.256  51.450  0.00  0.00    -0.082 A 
ATOM     36  H5  MOL d          54.189  12.302  51.139  0.00  0.00     0.084 H 
ATOM     37  CAB MOL d          55.599   9.355  52.043  0.00  0.00    -0.083 A 
ATOM     38  H3  MOL d          53.890   9.889  50.849  0.00  0.00     0.083 H 
ATOM     39  CAD MOL d          56.643   9.891  52.794  0.00  0.00    -0.082 A 
ATOM     40  H2  MOL d          55.479   8.284  51.924  0.00  0.00     0.083 H 
ATOM     41  CAF MOL d          56.783  11.268  52.980  0.00  0.00    -0.072 A 
ATOM     42  H4  MOL d          57.366   9.221  53.245  0.00  0.00     0.083 H 
ATOM     43  H6  MOL d          57.598  11.636  53.592  0.00  0.00     0.084 H 
ENDBRANCH  27  33
ENDBRANCH   8  23
TORSDOF 3
ENDMDL
