MODEL 1
REMARK VINA RESULT:      -7.5      0.000      0.000
REMARK  4 active torsions:
REMARK  status: ('A' for Active; 'I' for Inactive)
REMARK    1  A    between atoms: C3_2  and  O3_3 
REMARK    2  A    between atoms: C4_4  and  O4_5 
REMARK    3  A    between atoms: C_8  and  C1_12 
REMARK    4  A    between atoms: C1_12  and  O30_10 
ROOT
ATOM      1  C2  FA1 d          44.209   7.461  26.896  0.00  0.00    -0.001 C 
ATOM      2  C3  FA1 d          43.161   7.741  25.831  0.00  0.00     0.067 C 
ATOM      3  C4  FA1 d          43.772   7.497  24.449  0.00  0.00     0.076 C 
ATOM      4  C5  FA1 d          44.430   6.130  24.396  0.00  0.00    -0.074 C 
ATOM      5  C6  FA1 d          44.838   5.482  25.555  0.00  0.00    -0.066 C 
ATOM      6  C1  FA1 d          44.658   5.976  26.870  0.00  0.00     0.145 C 
ATOM      7  H1  FA1 d          43.783   7.689  27.885  0.00  0.00     0.042 H 
ATOM      8  H2  FA1 d          45.084   8.102  26.716  0.00  0.00     0.042 H 
ATOM      9  H3  FA1 d          42.313   7.056  25.973  0.00  0.00     0.087 H 
ATOM     10  H5  FA1 d          44.524   8.269  24.230  0.00  0.00     0.093 H 
ATOM     11  H7  FA1 d          44.585   5.650  23.431  0.00  0.00     0.080 H 
ATOM     12  H8  FA1 d          45.334   4.519  25.443  0.00  0.00     0.081 H 
ENDROOT
BRANCH   6  13
ATOM     13  C   FA1 d          46.040   5.785  27.523  0.00  0.00     0.327 C 
ATOM     14  O1  FA1 d          46.336   6.640  28.623  0.00  0.00    -0.184 OA
ATOM     15  O2  FA1 d          46.293   4.419  27.748  0.00  0.00    -0.184 OA
ENDBRANCH   6  13
BRANCH   6  16
ATOM     16  O30 FA1 d          43.661   5.084  27.490  0.00  0.00    -0.380 OA
ATOM     17  H9  FA1 d          44.090   4.529  28.130  0.00  0.00     0.211 HD
ENDBRANCH   6  16
BRANCH   2  18
ATOM     18  O3  FA1 d          42.680   9.108  25.945  0.00  0.00    -0.393 OA
ATOM     19  H4  FA1 d          43.412   9.709  25.866  0.00  0.00     0.210 HD
ENDBRANCH   2  18
BRANCH   3  20
ATOM     20  O4  FA1 d          42.719   7.575  23.520  0.00  0.00    -0.389 OA
ATOM     21  H6  FA1 d          42.992   7.179  22.701  0.00  0.00     0.210 HD
ENDBRANCH   3  20
TORSDOF 4
ENDMDL
MODEL 2
REMARK VINA RESULT:      -5.5      1.261      4.134
REMARK  4 active torsions:
REMARK  status: ('A' for Active; 'I' for Inactive)
REMARK    1  A    between atoms: C3_2  and  O3_3 
REMARK    2  A    between atoms: C4_4  and  O4_5 
REMARK    3  A    between atoms: C_8  and  C1_12 
REMARK    4  A    between atoms: C1_12  and  O30_10 
ROOT
ATOM      1  C2  FA1 d          44.671   7.469  27.146  0.00  0.00    -0.001 C 
ATOM      2  C3  FA1 d          45.780   6.436  27.253  0.00  0.00     0.067 C 
ATOM      3  C4  FA1 d          45.223   5.061  26.876  0.00  0.00     0.076 C 
ATOM      4  C5  FA1 d          44.500   5.129  25.544  0.00  0.00    -0.074 C 
ATOM      5  C6  FA1 d          44.006   6.332  25.054  0.00  0.00    -0.066 C 
ATOM      6  C1  FA1 d          44.148   7.590  25.691  0.00  0.00     0.145 C 
ATOM      7  H1  FA1 d          45.060   8.447  27.470  0.00  0.00     0.042 H 
ATOM      8  H2  FA1 d          43.839   7.170  27.801  0.00  0.00     0.042 H 
ATOM      9  H3  FA1 d          46.585   6.700  26.551  0.00  0.00     0.087 H 
ATOM     10  H5  FA1 d          44.523   4.714  27.651  0.00  0.00     0.093 H 
ATOM     11  H7  FA1 d          44.366   4.219  24.962  0.00  0.00     0.080 H 
ATOM     12  H8  FA1 d          43.467   6.305  24.109  0.00  0.00     0.081 H 
ENDROOT
BRANCH   6  13
ATOM     13  C   FA1 d          42.729   8.187  25.639  0.00  0.00     0.327 C 
ATOM     14  O1  FA1 d          42.115   8.228  24.355  0.00  0.00    -0.184 OA
ATOM     15  O2  FA1 d          41.931   7.645  26.663  0.00  0.00    -0.184 OA
ENDBRANCH   6  13
BRANCH   6  16
ATOM     16  O30 FA1 d          45.068   8.359  24.833  0.00  0.00    -0.380 OA
ATOM     17  H9  FA1 d          45.872   7.867  24.711  0.00  0.00     0.211 HD
ENDBRANCH   6  16
BRANCH   2  18
ATOM     18  O3  FA1 d          46.324   6.417  28.601  0.00  0.00    -0.393 OA
ATOM     19  H4  FA1 d          46.646   5.546  28.800  0.00  0.00     0.210 HD
ENDBRANCH   2  18
BRANCH   3  20
ATOM     20  O4  FA1 d          46.322   4.185  26.798  0.00  0.00    -0.389 OA
ATOM     21  H6  FA1 d          47.065   4.645  26.426  0.00  0.00     0.210 HD
ENDBRANCH   3  20
TORSDOF 4
ENDMDL
MODEL 3
REMARK VINA RESULT:      -4.6      1.330      2.267
REMARK  4 active torsions:
REMARK  status: ('A' for Active; 'I' for Inactive)
REMARK    1  A    between atoms: C3_2  and  O3_3 
REMARK    2  A    between atoms: C4_4  and  O4_5 
REMARK    3  A    between atoms: C_8  and  C1_12 
REMARK    4  A    between atoms: C1_12  and  O30_10 
ROOT
ATOM      1  C2  FA1 d          45.125   6.670  25.363  0.00  0.00    -0.001 C 
ATOM      2  C3  FA1 d          44.252   7.783  24.807  0.00  0.00     0.067 C 
ATOM      3  C4  FA1 d          42.785   7.476  25.120  0.00  0.00     0.076 C 
ATOM      4  C5  FA1 d          42.613   7.165  26.596  0.00  0.00    -0.074 C 
ATOM      5  C6  FA1 d          43.684   6.735  27.370  0.00  0.00    -0.066 C 
ATOM      6  C1  FA1 d          45.014   6.583  26.907  0.00  0.00     0.145 C 
ATOM      7  H1  FA1 d          46.172   6.867  25.089  0.00  0.00     0.042 H 
ATOM      8  H2  FA1 d          44.805   5.712  24.926  0.00  0.00     0.042 H 
ATOM      9  H3  FA1 d          44.529   8.732  25.290  0.00  0.00     0.087 H 
ATOM     10  H5  FA1 d          42.448   6.613  24.527  0.00  0.00     0.093 H 
ATOM     11  H7  FA1 d          41.633   7.282  27.055  0.00  0.00     0.080 H 
ATOM     12  H8  FA1 d          43.484   6.497  28.414  0.00  0.00     0.081 H 
ENDROOT
BRANCH   6  13
ATOM     13  C   FA1 d          45.426   5.194  27.433  0.00  0.00     0.327 C 
ATOM     14  O1  FA1 d          45.785   4.233  26.446  0.00  0.00    -0.184 OA
ATOM     15  O2  FA1 d          46.336   5.322  28.498  0.00  0.00    -0.184 OA
ENDBRANCH   6  13
BRANCH   6  16
ATOM     16  O30 FA1 d          45.785   7.644  27.580  0.00  0.00    -0.380 OA
ATOM     17  H9  FA1 d          45.452   8.493  27.313  0.00  0.00     0.211 HD
ENDBRANCH   6  16
BRANCH   2  18
ATOM     18  O3  FA1 d          44.453   7.914  23.373  0.00  0.00    -0.393 OA
ATOM     19  H4  FA1 d          45.060   8.625  23.203  0.00  0.00     0.210 HD
ENDBRANCH   2  18
BRANCH   3  20
ATOM     20  O4  FA1 d          42.046   8.619  24.767  0.00  0.00    -0.389 OA
ATOM     21  H6  FA1 d          41.827   8.580  23.843  0.00  0.00     0.210 HD
ENDBRANCH   3  20
TORSDOF 4
ENDMDL
MODEL 4
REMARK VINA RESULT:      -4.6      0.718      1.165
REMARK  4 active torsions:
REMARK  status: ('A' for Active; 'I' for Inactive)
REMARK    1  A    between atoms: C3_2  and  O3_3 
REMARK    2  A    between atoms: C4_4  and  O4_5 
REMARK    3  A    between atoms: C_8  and  C1_12 
REMARK    4  A    between atoms: C1_12  and  O30_10 
ROOT
ATOM      1  C2  FA1 d          44.010   7.184  27.079  0.00  0.00    -0.001 C 
ATOM      2  C3  FA1 d          43.026   7.765  26.076  0.00  0.00     0.067 C 
ATOM      3  C4  FA1 d          43.472   7.390  24.661  0.00  0.00     0.076 C 
ATOM      4  C5  FA1 d          43.724   5.897  24.562  0.00  0.00    -0.074 C 
ATOM      5  C6  FA1 d          43.998   5.137  25.693  0.00  0.00    -0.066 C 
ATOM      6  C1  FA1 d          44.030   5.635  27.019  0.00  0.00     0.145 C 
ATOM      7  H1  FA1 d          43.716   7.500  28.092  0.00  0.00     0.042 H 
ATOM      8  H2  FA1 d          45.017   7.564  26.853  0.00  0.00     0.042 H 
ATOM      9  H3  FA1 d          42.030   7.336  26.262  0.00  0.00     0.087 H 
ATOM     10  H5  FA1 d          44.395   7.931  24.403  0.00  0.00     0.093 H 
ATOM     11  H7  FA1 d          43.690   5.413  23.587  0.00  0.00     0.080 H 
ATOM     12  H8  FA1 d          44.202   4.078  25.548  0.00  0.00     0.081 H 
ENDROOT
BRANCH   6  13
ATOM     13  C   FA1 d          45.338   5.056  27.592  0.00  0.00     0.327 C 
ATOM     14  O1  FA1 d          46.200   4.415  26.658  0.00  0.00    -0.184 OA
ATOM     15  O2  FA1 d          45.965   5.996  28.431  0.00  0.00    -0.184 OA
ENDBRANCH   6  13
BRANCH   6  16
ATOM     16  O30 FA1 d          42.860   5.038  27.688  0.00  0.00    -0.380 OA
ATOM     17  H9  FA1 d          42.623   4.229  27.249  0.00  0.00     0.211 HD
ENDBRANCH   6  16
BRANCH   2  18
ATOM     18  O3  FA1 d          42.947   9.208  26.225  0.00  0.00    -0.393 OA
ATOM     19  H4  FA1 d          42.238   9.427  26.818  0.00  0.00     0.210 HD
ENDBRANCH   2  18
BRANCH   3  20
ATOM     20  O4  FA1 d          42.434   7.774  23.792  0.00  0.00    -0.389 OA
ATOM     21  H6  FA1 d          41.727   8.159  24.297  0.00  0.00     0.210 HD
ENDBRANCH   3  20
TORSDOF 4
ENDMDL
