MODEL 1
REMARK VINA RESULT:     -10.4      0.000      0.000
REMARK  13 active torsions:
REMARK  status: ('A' for Active; 'I' for Inactive)
REMARK    1  A    between atoms: C_1  and  CA_4 
REMARK       I    between atoms: NAV_21  and  C_1 
REMARK    2  A    between atoms: CAH_9  and  CAL_13 
REMARK    3  A    between atoms: CAL_13  and  CAT_20 
REMARK    4  A    between atoms: CAL_13  and  CBZ_50 
REMARK    5  A    between atoms: CAL_13  and  CCA_51 
REMARK    6  A    between atoms: CAR_18  and  CAS_19 
REMARK    7  A    between atoms: CAZ_24  and  CAR_18 
REMARK    8  A    between atoms: CAX_22  and  NAV_21 
REMARK    9  A    between atoms: CAX_22  and  CAY_23 
REMARK       I    between atoms: CAY_23  and  NBK_35 
REMARK   10  A    between atoms: NBK_35  and  SBM_37 
REMARK   11  A    between atoms: SBM_37  and  CBN_38 
REMARK   12  A    between atoms: CBV_46  and  CBX_48 
REMARK   13  A    between atoms: CBV_46  and  CBY_49 
ROOT
ATOM      1  N   SU3 d         -15.082  -9.788  13.443  0.00  0.00    -0.334 N 
ATOM      2  CA  SU3 d         -13.669  -9.801  13.901  0.00  0.00     0.094 C 
ATOM      3  CB  SU3 d         -12.941 -10.618  12.872  0.00  0.00    -0.011 C 
ATOM      4  CG  SU3 d         -13.994 -11.644  12.480  0.00  0.00     0.067 C 
ATOM      5  CAF SU3 d         -16.041  -9.046  13.975  0.00  0.00     0.244 C 
ATOM      6  OAG SU3 d         -15.742  -8.292  14.910  0.00  0.00    -0.271 OA
ATOM      7  CAH SU3 d         -17.460  -9.044  13.401  0.00  0.00     0.098 C 
ATOM      8  NAI SU3 d         -18.399  -9.307  14.502  0.00  0.00    -0.323 N 
ATOM      9  CAJ SU3 d         -18.913 -10.504  14.693  0.00  0.00     0.361 C 
ATOM     10  OAK SU3 d         -19.722 -10.593  15.776  0.00  0.00    -0.303 OA
ATOM     11  OAM SU3 d         -18.756 -11.455  13.927  0.00  0.00    -0.238 OA
ATOM     12  CAO SU3 d         -13.463 -13.660  13.647  0.00  0.00     0.371 C 
ATOM     13  OAP SU3 d         -12.525 -13.846  12.858  0.00  0.00    -0.238 OA
ATOM     14  NAQ SU3 d         -13.652 -14.475  14.651  0.00  0.00    -0.278 N 
ATOM     15  CBB SU3 d         -12.837 -15.632  15.044  0.00  0.00     0.000 A 
ATOM     16  CBC SU3 d         -13.463 -16.147  16.318  0.00  0.00    -0.008 A 
ATOM     17  CBD SU3 d         -14.597 -15.404  16.634  0.00  0.00    -0.002 A 
ATOM     18  CBE SU3 d         -14.778 -14.298  15.593  0.00  0.00     0.001 A 
ATOM     19  CBF SU3 d         -13.090 -17.208  17.128  0.00  0.00    -0.071 A 
ATOM     20  CBG SU3 d         -13.829 -17.519  18.252  0.00  0.00    -0.082 A 
ATOM     21  CBH SU3 d         -14.952 -16.777  18.565  0.00  0.00    -0.076 A 
ATOM     22  CBI SU3 d         -15.351 -15.703  17.775  0.00  0.00    -0.046 A 
ATOM     23  CBJ SU3 d         -16.648 -15.054  18.265  0.00  0.00    -0.040 C 
ATOM     24  CBS SU3 d         -16.641 -13.598  18.607  0.00  0.00    -0.061 C 
ATOM     25  CBT SU3 d         -18.120 -13.204  18.741  0.00  0.00    -0.064 C 
ATOM     26  CBU SU3 d         -18.705 -12.899  17.360  0.00  0.00    -0.057 C 
ATOM     27  CBV SU3 d         -20.132 -12.366  17.403  0.00  0.00    -0.025 C 
ATOM     28  CBW SU3 d         -20.392 -11.838  16.011  0.00  0.00     0.037 C 
ATOM     29  CD1 SU3 d         -15.256 -10.782  12.365  0.00  0.00     0.023 C 
ATOM     30  OD2 SU3 d         -14.300 -12.607  13.521  0.00  0.00    -0.296 OA
ATOM     31  H1  SU3 d         -13.562 -10.245  14.902  0.00  0.00     0.088 H 
ATOM     32  H2  SU3 d         -12.052 -11.102  13.301  0.00  0.00     0.040 H 
ATOM     33  H3  SU3 d         -12.644 -10.002  12.010  0.00  0.00     0.040 H 
ATOM     34  H4  SU3 d         -13.728 -12.154  11.542  0.00  0.00     0.086 H 
ATOM     35  H5  SU3 d         -17.541  -9.859  12.667  0.00  0.00     0.088 H 
ATOM     36  H6  SU3 d         -18.651  -8.561  15.119  0.00  0.00     0.165 HD
ATOM     37  H19 SU3 d         -11.966 -16.033  14.527  0.00  0.00     0.113 H 
ATOM     38  H20 SU3 d         -15.565 -13.545  15.554  0.00  0.00     0.113 H 
ATOM     39  H21 SU3 d         -12.215 -17.797  16.878  0.00  0.00     0.084 H 
ATOM     40  H22 SU3 d         -13.528 -18.344  18.888  0.00  0.00     0.083 H 
ATOM     41  H23 SU3 d         -15.534 -17.035  19.443  0.00  0.00     0.084 H 
ATOM     42  H24 SU3 d         -16.961 -15.597  19.169  0.00  0.00     0.040 H 
ATOM     43  H25 SU3 d         -17.398 -15.197  17.474  0.00  0.00     0.040 H 
ATOM     44  H32 SU3 d         -16.158 -13.017  17.808  0.00  0.00     0.033 H 
ATOM     45  H33 SU3 d         -16.110 -13.428  19.556  0.00  0.00     0.033 H 
ATOM     46  H34 SU3 d         -18.203 -12.310  19.377  0.00  0.00     0.033 H 
ATOM     47  H35 SU3 d         -18.679 -14.033  19.198  0.00  0.00     0.033 H 
ATOM     48  H36 SU3 d         -18.699 -13.826  16.767  0.00  0.00     0.034 H 
ATOM     49  H37 SU3 d         -18.069 -12.147  16.871  0.00  0.00     0.034 H 
ATOM     50  H38 SU3 d         -20.036 -12.577  15.278  0.00  0.00     0.076 H 
ATOM     51  H39 SU3 d         -21.475 -11.689  15.884  0.00  0.00     0.076 H 
ATOM     52  H52 SU3 d         -15.312 -10.292  11.382  0.00  0.00     0.068 H 
ATOM     53  H53 SU3 d         -16.162 -11.385  12.526  0.00  0.00     0.068 H 
ENDROOT
BRANCH   2  54
ATOM     54  C   SU3 d         -13.208  -8.345  13.907  0.00  0.00     0.241 C 
ATOM     55  O   SU3 d         -13.194  -7.665  12.879  0.00  0.00    -0.271 OA
ATOM     56  NAV SU3 d         -12.777  -7.905  15.089  0.00  0.00    -0.341 N 
ATOM     57  H15 SU3 d         -12.631  -8.572  15.819  0.00  0.00     0.163 HD
BRANCH  56  58
ATOM     58  CAX SU3 d         -12.508  -6.506  15.367  0.00  0.00     0.119 A 
ATOM     59  CAZ SU3 d         -13.805  -5.657  15.358  0.00  0.00    -0.018 A 
ATOM     60  CBA SU3 d         -13.073  -5.948  16.667  0.00  0.00    -0.027 A 
ATOM     61  H16 SU3 d         -14.775  -6.122  15.124  0.00  0.00     0.044 H 
ATOM     62  H17 SU3 d         -12.545  -5.138  17.191  0.00  0.00     0.038 H 
ATOM     63  H18 SU3 d         -13.522  -6.629  17.406  0.00  0.00     0.038 H 
BRANCH  58  64
ATOM     64  CAY SU3 d         -11.176  -5.905  14.951  0.00  0.00     0.259 C 
ATOM     65  NBK SU3 d         -10.528  -6.554  14.009  0.00  0.00    -0.252 N 
ATOM     66  H26 SU3 d         -10.879  -7.399  13.607  0.00  0.00     0.181 HD
ATOM     67  OBL SU3 d         -10.754  -4.927  15.561  0.00  0.00    -0.270 OA
BRANCH  65  68
ATOM     68  SBM SU3 d          -9.146  -5.904  13.551  0.00  0.00     0.237 S 
ATOM     69  OBO SU3 d          -9.380  -4.734  12.657  0.00  0.00    -0.205 OA
ATOM     70  OBP SU3 d          -8.251  -5.601  14.687  0.00  0.00    -0.205 OA
BRANCH  68  71
ATOM     71  CBN SU3 d          -8.353  -7.168  12.559  0.00  0.00     0.063 A 
ATOM     72  CBQ SU3 d          -7.041  -6.718  11.936  0.00  0.00    -0.046 A 
ATOM     73  CBR SU3 d          -7.042  -7.679  13.137  0.00  0.00    -0.046 A 
ATOM     74  H28 SU3 d          -6.698  -5.680  12.060  0.00  0.00     0.035 H 
ATOM     75  H29 SU3 d          -6.750  -7.082  10.939  0.00  0.00     0.035 H 
ATOM     76  H30 SU3 d          -6.753  -8.731  13.002  0.00  0.00     0.035 H 
ATOM     77  H31 SU3 d          -6.701  -7.329  14.122  0.00  0.00     0.035 H 
ATOM     78  H27 SU3 d          -9.068  -7.822  12.040  0.00  0.00     0.066 H 
ENDBRANCH  68  71
ENDBRANCH  65  68
ENDBRANCH  58  64
BRANCH  59  79
ATOM     79  CAR SU3 d         -13.767  -4.210  14.861  0.00  0.00    -0.062 C 
ATOM     80  H7  SU3 d         -13.921  -3.533  15.715  0.00  0.00     0.033 H 
ATOM     81  H8  SU3 d         -12.785  -4.012  14.408  0.00  0.00     0.033 H 
BRANCH  79  82
ATOM     82  CAS SU3 d         -14.859  -3.950  13.815  0.00  0.00    -0.076 C 
ATOM     83  H9  SU3 d         -15.579  -4.782  13.822  0.00  0.00     0.027 H 
ATOM     84  H10 SU3 d         -14.401  -3.871  12.818  0.00  0.00     0.027 H 
ATOM     85  H11 SU3 d         -15.381  -3.011  14.054  0.00  0.00     0.027 H 
ENDBRANCH  79  82
ENDBRANCH  59  79
ENDBRANCH  56  58
ENDBRANCH   2  54
BRANCH   7  86
ATOM     86  CAL SU3 d         -17.789  -7.724  12.679  0.00  0.00    -0.022 C 
BRANCH  86  87
ATOM     87  CAT SU3 d         -18.150  -6.579  13.643  0.00  0.00    -0.067 C 
ATOM     88  H12 SU3 d         -17.229  -6.109  14.017  0.00  0.00     0.028 H 
ATOM     89  H13 SU3 d         -18.726  -6.980  14.490  0.00  0.00     0.028 H 
ATOM     90  H14 SU3 d         -18.755  -5.828  13.112  0.00  0.00     0.028 H 
ENDBRANCH  86  87
BRANCH  86  91
ATOM     91  CBZ SU3 d         -16.601  -7.317  11.821  0.00  0.00    -0.067 C 
ATOM     92  H46 SU3 d         -15.786  -8.043  11.954  0.00  0.00     0.028 H 
ATOM     93  H47 SU3 d         -16.254  -6.318  12.126  0.00  0.00     0.028 H 
ATOM     94  H48 SU3 d         -16.902  -7.293  10.763  0.00  0.00     0.028 H 
ENDBRANCH  86  91
BRANCH  86  95
ATOM     95  CCA SU3 d         -18.991  -7.956  11.759  0.00  0.00    -0.067 C 
ATOM     96  H49 SU3 d         -19.295  -9.012  11.811  0.00  0.00     0.028 H 
ATOM     97  H50 SU3 d         -18.716  -7.704  10.724  0.00  0.00     0.028 H 
ATOM     98  H51 SU3 d         -19.827  -7.317  12.081  0.00  0.00     0.028 H 
ENDBRANCH  86  95
ENDBRANCH   7  86
BRANCH  27  99
ATOM     99  CBX SU3 d         -21.152 -13.478  17.672  0.00  0.00    -0.067 C 
ATOM    100  H40 SU3 d         -20.656 -14.457  17.595  0.00  0.00     0.028 H 
ATOM    101  H41 SU3 d         -21.963 -13.419  16.931  0.00  0.00     0.028 H 
ATOM    102  H42 SU3 d         -21.568 -13.357  18.683  0.00  0.00     0.028 H 
ENDBRANCH  27  99
BRANCH  27 103
ATOM    103  CBY SU3 d         -20.268 -11.256  18.460  0.00  0.00    -0.067 C 
ATOM    104  H43 SU3 d         -19.289 -10.779  18.619  0.00  0.00     0.028 H 
ATOM    105  H44 SU3 d         -20.622 -11.692  19.406  0.00  0.00     0.028 H 
ATOM    106  H45 SU3 d         -20.991 -10.503  18.110  0.00  0.00     0.028 H 
ENDBRANCH  27 103
TORSDOF 13
ENDMDL
