REMARK  7 active torsions:
REMARK  status: ('A' for Active; 'I' for Inactive)
REMARK    1  A    between atoms: S1_2  and  N1_4 
REMARK    2  A    between atoms: S1_2  and  C3_10 
REMARK    3  A    between atoms: N1_4  and  C2_5 
REMARK    4  A    between atoms: C2_5  and  C10_6 
REMARK    5  A    between atoms: C2_5  and  C1_7 
REMARK    6  A    between atoms: C6_13  and  O5_16 
REMARK    7  A    between atoms: O5_16  and  C7_17 
ROOT
ATOM      1  C3  TBL d          -2.071  -5.623  -5.968  0.00  0.00     0.079 A 
ATOM      2  C4  TBL d          -3.359  -5.933  -5.537  0.00  0.00    -0.058 A 
ATOM      3  C5  TBL d          -4.423  -6.005  -6.454  0.00  0.00    -0.049 A 
ATOM      4  C6  TBL d          -4.201  -5.849  -7.828  0.00  0.00     0.068 A 
ATOM      5  C8  TBL d          -2.936  -5.538  -8.293  0.00  0.00    -0.049 A 
ATOM      6  C9  TBL d          -1.873  -5.420  -7.357  0.00  0.00    -0.058 A 
ATOM      7  H6  TBL d          -3.543  -6.120  -4.485  0.00  0.00     0.086 H 
ATOM      8  H7  TBL d          -5.429  -6.184  -6.092  0.00  0.00     0.087 H 
ATOM      9  H8  TBL d          -2.759  -5.387  -9.352  0.00  0.00     0.087 H 
ATOM     10  H9  TBL d          -0.882  -5.167  -7.716  0.00  0.00     0.086 H 
ENDROOT
BRANCH   1  11
ATOM     11  S1  TBL d          -0.861  -5.585  -4.879  0.00  0.00     0.259 S 
ATOM     12  O4  TBL d          -1.081  -6.697  -4.009  0.00  0.00    -0.201 OA
ATOM     13  O3  TBL d           0.344  -5.666  -5.663  0.00  0.00    -0.201 OA
BRANCH  11  14
ATOM     14  N1  TBL d          -0.858  -4.281  -3.932  0.00  0.00    -0.301 N 
ATOM     15  H1  TBL d          -1.075  -4.364  -2.959  0.00  0.00     0.173 HD
BRANCH  14  16
ATOM     16  C2  TBL d          -0.533  -2.968  -4.511  0.00  0.00     0.100 C 
ATOM     17  H2  TBL d           0.069  -3.122  -5.418  0.00  0.00     0.089 H 
BRANCH  16  18
ATOM     18  C10 TBL d           0.279  -2.144  -3.509  0.00  0.00    -0.048 C 
ATOM     19  H3  TBL d           0.518  -1.164  -3.948  0.00  0.00     0.030 H 
ATOM     20  H4  TBL d           1.212  -2.675  -3.268  0.00  0.00     0.030 H 
ATOM     21  H5  TBL d          -0.309  -2.000  -2.591  0.00  0.00     0.030 H 
ENDBRANCH  16  18
BRANCH  16  22
ATOM     22  C1  TBL d          -1.786  -2.219  -4.883  0.00  0.00     0.196 C 
ATOM     23  O2  TBL d          -1.858  -1.518  -5.873  0.00  0.00    -0.646 OA
ATOM     24  O1  TBL d          -2.860  -2.330  -4.102  0.00  0.00    -0.646 OA
ENDBRANCH  16  22
ENDBRANCH  14  16
ENDBRANCH  11  14
ENDBRANCH   1  11
BRANCH   4  25
ATOM     25  O5  TBL d          -5.291  -5.933  -8.679  0.00  0.00    -0.356 OA
BRANCH  25  26
ATOM     26  C7  TBL d          -5.338  -6.706  -9.869  0.00  0.00     0.010 C 
ATOM     27  H10 TBL d          -6.322  -6.587 -10.345  0.00  0.00     0.066 H 
ATOM     28  H11 TBL d          -5.175  -7.766  -9.624  0.00  0.00     0.066 H 
ATOM     29  H12 TBL d          -4.553  -6.364 -10.560  0.00  0.00     0.066 H 
ENDBRANCH  25  26
ENDBRANCH   4  25
TORSDOF 7
