MODEL 1
REMARK VINA RESULT:      -7.0      0.000      0.000
REMARK  7 active torsions:
REMARK  status: ('A' for Active; 'I' for Inactive)
REMARK    1  A    between atoms: S1_2  and  N1_4 
REMARK    2  A    between atoms: S1_2  and  C3_10 
REMARK    3  A    between atoms: N1_4  and  C2_5 
REMARK    4  A    between atoms: C2_5  and  C10_6 
REMARK    5  A    between atoms: C2_5  and  C1_7 
REMARK    6  A    between atoms: C6_13  and  O5_16 
REMARK    7  A    between atoms: O5_16  and  C7_17 
ROOT
ATOM      1  C3  TBL d          -2.130  -6.019  -6.390  0.00  0.00     0.079 A 
ATOM      2  C4  TBL d          -2.161  -6.130  -7.778  0.00  0.00    -0.058 A 
ATOM      3  C5  TBL d          -3.381  -6.304  -8.455  0.00  0.00    -0.049 A 
ATOM      4  C6  TBL d          -4.598  -6.287  -7.762  0.00  0.00     0.068 A 
ATOM      5  C8  TBL d          -4.606  -6.181  -6.383  0.00  0.00    -0.049 A 
ATOM      6  C9  TBL d          -3.367  -6.053  -5.699  0.00  0.00    -0.058 A 
ATOM      7  H6  TBL d          -1.235  -6.083  -8.342  0.00  0.00     0.086 H 
ATOM      8  H7  TBL d          -3.379  -6.453  -9.529  0.00  0.00     0.087 H 
ATOM      9  H8  TBL d          -5.541  -6.195  -5.834  0.00  0.00     0.087 H 
ATOM     10  H9  TBL d          -3.369  -5.979  -4.618  0.00  0.00     0.086 H 
ENDROOT
BRANCH   1  11
ATOM     11  S1  TBL d          -0.699  -5.783  -5.648  0.00  0.00     0.259 S 
ATOM     12  O4  TBL d          -0.280  -7.069  -5.186  0.00  0.00    -0.201 OA
ATOM     13  O3  TBL d           0.148  -5.202  -6.656  0.00  0.00    -0.201 OA
BRANCH  11  14
ATOM     14  N1  TBL d          -0.776  -4.850  -4.336  0.00  0.00    -0.301 N 
ATOM     15  H1  TBL d          -1.006  -5.247  -3.447  0.00  0.00     0.173 HD
BRANCH  14  16
ATOM     16  C2  TBL d          -0.503  -3.409  -4.457  0.00  0.00     0.100 C 
ATOM     17  H2  TBL d           0.072  -3.235  -5.378  0.00  0.00     0.089 H 
BRANCH  16  18
ATOM     18  C10 TBL d           0.321  -2.933  -3.259  0.00  0.00    -0.048 C 
ATOM     19  H3  TBL d          -0.354  -2.639  -2.442  0.00  0.00     0.030 H 
ATOM     20  H4  TBL d           0.934  -2.068  -3.556  0.00  0.00     0.030 H 
ATOM     21  H5  TBL d           0.976  -3.747  -2.918  0.00  0.00     0.030 H 
ENDBRANCH  16  18
BRANCH  16  22
ATOM     22  C1  TBL d          -1.786  -2.623  -4.532  0.00  0.00     0.196 C 
ATOM     23  O2  TBL d          -1.859  -1.543  -5.084  0.00  0.00    -0.646 OA
ATOM     24  O1  TBL d          -2.886  -3.130  -3.977  0.00  0.00    -0.646 OA
ENDBRANCH  16  22
ENDBRANCH  14  16
ENDBRANCH  11  14
ENDBRANCH   1  11
BRANCH   4  25
ATOM     25  O5  TBL d          -5.765  -6.462  -8.488  0.00  0.00    -0.356 OA
BRANCH  25  26
ATOM     26  C7  TBL d          -5.832  -6.962  -9.815  0.00  0.00     0.010 C 
ATOM     27  H10 TBL d          -6.078  -6.142 -10.504  0.00  0.00     0.066 H 
ATOM     28  H11 TBL d          -6.610  -7.738  -9.875  0.00  0.00     0.066 H 
ATOM     29  H12 TBL d          -4.860  -7.396 -10.093  0.00  0.00     0.066 H 
ENDBRANCH  25  26
ENDBRANCH   4  25
TORSDOF 7
ENDMDL
MODEL 2
REMARK VINA RESULT:      -5.9      1.781      3.288
REMARK  7 active torsions:
REMARK  status: ('A' for Active; 'I' for Inactive)
REMARK    1  A    between atoms: S1_2  and  N1_4 
REMARK    2  A    between atoms: S1_2  and  C3_10 
REMARK    3  A    between atoms: N1_4  and  C2_5 
REMARK    4  A    between atoms: C2_5  and  C10_6 
REMARK    5  A    between atoms: C2_5  and  C1_7 
REMARK    6  A    between atoms: C6_13  and  O5_16 
REMARK    7  A    between atoms: O5_16  and  C7_17 
ROOT
ATOM      1  C3  TBL d          -2.794  -4.829  -6.060  0.00  0.00     0.079 A 
ATOM      2  C4  TBL d          -3.999  -5.448  -5.736  0.00  0.00    -0.058 A 
ATOM      3  C5  TBL d          -4.714  -6.174  -6.705  0.00  0.00    -0.049 A 
ATOM      4  C6  TBL d          -4.195  -6.361  -7.992  0.00  0.00     0.068 A 
ATOM      5  C8  TBL d          -3.002  -5.760  -8.351  0.00  0.00    -0.049 A 
ATOM      6  C9  TBL d          -2.306  -4.988  -7.382  0.00  0.00    -0.058 A 
ATOM      7  H6  TBL d          -4.390  -5.369  -4.728  0.00  0.00     0.086 H 
ATOM      8  H7  TBL d          -5.681  -6.594  -6.452  0.00  0.00     0.087 H 
ATOM      9  H8  TBL d          -2.606  -5.875  -9.354  0.00  0.00     0.087 H 
ATOM     10  H9  TBL d          -1.376  -4.507  -7.661  0.00  0.00     0.086 H 
ENDROOT
BRANCH   1  11
ATOM     11  S1  TBL d          -1.979  -4.028  -4.899  0.00  0.00     0.259 S 
ATOM     12  O4  TBL d          -1.228  -3.016  -5.573  0.00  0.00    -0.201 OA
ATOM     13  O3  TBL d          -2.997  -3.529  -4.012  0.00  0.00    -0.201 OA
BRANCH  11  14
ATOM     14  N1  TBL d          -0.898  -4.923  -4.106  0.00  0.00    -0.301 N 
ATOM     15  H1  TBL d           0.056  -4.627  -4.050  0.00  0.00     0.173 HD
BRANCH  14  16
ATOM     16  C2  TBL d          -1.327  -6.176  -3.467  0.00  0.00     0.100 C 
ATOM     17  H2  TBL d          -2.402  -6.111  -3.248  0.00  0.00     0.089 H 
BRANCH  16  18
ATOM     18  C10 TBL d          -0.564  -6.379  -2.156  0.00  0.00    -0.048 C 
ATOM     19  H3  TBL d          -0.342  -7.448  -2.022  0.00  0.00     0.030 H 
ATOM     20  H4  TBL d          -1.178  -6.024  -1.315  0.00  0.00     0.030 H 
ATOM     21  H5  TBL d           0.377  -5.811  -2.188  0.00  0.00     0.030 H 
ENDBRANCH  16  18
BRANCH  16  22
ATOM     22  C1  TBL d          -1.089  -7.353  -4.377  0.00  0.00     0.196 C 
ATOM     23  O2  TBL d           0.016  -7.644  -4.792  0.00  0.00    -0.646 OA
ATOM     24  O1  TBL d          -2.125  -8.109  -4.739  0.00  0.00    -0.646 OA
ENDBRANCH  16  22
ENDBRANCH  14  16
ENDBRANCH  11  14
ENDBRANCH   1  11
BRANCH   4  25
ATOM     25  O5  TBL d          -4.948  -7.088  -8.901  0.00  0.00    -0.356 OA
BRANCH  25  26
ATOM     26  C7  TBL d          -6.243  -6.728  -9.357  0.00  0.00     0.010 C 
ATOM     27  H10 TBL d          -6.835  -6.341  -8.515  0.00  0.00     0.066 H 
ATOM     28  H11 TBL d          -6.742  -7.613  -9.780  0.00  0.00     0.066 H 
ATOM     29  H12 TBL d          -6.157  -5.951 -10.132  0.00  0.00     0.066 H 
ENDBRANCH  25  26
ENDBRANCH   4  25
TORSDOF 7
ENDMDL
MODEL 3
REMARK VINA RESULT:      -5.6      2.044      6.106
REMARK  7 active torsions:
REMARK  status: ('A' for Active; 'I' for Inactive)
REMARK    1  A    between atoms: S1_2  and  N1_4 
REMARK    2  A    between atoms: S1_2  and  C3_10 
REMARK    3  A    between atoms: N1_4  and  C2_5 
REMARK    4  A    between atoms: C2_5  and  C10_6 
REMARK    5  A    between atoms: C2_5  and  C1_7 
REMARK    6  A    between atoms: C6_13  and  O5_16 
REMARK    7  A    between atoms: O5_16  and  C7_17 
ROOT
ATOM      1  C3  TBL d          -1.769  -4.820  -4.904  0.00  0.00     0.079 A 
ATOM      2  C4  TBL d          -0.401  -4.810  -4.637  0.00  0.00    -0.058 A 
ATOM      3  C5  TBL d           0.161  -3.818  -3.815  0.00  0.00    -0.049 A 
ATOM      4  C6  TBL d          -0.648  -2.867  -3.179  0.00  0.00     0.068 A 
ATOM      5  C8  TBL d          -2.009  -2.844  -3.421  0.00  0.00    -0.049 A 
ATOM      6  C9  TBL d          -2.566  -3.821  -4.291  0.00  0.00    -0.058 A 
ATOM      7  H6  TBL d           0.235  -5.575  -5.068  0.00  0.00     0.086 H 
ATOM      8  H7  TBL d           1.235  -3.788  -3.671  0.00  0.00     0.087 H 
ATOM      9  H8  TBL d          -2.640  -2.094  -2.957  0.00  0.00     0.087 H 
ATOM     10  H9  TBL d          -3.631  -3.800  -4.491  0.00  0.00     0.086 H 
ENDROOT
BRANCH   1  11
ATOM     11  S1  TBL d          -2.385  -6.008  -5.832  0.00  0.00     0.259 S 
ATOM     12  O4  TBL d          -1.317  -6.436  -6.680  0.00  0.00    -0.201 OA
ATOM     13  O3  TBL d          -2.846  -7.003  -4.900  0.00  0.00    -0.201 OA
BRANCH  11  14
ATOM     14  N1  TBL d          -3.567  -5.536  -6.820  0.00  0.00    -0.301 N 
ATOM     15  H1  TBL d          -4.025  -4.658  -6.675  0.00  0.00     0.173 HD
BRANCH  14  16
ATOM     16  C2  TBL d          -3.968  -6.407  -7.936  0.00  0.00     0.100 C 
ATOM     17  H2  TBL d          -3.524  -7.401  -7.784  0.00  0.00     0.089 H 
BRANCH  16  18
ATOM     18  C10 TBL d          -3.455  -5.830  -9.257  0.00  0.00    -0.048 C 
ATOM     19  H3  TBL d          -4.200  -5.131  -9.666  0.00  0.00     0.030 H 
ATOM     20  H4  TBL d          -3.287  -6.647  -9.974  0.00  0.00     0.030 H 
ATOM     21  H5  TBL d          -2.510  -5.296  -9.081  0.00  0.00     0.030 H 
ENDBRANCH  16  18
BRANCH  16  22
ATOM     22  C1  TBL d          -5.467  -6.550  -7.995  0.00  0.00     0.196 C 
ATOM     23  O2  TBL d          -6.160  -6.577  -6.997  0.00  0.00    -0.646 OA
ATOM     24  O1  TBL d          -6.059  -6.647  -9.185  0.00  0.00    -0.646 OA
ENDBRANCH  16  22
ENDBRANCH  14  16
ENDBRANCH  11  14
ENDBRANCH   1  11
BRANCH   4  25
ATOM     25  O5  TBL d          -0.033  -1.917  -2.380  0.00  0.00    -0.356 OA
BRANCH  25  26
ATOM     26  C7  TBL d           1.364  -1.661  -2.346  0.00  0.00     0.010 C 
ATOM     27  H10 TBL d           1.908  -2.610  -2.237  0.00  0.00     0.066 H 
ATOM     28  H11 TBL d           1.595  -1.006  -1.493  0.00  0.00     0.066 H 
ATOM     29  H12 TBL d           1.670  -1.169  -3.281  0.00  0.00     0.066 H 
ENDBRANCH  25  26
ENDBRANCH   4  25
TORSDOF 7
ENDMDL
MODEL 4
REMARK VINA RESULT:      -4.7      2.249      5.717
REMARK  7 active torsions:
REMARK  status: ('A' for Active; 'I' for Inactive)
REMARK    1  A    between atoms: S1_2  and  N1_4 
REMARK    2  A    between atoms: S1_2  and  C3_10 
REMARK    3  A    between atoms: N1_4  and  C2_5 
REMARK    4  A    between atoms: C2_5  and  C10_6 
REMARK    5  A    between atoms: C2_5  and  C1_7 
REMARK    6  A    between atoms: C6_13  and  O5_16 
REMARK    7  A    between atoms: O5_16  and  C7_17 
ROOT
ATOM      1  C3  TBL d          -2.009  -5.353  -4.987  0.00  0.00     0.079 A 
ATOM      2  C4  TBL d          -2.503  -4.055  -4.883  0.00  0.00    -0.058 A 
ATOM      3  C5  TBL d          -1.680  -3.010  -4.425  0.00  0.00    -0.049 A 
ATOM      4  C6  TBL d          -0.326  -3.231  -4.143  0.00  0.00     0.068 A 
ATOM      5  C8  TBL d           0.200  -4.507  -4.233  0.00  0.00    -0.049 A 
ATOM      6  C9  TBL d          -0.648  -5.568  -4.651  0.00  0.00    -0.058 A 
ATOM      7  H6  TBL d          -3.532  -3.848  -5.156  0.00  0.00     0.086 H 
ATOM      8  H7  TBL d          -2.100  -2.020  -4.289  0.00  0.00     0.087 H 
ATOM      9  H8  TBL d           1.240  -4.693  -3.990  0.00  0.00     0.087 H 
ATOM     10  H9  TBL d          -0.243  -6.571  -4.714  0.00  0.00     0.086 H 
ENDROOT
BRANCH   1  11
ATOM     11  S1  TBL d          -2.984  -6.527  -5.555  0.00  0.00     0.259 S 
ATOM     12  O4  TBL d          -2.582  -7.726  -4.892  0.00  0.00    -0.201 OA
ATOM     13  O3  TBL d          -4.317  -6.084  -5.238  0.00  0.00    -0.201 OA
BRANCH  11  14
ATOM     14  N1  TBL d          -2.823  -6.822  -7.131  0.00  0.00    -0.301 N 
ATOM     15  H1  TBL d          -2.318  -7.627  -7.444  0.00  0.00     0.173 HD
BRANCH  14  16
ATOM     16  C2  TBL d          -3.425  -5.898  -8.105  0.00  0.00     0.100 C 
ATOM     17  H2  TBL d          -4.148  -5.256  -7.581  0.00  0.00     0.089 H 
BRANCH  16  18
ATOM     18  C10 TBL d          -4.159  -6.690  -9.189  0.00  0.00    -0.048 C 
ATOM     19  H3  TBL d          -3.586  -7.598  -9.431  0.00  0.00     0.030 H 
ATOM     20  H4  TBL d          -4.260  -6.069 -10.092  0.00  0.00     0.030 H 
ATOM     21  H5  TBL d          -5.157  -6.973  -8.825  0.00  0.00     0.030 H 
ENDBRANCH  16  18
BRANCH  16  22
ATOM     22  C1  TBL d          -2.374  -5.025  -8.740  0.00  0.00     0.196 C 
ATOM     23  O2  TBL d          -2.647  -4.153  -9.541  0.00  0.00    -0.646 OA
ATOM     24  O1  TBL d          -1.096  -5.211  -8.411  0.00  0.00    -0.646 OA
ENDBRANCH  16  22
ENDBRANCH  14  16
ENDBRANCH  11  14
ENDBRANCH   1  11
BRANCH   4  25
ATOM     25  O5  TBL d           0.431  -2.159  -3.698  0.00  0.00    -0.356 OA
BRANCH  25  26
ATOM     26  C7  TBL d           0.715  -1.872  -2.337  0.00  0.00     0.010 C 
ATOM     27  H10 TBL d           0.560  -2.776  -1.731  0.00  0.00     0.066 H 
ATOM     28  H11 TBL d           0.045  -1.074  -1.983  0.00  0.00     0.066 H 
ATOM     29  H12 TBL d           1.760  -1.542  -2.242  0.00  0.00     0.066 H 
ENDBRANCH  25  26
ENDBRANCH   4  25
TORSDOF 7
ENDMDL
MODEL 5
REMARK VINA RESULT:      -4.1      2.645      5.529
REMARK  7 active torsions:
REMARK  status: ('A' for Active; 'I' for Inactive)
REMARK    1  A    between atoms: S1_2  and  N1_4 
REMARK    2  A    between atoms: S1_2  and  C3_10 
REMARK    3  A    between atoms: N1_4  and  C2_5 
REMARK    4  A    between atoms: C2_5  and  C10_6 
REMARK    5  A    between atoms: C2_5  and  C1_7 
REMARK    6  A    between atoms: C6_13  and  O5_16 
REMARK    7  A    between atoms: O5_16  and  C7_17 
ROOT
ATOM      1  C3  TBL d          -1.288  -5.943  -6.723  0.00  0.00     0.079 A 
ATOM      2  C4  TBL d          -1.729  -7.051  -6.004  0.00  0.00    -0.058 A 
ATOM      3  C5  TBL d          -1.290  -7.270  -4.686  0.00  0.00    -0.049 A 
ATOM      4  C6  TBL d          -0.467  -6.341  -4.037  0.00  0.00     0.068 A 
ATOM      5  C8  TBL d          -0.008  -5.229  -4.720  0.00  0.00    -0.049 A 
ATOM      6  C9  TBL d          -0.417  -5.037  -6.068  0.00  0.00    -0.058 A 
ATOM      7  H6  TBL d          -2.417  -7.752  -6.464  0.00  0.00     0.086 H 
ATOM      8  H7  TBL d          -1.592  -8.171  -4.164  0.00  0.00     0.087 H 
ATOM      9  H8  TBL d           0.653  -4.518  -4.237  0.00  0.00     0.087 H 
ATOM     10  H9  TBL d          -0.051  -4.172  -6.610  0.00  0.00     0.086 H 
ENDROOT
BRANCH   1  11
ATOM     11  S1  TBL d          -1.849  -5.707  -8.234  0.00  0.00     0.259 S 
ATOM     12  O4  TBL d          -1.191  -4.535  -8.718  0.00  0.00    -0.201 OA
ATOM     13  O3  TBL d          -1.519  -6.916  -8.943  0.00  0.00    -0.201 OA
BRANCH  11  14
ATOM     14  N1  TBL d          -3.427  -5.391  -8.316  0.00  0.00    -0.301 N 
ATOM     15  H1  TBL d          -3.746  -4.466  -8.526  0.00  0.00     0.173 HD
BRANCH  14  16
ATOM     16  C2  TBL d          -4.395  -6.474  -8.081  0.00  0.00     0.100 C 
ATOM     17  H2  TBL d          -3.852  -7.430  -8.045  0.00  0.00     0.089 H 
BRANCH  16  18
ATOM     18  C10 TBL d          -5.410  -6.522  -9.225  0.00  0.00    -0.048 C 
ATOM     19  H3  TBL d          -6.408  -6.751  -8.821  0.00  0.00     0.030 H 
ATOM     20  H4  TBL d          -5.118  -7.303  -9.943  0.00  0.00     0.030 H 
ATOM     21  H5  TBL d          -5.437  -5.547  -9.733  0.00  0.00     0.030 H 
ENDBRANCH  16  18
BRANCH  16  22
ATOM     22  C1  TBL d          -5.115  -6.277  -6.773  0.00  0.00     0.196 C 
ATOM     23  O2  TBL d          -6.246  -6.679  -6.584  0.00  0.00    -0.646 OA
ATOM     24  O1  TBL d          -4.491  -5.642  -5.782  0.00  0.00    -0.646 OA
ENDBRANCH  16  22
ENDBRANCH  14  16
ENDBRANCH  11  14
ENDBRANCH   1  11
BRANCH   4  25
ATOM     25  O5  TBL d          -0.071  -6.614  -2.738  0.00  0.00    -0.356 OA
BRANCH  25  26
ATOM     26  C7  TBL d           0.048  -7.914  -2.179  0.00  0.00     0.010 C 
ATOM     27  H10 TBL d           0.318  -7.833  -1.116  0.00  0.00     0.066 H 
ATOM     28  H11 TBL d           0.830  -8.473  -2.714  0.00  0.00     0.066 H 
ATOM     29  H12 TBL d          -0.912  -8.443  -2.273  0.00  0.00     0.066 H 
ENDBRANCH  25  26
ENDBRANCH   4  25
TORSDOF 7
ENDMDL
