MODEL 1
REMARK VINA RESULT:      -6.7      0.000      0.000
REMARK  6 active torsions:
REMARK  status: ('A' for Active; 'I' for Inactive)
REMARK    1  A    between atoms: N1_2  and  O7_5 
REMARK    2  A    between atoms: C2_3  and  O2_6 
REMARK    3  A    between atoms: C3_7  and  O3_8 
REMARK    4  A    between atoms: C4_9  and  O4_10 
REMARK    5  A    between atoms: C5_11  and  C6_12 
REMARK    6  A    between atoms: C6_12  and  O6_13 
ROOT
ATOM      1  C1  GOX d           0.116  11.146  10.263  0.00  0.00     0.159 C 
ATOM      2  N1  GOX d           0.437  10.875  11.513  0.00  0.00    -0.120 NA
ATOM      3  C2  GOX d           1.256  11.795   9.453  0.00  0.00     0.121 C 
ATOM      4  N5  GOX d          -1.167  10.837   9.770  0.00  0.00    -0.365 N 
ATOM      5  C3  GOX d           0.700  12.281   8.117  0.00  0.00     0.094 C 
ATOM      6  C4  GOX d          -0.197  11.208   7.492  0.00  0.00     0.084 C 
ATOM      7  C5  GOX d          -1.479  11.166   8.372  0.00  0.00     0.058 C 
ATOM      8  H1  GOX d           2.031  11.038   9.263  0.00  0.00     0.099 H 
ATOM      9  H2  GOX d          -1.871  10.390  10.375  0.00  0.00     0.161 HD
ATOM     10  H5  GOX d           0.119  13.203   8.262  0.00  0.00     0.091 H 
ATOM     11  H7  GOX d           0.307  10.231   7.520  0.00  0.00     0.090 H 
ATOM     12  H9  GOX d          -1.953  12.158   8.331  0.00  0.00     0.079 H 
ENDROOT
BRANCH   7  13
ATOM     13  C6  GOX d          -2.489  10.105   7.889  0.00  0.00     0.038 C 
ATOM     14  H10 GOX d          -2.464  10.060   6.790  0.00  0.00     0.077 H 
ATOM     15  H11 GOX d          -3.497  10.391   8.221  0.00  0.00     0.077 H 
BRANCH  13  16
ATOM     16  O6  GOX d          -2.177   8.828   8.410  0.00  0.00    -0.399 OA
ATOM     17  H12 GOX d          -2.354   8.816   9.343  0.00  0.00     0.209 HD
ENDBRANCH  13  16
ENDBRANCH   7  13
BRANCH   6  18
ATOM     18  O4  GOX d          -0.504  11.530   6.141  0.00  0.00    -0.391 OA
ATOM     19  H8  GOX d           0.280  11.844   5.705  0.00  0.00     0.210 HD
ENDBRANCH   6  18
BRANCH   5  20
ATOM     20  O3  GOX d           1.824  12.535   7.277  0.00  0.00    -0.390 OA
ATOM     21  H6  GOX d           1.842  11.898   6.573  0.00  0.00     0.210 HD
ENDBRANCH   5  20
BRANCH   2  22
ATOM     22  O7  GOX d          -0.514  10.252  12.325  0.00  0.00    -0.265 OA
ATOM     23  H3  GOX d          -0.400   9.310  12.280  0.00  0.00     0.247 HD
ENDBRANCH   2  22
BRANCH   3  24
ATOM     24  O2  GOX d           1.840  12.863  10.158  0.00  0.00    -0.385 OA
ATOM     25  H4  GOX d           2.637  12.564  10.580  0.00  0.00     0.210 HD
ENDBRANCH   3  24
TORSDOF 6
ENDMDL
MODEL 2
REMARK VINA RESULT:      -5.8      1.538      3.068
REMARK  6 active torsions:
REMARK  status: ('A' for Active; 'I' for Inactive)
REMARK    1  A    between atoms: N1_2  and  O7_5 
REMARK    2  A    between atoms: C2_3  and  O2_6 
REMARK    3  A    between atoms: C3_7  and  O3_8 
REMARK    4  A    between atoms: C4_9  and  O4_10 
REMARK    5  A    between atoms: C5_11  and  C6_12 
REMARK    6  A    between atoms: C6_12  and  O6_13 
ROOT
ATOM      1  C1  GOX d           0.952  11.951   9.797  0.00  0.00     0.159 C 
ATOM      2  N1  GOX d           1.762  12.950  10.085  0.00  0.00    -0.120 NA
ATOM      3  C2  GOX d           1.014  11.503   8.324  0.00  0.00     0.121 C 
ATOM      4  N5  GOX d           0.134  11.382  10.793  0.00  0.00    -0.365 N 
ATOM      5  C3  GOX d          -0.125  10.523   8.055  0.00  0.00     0.094 C 
ATOM      6  C4  GOX d          -0.221   9.495   9.187  0.00  0.00     0.084 C 
ATOM      7  C5  GOX d          -0.758  10.276  10.420  0.00  0.00     0.058 C 
ATOM      8  H1  GOX d           1.973  10.992   8.149  0.00  0.00     0.099 H 
ATOM      9  H2  GOX d           0.161  11.733  11.762  0.00  0.00     0.161 HD
ATOM     10  H5  GOX d          -1.078  11.065   7.973  0.00  0.00     0.091 H 
ATOM     11  H7  GOX d           0.775   9.085   9.409  0.00  0.00     0.090 H 
ATOM     12  H9  GOX d          -1.748  10.680  10.163  0.00  0.00     0.079 H 
ENDROOT
BRANCH   7  13
ATOM     13  C6  GOX d          -0.890   9.381  11.670  0.00  0.00     0.038 C 
ATOM     14  H10 GOX d          -0.548   8.365  11.422  0.00  0.00     0.077 H 
ATOM     15  H11 GOX d          -1.945   9.348  11.978  0.00  0.00     0.077 H 
BRANCH  13  16
ATOM     16  O6  GOX d          -0.112   9.880  12.740  0.00  0.00    -0.399 OA
ATOM     17  H12 GOX d          -0.505  10.681  13.069  0.00  0.00     0.209 HD
ENDBRANCH  13  16
ENDBRANCH   7  13
BRANCH   6  18
ATOM     18  O4  GOX d          -1.090   8.427   8.828  0.00  0.00    -0.391 OA
ATOM     19  H8  GOX d          -1.616   8.685   8.080  0.00  0.00     0.210 HD
ENDBRANCH   6  18
BRANCH   5  20
ATOM     20  O3  GOX d           0.178   9.873   6.822  0.00  0.00    -0.390 OA
ATOM     21  H6  GOX d           0.815  10.390   6.342  0.00  0.00     0.210 HD
ENDBRANCH   5  20
BRANCH   2  22
ATOM     22  O7  GOX d           1.810  13.411  11.403  0.00  0.00    -0.265 OA
ATOM     23  H3  GOX d           1.801  12.670  11.997  0.00  0.00     0.247 HD
ENDBRANCH   2  22
BRANCH   3  24
ATOM     24  O2  GOX d           0.930  12.603   7.450  0.00  0.00    -0.385 OA
ATOM     25  H4  GOX d           0.965  13.408   7.953  0.00  0.00     0.210 HD
ENDBRANCH   3  24
TORSDOF 6
ENDMDL
MODEL 3
REMARK VINA RESULT:      -5.7      1.218      3.465
REMARK  6 active torsions:
REMARK  status: ('A' for Active; 'I' for Inactive)
REMARK    1  A    between atoms: N1_2  and  O7_5 
REMARK    2  A    between atoms: C2_3  and  O2_6 
REMARK    3  A    between atoms: C3_7  and  O3_8 
REMARK    4  A    between atoms: C4_9  and  O4_10 
REMARK    5  A    between atoms: C5_11  and  C6_12 
REMARK    6  A    between atoms: C6_12  and  O6_13 
ROOT
ATOM      1  C1  GOX d          -0.458  10.098  10.485  0.00  0.00     0.159 C 
ATOM      2  N1  GOX d          -0.947   9.499  11.553  0.00  0.00    -0.120 NA
ATOM      3  C2  GOX d          -1.356   9.979   9.238  0.00  0.00     0.121 C 
ATOM      4  N5  GOX d           0.776  10.776  10.545  0.00  0.00    -0.365 N 
ATOM      5  C3  GOX d          -0.586  10.488   8.022  0.00  0.00     0.094 C 
ATOM      6  C4  GOX d           0.127  11.801   8.356  0.00  0.00     0.084 C 
ATOM      7  C5  GOX d           1.282  11.419   9.326  0.00  0.00     0.058 C 
ATOM      8  H1  GOX d          -2.248  10.606   9.383  0.00  0.00     0.099 H 
ATOM      9  H2  GOX d           1.311  10.819  11.425  0.00  0.00     0.161 HD
ATOM     10  H5  GOX d           0.155   9.740   7.705  0.00  0.00     0.091 H 
ATOM     11  H7  GOX d          -0.568  12.491   8.856  0.00  0.00     0.090 H 
ATOM     12  H9  GOX d           1.951  10.723   8.800  0.00  0.00     0.079 H 
ENDROOT
BRANCH   7  13
ATOM     13  C6  GOX d           2.094  12.648   9.785  0.00  0.00     0.038 C 
ATOM     14  H10 GOX d           2.021  13.434   9.019  0.00  0.00     0.077 H 
ATOM     15  H11 GOX d           3.146  12.356   9.912  0.00  0.00     0.077 H 
BRANCH  13  16
ATOM     16  O6  GOX d           1.604  13.154  11.011  0.00  0.00    -0.399 OA
ATOM     17  H12 GOX d           1.296  14.044  10.885  0.00  0.00     0.209 HD
ENDBRANCH  13  16
ENDBRANCH   7  13
BRANCH   6  18
ATOM     18  O4  GOX d           0.623  12.422   7.175  0.00  0.00    -0.391 OA
ATOM     19  H8  GOX d           1.433  12.001   6.913  0.00  0.00     0.210 HD
ENDBRANCH   6  18
BRANCH   5  20
ATOM     20  O3  GOX d          -1.547  10.696   6.989  0.00  0.00    -0.390 OA
ATOM     21  H6  GOX d          -1.164  11.234   6.306  0.00  0.00     0.210 HD
ENDBRANCH   5  20
BRANCH   2  22
ATOM     22  O7  GOX d          -0.227   9.577  12.748  0.00  0.00    -0.265 OA
ATOM     23  H3  GOX d          -0.813   9.421  13.480  0.00  0.00     0.247 HD
ENDBRANCH   2  22
BRANCH   3  24
ATOM     24  O2  GOX d          -1.774   8.651   9.033  0.00  0.00    -0.385 OA
ATOM     25  H4  GOX d          -1.050   8.062   9.209  0.00  0.00     0.210 HD
ENDBRANCH   3  24
TORSDOF 6
ENDMDL
MODEL 4
REMARK VINA RESULT:      -5.5      1.689      3.582
REMARK  6 active torsions:
REMARK  status: ('A' for Active; 'I' for Inactive)
REMARK    1  A    between atoms: N1_2  and  O7_5 
REMARK    2  A    between atoms: C2_3  and  O2_6 
REMARK    3  A    between atoms: C3_7  and  O3_8 
REMARK    4  A    between atoms: C4_9  and  O4_10 
REMARK    5  A    between atoms: C5_11  and  C6_12 
REMARK    6  A    between atoms: C6_12  and  O6_13 
ROOT
ATOM      1  C1  GOX d          -0.034  11.341   7.631  0.00  0.00     0.159 C 
ATOM      2  N1  GOX d          -0.205  11.677   6.368  0.00  0.00    -0.120 NA
ATOM      3  C2  GOX d           0.908  12.284   8.405  0.00  0.00     0.121 C 
ATOM      4  N5  GOX d          -0.688  10.214   8.167  0.00  0.00    -0.365 N 
ATOM      5  C3  GOX d           1.222  11.665   9.765  0.00  0.00     0.094 C 
ATOM      6  C4  GOX d          -0.058  11.126  10.411  0.00  0.00     0.084 C 
ATOM      7  C5  GOX d          -0.457   9.875   9.578  0.00  0.00     0.058 C 
ATOM      8  H1  GOX d           0.398  13.246   8.559  0.00  0.00     0.099 H 
ATOM      9  H2  GOX d          -1.314   9.640   7.583  0.00  0.00     0.161 HD
ATOM     10  H5  GOX d           1.945  10.845   9.649  0.00  0.00     0.091 H 
ATOM     11  H7  GOX d          -0.855  11.882  10.356  0.00  0.00     0.090 H 
ATOM     12  H9  GOX d           0.362   9.146   9.646  0.00  0.00     0.079 H 
ENDROOT
BRANCH   7  13
ATOM     13  C6  GOX d          -1.758   9.220  10.088  0.00  0.00     0.038 C 
ATOM     14  H10 GOX d          -2.018   8.378   9.430  0.00  0.00     0.077 H 
ATOM     15  H11 GOX d          -2.567   9.965  10.066  0.00  0.00     0.077 H 
BRANCH  13  16
ATOM     16  O6  GOX d          -1.605   8.743  11.410  0.00  0.00    -0.399 OA
ATOM     17  H12 GOX d          -1.304   9.451  11.968  0.00  0.00     0.209 HD
ENDBRANCH  13  16
ENDBRANCH   7  13
BRANCH   6  18
ATOM     18  O4  GOX d           0.166  10.793  11.776  0.00  0.00    -0.391 OA
ATOM     19  H8  GOX d           0.017  11.559  12.317  0.00  0.00     0.210 HD
ENDBRANCH   6  18
BRANCH   5  20
ATOM     20  O3  GOX d           1.781  12.704  10.566  0.00  0.00    -0.390 OA
ATOM     21  H6  GOX d           2.576  13.024  10.157  0.00  0.00     0.210 HD
ENDBRANCH   5  20
BRANCH   2  22
ATOM     22  O7  GOX d          -1.070  10.908   5.585  0.00  0.00    -0.265 OA
ATOM     23  H3  GOX d          -1.889  11.375   5.466  0.00  0.00     0.247 HD
ENDBRANCH   2  22
BRANCH   3  24
ATOM     24  O2  GOX d           2.096  12.520   7.689  0.00  0.00    -0.385 OA
ATOM     25  H4  GOX d           2.337  11.737   7.209  0.00  0.00     0.210 HD
ENDBRANCH   3  24
TORSDOF 6
ENDMDL
MODEL 5
REMARK VINA RESULT:      -5.3      1.095      3.601
REMARK  6 active torsions:
REMARK  status: ('A' for Active; 'I' for Inactive)
REMARK    1  A    between atoms: N1_2  and  O7_5 
REMARK    2  A    between atoms: C2_3  and  O2_6 
REMARK    3  A    between atoms: C3_7  and  O3_8 
REMARK    4  A    between atoms: C4_9  and  O4_10 
REMARK    5  A    between atoms: C5_11  and  C6_12 
REMARK    6  A    between atoms: C6_12  and  O6_13 
ROOT
ATOM      1  C1  GOX d          -1.179  10.576   8.300  0.00  0.00     0.159 C 
ATOM      2  N1  GOX d          -2.293  10.204   7.701  0.00  0.00    -0.120 NA
ATOM      3  C2  GOX d          -0.307  11.529   7.459  0.00  0.00     0.121 C 
ATOM      4  N5  GOX d          -0.875  10.115   9.596  0.00  0.00    -0.365 N 
ATOM      5  C3  GOX d           1.049  11.692   8.141  0.00  0.00     0.094 C 
ATOM      6  C4  GOX d           0.864  11.915   9.645  0.00  0.00     0.084 C 
ATOM      7  C5  GOX d           0.383  10.551  10.218  0.00  0.00     0.058 C 
ATOM      8  H1  GOX d          -0.802  12.511   7.409  0.00  0.00     0.099 H 
ATOM      9  H2  GOX d          -1.519   9.487  10.097  0.00  0.00     0.161 HD
ATOM     10  H5  GOX d           1.664  10.796   7.978  0.00  0.00     0.091 H 
ATOM     11  H7  GOX d           0.099  12.685   9.821  0.00  0.00     0.090 H 
ATOM     12  H9  GOX d           1.164   9.804  10.017  0.00  0.00     0.079 H 
ENDROOT
BRANCH   7  13
ATOM     13  C6  GOX d           0.122  10.611  11.737  0.00  0.00     0.038 C 
ATOM     14  H10 GOX d           1.064  10.422  12.272  0.00  0.00     0.077 H 
ATOM     15  H11 GOX d          -0.614   9.839  12.005  0.00  0.00     0.077 H 
BRANCH  13  16
ATOM     16  O6  GOX d          -0.378  11.878  12.119  0.00  0.00    -0.399 OA
ATOM     17  H12 GOX d          -0.488  12.420  11.347  0.00  0.00     0.209 HD
ENDBRANCH  13  16
ENDBRANCH   7  13
BRANCH   6  18
ATOM     18  O4  GOX d           2.084  12.332  10.248  0.00  0.00    -0.391 OA
ATOM     19  H8  GOX d           2.220  13.257  10.080  0.00  0.00     0.210 HD
ENDBRANCH   6  18
BRANCH   5  20
ATOM     20  O3  GOX d           1.670  12.829   7.546  0.00  0.00    -0.390 OA
ATOM     21  H6  GOX d           2.614  12.727   7.581  0.00  0.00     0.210 HD
ENDBRANCH   5  20
BRANCH   2  22
ATOM     22  O7  GOX d          -3.173   9.367   8.391  0.00  0.00    -0.265 OA
ATOM     23  H3  GOX d          -4.002   9.329   7.927  0.00  0.00     0.247 HD
ENDBRANCH   2  22
BRANCH   3  24
ATOM     24  O2  GOX d          -0.141  11.047   6.148  0.00  0.00    -0.385 OA
ATOM     25  H4  GOX d          -0.677  11.559   5.553  0.00  0.00     0.210 HD
ENDBRANCH   3  24
TORSDOF 6
ENDMDL
MODEL 6
REMARK VINA RESULT:      -5.2      1.779      4.086
REMARK  6 active torsions:
REMARK  status: ('A' for Active; 'I' for Inactive)
REMARK    1  A    between atoms: N1_2  and  O7_5 
REMARK    2  A    between atoms: C2_3  and  O2_6 
REMARK    3  A    between atoms: C3_7  and  O3_8 
REMARK    4  A    between atoms: C4_9  and  O4_10 
REMARK    5  A    between atoms: C5_11  and  C6_12 
REMARK    6  A    between atoms: C6_12  and  O6_13 
ROOT
ATOM      1  C1  GOX d           0.525  11.210   9.137  0.00  0.00     0.159 C 
ATOM      2  N1  GOX d           1.461  11.882   8.497  0.00  0.00    -0.120 NA
ATOM      3  C2  GOX d          -0.426  10.428   8.210  0.00  0.00     0.121 C 
ATOM      4  N5  GOX d           0.458  11.239  10.545  0.00  0.00    -0.365 N 
ATOM      5  C3  GOX d          -1.598   9.899   9.033  0.00  0.00     0.094 C 
ATOM      6  C4  GOX d          -1.093   9.285  10.343  0.00  0.00     0.084 C 
ATOM      7  C5  GOX d          -0.610  10.481  11.211  0.00  0.00     0.058 C 
ATOM      8  H1  GOX d           0.121   9.576   7.779  0.00  0.00     0.099 H 
ATOM      9  H2  GOX d           1.142  11.779  11.094  0.00  0.00     0.161 HD
ATOM     10  H5  GOX d          -2.299  10.715   9.260  0.00  0.00     0.091 H 
ATOM     11  H7  GOX d          -0.252   8.606  10.141  0.00  0.00     0.090 H 
ATOM     12  H9  GOX d          -1.469  11.144  11.386  0.00  0.00     0.079 H 
ENDROOT
BRANCH   7  13
ATOM     13  C6  GOX d          -0.039  10.027  12.571  0.00  0.00     0.038 C 
ATOM     14  H10 GOX d          -0.872   9.764  13.240  0.00  0.00     0.077 H 
ATOM     15  H11 GOX d           0.539  10.852  13.011  0.00  0.00     0.077 H 
BRANCH  13  16
ATOM     16  O6  GOX d           0.804   8.902  12.421  0.00  0.00    -0.399 OA
ATOM     17  H12 GOX d           1.633   9.068  12.855  0.00  0.00     0.209 HD
ENDBRANCH  13  16
ENDBRANCH   7  13
BRANCH   6  18
ATOM     18  O4  GOX d          -2.128   8.555  10.991  0.00  0.00    -0.391 OA
ATOM     19  H8  GOX d          -2.920   9.080  11.010  0.00  0.00     0.210 HD
ENDBRANCH   6  18
BRANCH   5  20
ATOM     20  O3  GOX d          -2.240   8.906   8.237  0.00  0.00    -0.390 OA
ATOM     21  H6  GOX d          -1.654   8.631   7.542  0.00  0.00     0.210 HD
ENDBRANCH   5  20
BRANCH   2  22
ATOM     22  O7  GOX d           2.398  12.597   9.246  0.00  0.00    -0.265 OA
ATOM     23  H3  GOX d           2.104  13.496   9.345  0.00  0.00     0.247 HD
ENDBRANCH   2  22
BRANCH   3  24
ATOM     24  O2  GOX d          -0.893  11.236   7.157  0.00  0.00    -0.385 OA
ATOM     25  H4  GOX d          -0.894  10.735   6.351  0.00  0.00     0.210 HD
ENDBRANCH   3  24
TORSDOF 6
ENDMDL
MODEL 7
REMARK VINA RESULT:      -4.9      1.784      4.143
REMARK  6 active torsions:
REMARK  status: ('A' for Active; 'I' for Inactive)
REMARK    1  A    between atoms: N1_2  and  O7_5 
REMARK    2  A    between atoms: C2_3  and  O2_6 
REMARK    3  A    between atoms: C3_7  and  O3_8 
REMARK    4  A    between atoms: C4_9  and  O4_10 
REMARK    5  A    between atoms: C5_11  and  C6_12 
REMARK    6  A    between atoms: C6_12  and  O6_13 
ROOT
ATOM      1  C1  GOX d          -1.403  10.417   8.735  0.00  0.00     0.159 C 
ATOM      2  N1  GOX d          -2.396   9.778   8.149  0.00  0.00    -0.120 NA
ATOM      3  C2  GOX d          -0.795   9.663   9.933  0.00  0.00     0.121 C 
ATOM      4  N5  GOX d          -0.978  11.672   8.255  0.00  0.00    -0.365 N 
ATOM      5  C3  GOX d           0.164  10.593  10.671  0.00  0.00     0.094 C 
ATOM      6  C4  GOX d           1.057  11.336   9.673  0.00  0.00     0.084 C 
ATOM      7  C5  GOX d           0.127  12.349   8.947  0.00  0.00     0.058 C 
ATOM      8  H1  GOX d          -0.232   8.796   9.556  0.00  0.00     0.099 H 
ATOM      9  H2  GOX d          -1.431  12.105   7.437  0.00  0.00     0.161 HD
ATOM     10  H5  GOX d          -0.403  11.323  11.267  0.00  0.00     0.091 H 
ATOM     11  H7  GOX d           1.479  10.628   8.944  0.00  0.00     0.090 H 
ATOM     12  H9  GOX d          -0.285  13.035   9.702  0.00  0.00     0.079 H 
ENDROOT
BRANCH   7  13
ATOM     13  C6  GOX d           0.875  13.170   7.876  0.00  0.00     0.038 C 
ATOM     14  H10 GOX d           1.201  14.124   8.317  0.00  0.00     0.077 H 
ATOM     15  H11 GOX d           0.194  13.369   7.035  0.00  0.00     0.077 H 
BRANCH  13  16
ATOM     16  O6  GOX d           2.008  12.473   7.397  0.00  0.00    -0.399 OA
ATOM     17  H12 GOX d           2.693  13.095   7.181  0.00  0.00     0.209 HD
ENDBRANCH  13  16
ENDBRANCH   7  13
BRANCH   6  18
ATOM     18  O4  GOX d           2.124  11.997  10.343  0.00  0.00    -0.391 OA
ATOM     19  H8  GOX d           2.346  11.517  11.133  0.00  0.00     0.210 HD
ENDBRANCH   6  18
BRANCH   5  20
ATOM     20  O3  GOX d           0.955   9.770  11.525  0.00  0.00    -0.390 OA
ATOM     21  H6  GOX d           0.410   9.422  12.221  0.00  0.00     0.210 HD
ENDBRANCH   5  20
BRANCH   2  22
ATOM     22  O7  GOX d          -2.996  10.359   7.029  0.00  0.00    -0.265 OA
ATOM     23  H3  GOX d          -3.226  11.260   7.226  0.00  0.00     0.247 HD
ENDBRANCH   2  22
BRANCH   3  24
ATOM     24  O2  GOX d          -1.796   9.198  10.806  0.00  0.00    -0.385 OA
ATOM     25  H4  GOX d          -2.497   8.802  10.301  0.00  0.00     0.210 HD
ENDBRANCH   3  24
TORSDOF 6
ENDMDL
MODEL 8
REMARK VINA RESULT:      -3.9      1.635      4.884
REMARK  6 active torsions:
REMARK  status: ('A' for Active; 'I' for Inactive)
REMARK    1  A    between atoms: N1_2  and  O7_5 
REMARK    2  A    between atoms: C2_3  and  O2_6 
REMARK    3  A    between atoms: C3_7  and  O3_8 
REMARK    4  A    between atoms: C4_9  and  O4_10 
REMARK    5  A    between atoms: C5_11  and  C6_12 
REMARK    6  A    between atoms: C6_12  and  O6_13 
ROOT
ATOM      1  C1  GOX d          -1.005  10.611   8.245  0.00  0.00     0.159 C 
ATOM      2  N1  GOX d          -1.361  10.592   6.976  0.00  0.00    -0.120 NA
ATOM      3  C2  GOX d          -1.620   9.473   9.083  0.00  0.00     0.121 C 
ATOM      4  N5  GOX d          -0.130  11.605   8.728  0.00  0.00    -0.365 N 
ATOM      5  C3  GOX d          -1.339   9.738  10.560  0.00  0.00     0.094 C 
ATOM      6  C4  GOX d           0.120  10.160  10.757  0.00  0.00     0.084 C 
ATOM      7  C5  GOX d           0.230  11.589  10.152  0.00  0.00     0.058 C 
ATOM      8  H1  GOX d          -1.144   8.524   8.794  0.00  0.00     0.099 H 
ATOM      9  H2  GOX d           0.248  12.327   8.097  0.00  0.00     0.161 HD
ATOM     10  H5  GOX d          -2.003  10.531  10.934  0.00  0.00     0.091 H 
ATOM     11  H7  GOX d           0.787   9.474  10.217  0.00  0.00     0.090 H 
ATOM     12  H9  GOX d          -0.455  12.247  10.706  0.00  0.00     0.079 H 
ENDROOT
BRANCH   7  13
ATOM     13  C6  GOX d           1.661  12.158  10.247  0.00  0.00     0.038 C 
ATOM     14  H10 GOX d           1.997  12.455   9.243  0.00  0.00     0.077 H 
ATOM     15  H11 GOX d           2.330  11.381  10.643  0.00  0.00     0.077 H 
BRANCH  13  16
ATOM     16  O6  GOX d           1.707  13.285  11.100  0.00  0.00    -0.399 OA
ATOM     17  H12 GOX d           1.247  13.088  11.908  0.00  0.00     0.209 HD
ENDBRANCH  13  16
ENDBRANCH   7  13
BRANCH   6  18
ATOM     18  O4  GOX d           0.467  10.151  12.137  0.00  0.00    -0.391 OA
ATOM     19  H8  GOX d          -0.020  10.829  12.590  0.00  0.00     0.210 HD
ENDBRANCH   6  18
BRANCH   5  20
ATOM     20  O3  GOX d          -1.597   8.516  11.249  0.00  0.00    -0.390 OA
ATOM     21  H6  GOX d          -1.879   8.708  12.136  0.00  0.00     0.210 HD
ENDBRANCH   5  20
BRANCH   2  22
ATOM     22  O7  GOX d          -0.831  11.561   6.120  0.00  0.00    -0.265 OA
ATOM     23  H3  GOX d           0.082  11.709   6.337  0.00  0.00     0.247 HD
ENDBRANCH   2  22
BRANCH   3  24
ATOM     24  O2  GOX d          -3.004   9.364   8.859  0.00  0.00    -0.385 OA
ATOM     25  H4  GOX d          -3.404  10.223   8.929  0.00  0.00     0.210 HD
ENDBRANCH   3  24
TORSDOF 6
ENDMDL
