MODEL 1
REMARK VINA RESULT:      -8.5      0.000      0.000
REMARK  29 active torsions:
REMARK  status: ('A' for Active; 'I' for Inactive)
REMARK    1  A    between atoms: CR1_1  and  OR1_7 
REMARK    2  A    between atoms: CR2_2  and  OR2_8 
REMARK    3  A    between atoms: CR3_3  and  OR3_9 
REMARK    4  A    between atoms: OR4_10  and  CR4_4 
REMARK    5  A    between atoms: CR5_5  and  CR6_6 
REMARK    6  A    between atoms: CR6_6  and  OR6_12 
REMARK    7  A    between atoms: CV1_13  and  OR4_10 
REMARK    8  A    between atoms: CV2_14  and  OV2_19 
REMARK    9  A    between atoms: CV3_15  and  OV3_20 
REMARK   10  A    between atoms: NV4_21  and  CV4_16 
REMARK   11  A    between atoms: CV5_17  and  CV6_18 
REMARK   12  A    between atoms: CY1_45  and  NV4_21 
REMARK   13  A    between atoms: OY4_51  and  CQ1_23 
REMARK   14  A    between atoms: CQ2_24  and  OQ2_29 
REMARK   15  A    between atoms: CQ3_25  and  OQ3_30 
REMARK   16  A    between atoms: CQ4_26  and  OQ4_31 
REMARK   17  A    between atoms: CQ5_27  and  CQ6_28 
REMARK   18  A    between atoms: CQ6_28  and  OQ6_33 
REMARK   19  A    between atoms: OQ4_31  and  CW1_34 
REMARK   20  A    between atoms: CW2_35  and  OW2_40 
REMARK   21  A    between atoms: CW3_36  and  OW3_41 
REMARK   22  A    between atoms: CW4_37  and  OW4_42 
REMARK   23  A    between atoms: CW5_38  and  CW6_39 
REMARK   24  A    between atoms: CW6_39  and  OW6_44 
REMARK   25  A    between atoms: CY2_46  and  OY2_47 
REMARK   26  A    between atoms: CY3_48  and  OY3_49 
REMARK   27  A    between atoms: CY4_50  and  OY4_51 
REMARK   28  A    between atoms: CY5_52  and  CY7_54 
REMARK   29  A    between atoms: CY7_54  and  OY7_55 
ROOT
ATOM      1  CY1 MOL d           9.955  17.455  44.837  0.00  0.00     0.130 C 
ATOM      2  CY2 MOL d          10.964  18.668  44.883  0.00  0.00     0.090 C 
ATOM      3  CY3 MOL d          11.691  18.818  43.473  0.00  0.00     0.087 C 
ATOM      4  CY4 MOL d          12.450  17.461  43.053  0.00  0.00     0.074 C 
ATOM      5  CY5 MOL d          11.635  16.208  43.377  0.00  0.00    -0.004 C 
ATOM      6  CY6 MOL d          10.889  16.236  44.502  0.00  0.00    -0.028 C 
ATOM      7  H45 MOL d           9.490  17.293  45.820  0.00  0.00     0.088 H 
ATOM      8  H46 MOL d          11.723  18.464  45.654  0.00  0.00     0.090 H 
ATOM      9  H48 MOL d          10.921  19.026  42.716  0.00  0.00     0.091 H 
ATOM     10  H50 MOL d          13.423  17.420  43.564  0.00  0.00     0.088 H 
ATOM     11  H51 MOL d          10.917  16.117  42.549  0.00  0.00     0.047 H 
ATOM     12  H52 MOL d          10.240  15.348  44.467  0.00  0.00     0.036 H 
ATOM     13  H53 MOL d          11.592  16.143  45.343  0.00  0.00     0.036 H 
ENDROOT
BRANCH   1  14
ATOM     14  NV4 MOL d           8.840  17.783  43.830  0.00  0.00    -0.059 N 
ATOM     15  H22 MOL d           8.119  18.263  44.345  0.00  0.00     0.278 HD
ATOM     16  H23 MOL d           9.242  18.408  43.149  0.00  0.00     0.278 HD
BRANCH  14  17
ATOM     17  CV4 MOL d           8.169  16.705  43.070  0.00  0.00     0.153 C 
ATOM     18  CV3 MOL d           6.821  16.355  43.738  0.00  0.00     0.094 C 
ATOM     19  CV2 MOL d           6.150  15.239  42.942  0.00  0.00     0.110 C 
ATOM     20  H14 MOL d           6.175  17.246  43.756  0.00  0.00     0.090 H 
ATOM     21  CV1 MOL d           5.921  15.630  41.486  0.00  0.00     0.159 C 
ATOM     22  H13 MOL d           6.819  14.366  42.964  0.00  0.00     0.094 H 
ATOM     23  OV5 MOL d           7.174  16.074  40.899  0.00  0.00    -0.351 OA
ATOM     24  H12 MOL d           5.586  14.730  40.951  0.00  0.00     0.133 H 
ATOM     25  CV5 MOL d           7.848  17.179  41.607  0.00  0.00     0.068 C 
ATOM     26  H16 MOL d           7.183  18.054  41.642  0.00  0.00     0.086 H 
ATOM     27  H15 MOL d           8.819  15.818  43.043  0.00  0.00     0.092 H 
BRANCH  18  28
ATOM     28  OV3 MOL d           7.027  15.893  45.052  0.00  0.00    -0.391 OA
ATOM     29  H21 MOL d           7.823  15.375  45.083  0.00  0.00     0.210 HD
ENDBRANCH  18  28
BRANCH  19  30
ATOM     30  OV2 MOL d           4.913  14.864  43.504  0.00  0.00    -0.388 OA
ATOM     31  H20 MOL d           4.974  13.977  43.839  0.00  0.00     0.210 HD
ENDBRANCH  19  30
BRANCH  21  32
ATOM     32  OR4 MOL d           4.954  16.610  41.303  0.00  0.00    -0.348 OA
BRANCH  32  33
ATOM     33  CR4 MOL d           4.108  16.409  40.172  0.00  0.00     0.096 C 
ATOM     34  CR3 MOL d           4.992  16.068  38.945  0.00  0.00     0.092 C 
ATOM     35  CR2 MOL d           4.082  15.842  37.732  0.00  0.00     0.110 C 
ATOM     36  H3  MOL d           5.582  15.163  39.151  0.00  0.00     0.091 H 
ATOM     37  CR1 MOL d           3.104  14.670  38.020  0.00  0.00     0.156 C 
ATOM     38  H2  MOL d           3.508  16.760  37.537  0.00  0.00     0.094 H 
ATOM     39  OR5 MOL d           2.308  14.969  39.236  0.00  0.00    -0.349 OA
ATOM     40  H1  MOL d           2.419  14.576  37.164  0.00  0.00     0.133 H 
ATOM     41  CR5 MOL d           3.116  15.183  40.443  0.00  0.00     0.089 C 
ATOM     42  H5  MOL d           3.710  14.281  40.652  0.00  0.00     0.090 H 
ATOM     43  H4  MOL d           3.527  17.322  39.975  0.00  0.00     0.091 H 
BRANCH  34  44
ATOM     44  OR3 MOL d           5.852  17.145  38.651  0.00  0.00    -0.390 OA
ATOM     45  H10 MOL d           5.632  17.885  39.204  0.00  0.00     0.210 HD
ENDBRANCH  34  44
BRANCH  35  46
ATOM     46  OR2 MOL d           4.847  15.520  36.592  0.00  0.00    -0.388 OA
ATOM     47  H9  MOL d           5.206  14.646  36.688  0.00  0.00     0.210 HD
ENDBRANCH  35  46
BRANCH  37  48
ATOM     48  OR1 MOL d           3.784  13.436  38.182  0.00  0.00    -0.369 OA
ATOM     49  H8  MOL d           4.701  13.603  38.365  0.00  0.00     0.212 HD
ENDBRANCH  37  48
BRANCH  41  50
ATOM     50  CR6 MOL d           2.249  15.433  41.559  0.00  0.00     0.043 C 
ATOM     51  H6  MOL d           1.210  15.466  41.198  0.00  0.00     0.078 H 
ATOM     52  H7  MOL d           2.515  16.404  42.001  0.00  0.00     0.078 H 
BRANCH  50  53
ATOM     53  OR6 MOL d           2.351  14.431  42.564  0.00  0.00    -0.398 OA
ATOM     54  H11 MOL d           1.578  13.881  42.541  0.00  0.00     0.209 HD
ENDBRANCH  50  53
ENDBRANCH  41  50
ENDBRANCH  32  33
ENDBRANCH  21  32
BRANCH  25  55
ATOM     55  CV6 MOL d           9.130  17.555  40.879  0.00  0.00    -0.050 C 
ATOM     56  H17 MOL d           9.625  16.643  40.513  0.00  0.00     0.031 H 
ATOM     57  H18 MOL d           9.803  18.084  41.570  0.00  0.00     0.031 H 
ATOM     58  H19 MOL d           8.891  18.209  40.028  0.00  0.00     0.031 H 
ENDBRANCH  25  55
ENDBRANCH  14  17
ENDBRANCH   1  14
BRANCH   2  59
ATOM     59  OY2 MOL d          10.315  19.853  45.207  0.00  0.00    -0.391 OA
ATOM     60  H47 MOL d          10.288  20.418  44.443  0.00  0.00     0.210 HD
ENDBRANCH   2  59
BRANCH   3  61
ATOM     61  OY3 MOL d          12.593  19.893  43.484  0.00  0.00    -0.390 OA
ATOM     62  H49 MOL d          12.638  20.257  44.360  0.00  0.00     0.210 HD
ENDBRANCH   3  61
BRANCH   5  63
ATOM     63  CY7 MOL d          12.486  14.909  43.364  0.00  0.00     0.022 C 
ATOM     64  H54 MOL d          12.240  14.323  42.466  0.00  0.00     0.074 H 
ATOM     65  H55 MOL d          12.259  14.317  44.263  0.00  0.00     0.074 H 
BRANCH  63  66
ATOM     66  OY7 MOL d          13.896  15.233  43.350  0.00  0.00    -0.400 OA
ATOM     67  H56 MOL d          14.324  14.813  44.087  0.00  0.00     0.209 HD
ENDBRANCH  63  66
ENDBRANCH   5  63
BRANCH   4  68
ATOM     68  OY4 MOL d          12.622  17.430  41.641  0.00  0.00    -0.350 OA
BRANCH  68  69
ATOM     69  CQ1 MOL d          13.668  18.233  41.144  0.00  0.00     0.159 C 
ATOM     70  CQ2 MOL d          13.421  18.547  39.652  0.00  0.00     0.110 C 
ATOM     71  CQ3 MOL d          13.699  17.321  38.731  0.00  0.00     0.092 C 
ATOM     72  H25 MOL d          14.085  19.372  39.353  0.00  0.00     0.094 H 
ATOM     73  CQ4 MOL d          15.143  16.856  38.937  0.00  0.00     0.096 C 
ATOM     74  H26 MOL d          13.013  16.498  38.980  0.00  0.00     0.091 H 
ATOM     75  CQ5 MOL d          15.229  16.415  40.460  0.00  0.00     0.089 C 
ATOM     76  H27 MOL d          15.851  17.670  38.723  0.00  0.00     0.091 H 
ATOM     77  OQ5 MOL d          14.933  17.544  41.318  0.00  0.00    -0.348 OA
ATOM     78  H28 MOL d          14.489  15.619  40.630  0.00  0.00     0.090 H 
ATOM     79  H24 MOL d          13.696  19.177  41.708  0.00  0.00     0.133 H 
BRANCH  70  80
ATOM     80  OQ2 MOL d          12.073  18.944  39.476  0.00  0.00    -0.388 OA
ATOM     81  H31 MOL d          11.698  18.471  38.743  0.00  0.00     0.210 HD
ENDBRANCH  70  80
BRANCH  71  82
ATOM     82  OQ3 MOL d          13.474  17.743  37.384  0.00  0.00    -0.390 OA
ATOM     83  H32 MOL d          14.259  18.161  37.049  0.00  0.00     0.210 HD
ENDBRANCH  71  82
BRANCH  73  84
ATOM     84  OQ4 MOL d          15.414  15.759  38.111  0.00  0.00    -0.348 OA
BRANCH  84  85
ATOM     85  CW1 MOL d          14.633  14.619  38.501  0.00  0.00     0.159 C 
ATOM     86  CW2 MOL d          15.357  13.276  38.241  0.00  0.00     0.110 C 
ATOM     87  CW3 MOL d          15.571  13.107  36.714  0.00  0.00     0.092 C 
ATOM     88  H35 MOL d          14.746  12.442  38.617  0.00  0.00     0.094 H 
ATOM     89  CW4 MOL d          14.181  13.086  36.053  0.00  0.00     0.090 C 
ATOM     90  H36 MOL d          16.172  13.937  36.315  0.00  0.00     0.091 H 
ATOM     91  CW5 MOL d          13.464  14.462  36.343  0.00  0.00     0.089 C 
ATOM     92  H37 MOL d          13.584  12.259  36.463  0.00  0.00     0.091 H 
ATOM     93  OW5 MOL d          13.347  14.625  37.783  0.00  0.00    -0.348 OA
ATOM     94  H38 MOL d          14.063  15.283  35.923  0.00  0.00     0.090 H 
ATOM     95  H34 MOL d          14.434  14.696  39.580  0.00  0.00     0.133 H 
BRANCH  86  96
ATOM     96  OW2 MOL d          16.584  13.305  38.931  0.00  0.00    -0.388 OA
ATOM     97  H41 MOL d          17.243  12.849  38.422  0.00  0.00     0.210 HD
ENDBRANCH  86  96
BRANCH  87  98
ATOM     98  OW3 MOL d          16.219  11.880  36.475  0.00  0.00    -0.390 OA
ATOM     99  H42 MOL d          15.859  11.480  35.692  0.00  0.00     0.210 HD
ENDBRANCH  87  98
BRANCH  89 100
ATOM    100  OW4 MOL d          14.328  12.923  34.652  0.00  0.00    -0.390 OA
ATOM    101  H43 MOL d          14.859  13.631  34.306  0.00  0.00     0.210 HD
ENDBRANCH  89 100
BRANCH  91 102
ATOM    102  CW6 MOL d          12.054  14.487  35.720  0.00  0.00     0.043 C 
ATOM    103  H39 MOL d          11.439  13.712  36.202  0.00  0.00     0.078 H 
ATOM    104  H40 MOL d          12.136  14.273  34.644  0.00  0.00     0.078 H 
BRANCH 102 105
ATOM    105  OW6 MOL d          11.431  15.731  35.890  0.00  0.00    -0.398 OA
ATOM    106  H44 MOL d          11.664  16.087  36.740  0.00  0.00     0.209 HD
ENDBRANCH 102 105
ENDBRANCH  91 102
ENDBRANCH  84  85
ENDBRANCH  73  84
BRANCH  75 107
ATOM    107  CQ6 MOL d          16.605  15.902  40.869  0.00  0.00     0.043 C 
ATOM    108  H29 MOL d          17.131  16.689  41.431  0.00  0.00     0.078 H 
ATOM    109  H30 MOL d          17.180  15.651  39.965  0.00  0.00     0.078 H 
BRANCH 107 110
ATOM    110  OQ6 MOL d          16.492  14.753  41.678  0.00  0.00    -0.398 OA
ATOM    111  H33 MOL d          17.280  14.229  41.594  0.00  0.00     0.209 HD
ENDBRANCH 107 110
ENDBRANCH  75 107
ENDBRANCH  68  69
ENDBRANCH   4  68
TORSDOF 29
ENDMDL
MODEL 2
REMARK VINA RESULT:      -5.9      2.601      7.101
REMARK  29 active torsions:
REMARK  status: ('A' for Active; 'I' for Inactive)
REMARK    1  A    between atoms: CR1_1  and  OR1_7 
REMARK    2  A    between atoms: CR2_2  and  OR2_8 
REMARK    3  A    between atoms: CR3_3  and  OR3_9 
REMARK    4  A    between atoms: OR4_10  and  CR4_4 
REMARK    5  A    between atoms: CR5_5  and  CR6_6 
REMARK    6  A    between atoms: CR6_6  and  OR6_12 
REMARK    7  A    between atoms: CV1_13  and  OR4_10 
REMARK    8  A    between atoms: CV2_14  and  OV2_19 
REMARK    9  A    between atoms: CV3_15  and  OV3_20 
REMARK   10  A    between atoms: NV4_21  and  CV4_16 
REMARK   11  A    between atoms: CV5_17  and  CV6_18 
REMARK   12  A    between atoms: CY1_45  and  NV4_21 
REMARK   13  A    between atoms: OY4_51  and  CQ1_23 
REMARK   14  A    between atoms: CQ2_24  and  OQ2_29 
REMARK   15  A    between atoms: CQ3_25  and  OQ3_30 
REMARK   16  A    between atoms: CQ4_26  and  OQ4_31 
REMARK   17  A    between atoms: CQ5_27  and  CQ6_28 
REMARK   18  A    between atoms: CQ6_28  and  OQ6_33 
REMARK   19  A    between atoms: OQ4_31  and  CW1_34 
REMARK   20  A    between atoms: CW2_35  and  OW2_40 
REMARK   21  A    between atoms: CW3_36  and  OW3_41 
REMARK   22  A    between atoms: CW4_37  and  OW4_42 
REMARK   23  A    between atoms: CW5_38  and  CW6_39 
REMARK   24  A    between atoms: CW6_39  and  OW6_44 
REMARK   25  A    between atoms: CY2_46  and  OY2_47 
REMARK   26  A    between atoms: CY3_48  and  OY3_49 
REMARK   27  A    between atoms: CY4_50  and  OY4_51 
REMARK   28  A    between atoms: CY5_52  and  CY7_54 
REMARK   29  A    between atoms: CY7_54  and  OY7_55 
ROOT
ATOM      1  CY1 MOL d           5.615  15.159  35.218  0.00  0.00     0.130 C 
ATOM      2  CY2 MOL d           6.459  13.940  34.676  0.00  0.00     0.090 C 
ATOM      3  CY3 MOL d           7.816  13.816  35.502  0.00  0.00     0.087 C 
ATOM      4  CY4 MOL d           8.674  15.177  35.437  0.00  0.00     0.074 C 
ATOM      5  CY5 MOL d           7.802  16.428  35.560  0.00  0.00    -0.004 C 
ATOM      6  CY6 MOL d           6.579  16.380  34.991  0.00  0.00    -0.028 C 
ATOM      7  H45 MOL d           4.704  15.304  34.619  0.00  0.00     0.088 H 
ATOM      8  H46 MOL d           6.703  14.125  33.619  0.00  0.00     0.090 H 
ATOM      9  H48 MOL d           7.555  13.628  36.554  0.00  0.00     0.091 H 
ATOM     10  H50 MOL d           9.237  15.202  34.493  0.00  0.00     0.088 H 
ATOM     11  H51 MOL d           7.621  16.540  36.639  0.00  0.00     0.047 H 
ATOM     12  H52 MOL d           6.038  17.272  35.341  0.00  0.00     0.036 H 
ATOM     13  H53 MOL d           6.739  16.452  33.905  0.00  0.00     0.036 H 
ENDROOT
BRANCH   1  14
ATOM     14  NV4 MOL d           5.192  14.859  36.664  0.00  0.00    -0.059 N 
ATOM     15  H22 MOL d           4.420  15.473  36.872  0.00  0.00     0.278 HD
ATOM     16  H23 MOL d           4.874  13.903  36.679  0.00  0.00     0.278 HD
BRANCH  14  17
ATOM     17  CV4 MOL d           6.155  15.001  37.778  0.00  0.00     0.153 C 
ATOM     18  CV3 MOL d           5.818  16.263  38.603  0.00  0.00     0.094 C 
ATOM     19  CV2 MOL d           6.827  16.392  39.741  0.00  0.00     0.110 C 
ATOM     20  H14 MOL d           4.800  16.177  39.010  0.00  0.00     0.090 H 
ATOM     21  CV1 MOL d           6.831  15.167  40.647  0.00  0.00     0.159 C 
ATOM     22  H13 MOL d           7.826  16.492  39.291  0.00  0.00     0.094 H 
ATOM     23  OV5 MOL d           7.028  13.970  39.846  0.00  0.00    -0.351 OA
ATOM     24  H12 MOL d           7.682  15.268  41.337  0.00  0.00     0.133 H 
ATOM     25  CV5 MOL d           6.056  13.774  38.754  0.00  0.00     0.068 C 
ATOM     26  H16 MOL d           5.040  13.718  39.171  0.00  0.00     0.086 H 
ATOM     27  H15 MOL d           7.175  15.076  37.372  0.00  0.00     0.092 H 
BRANCH  18  28
ATOM     28  OV3 MOL d           5.913  17.417  37.801  0.00  0.00    -0.391 OA
ATOM     29  H21 MOL d           6.780  17.462  37.415  0.00  0.00     0.210 HD
ENDBRANCH  18  28
BRANCH  19  30
ATOM     30  OV2 MOL d           6.582  17.533  40.533  0.00  0.00    -0.388 OA
ATOM     31  H20 MOL d           5.796  17.396  41.048  0.00  0.00     0.210 HD
ENDBRANCH  19  30
BRANCH  21  32
ATOM     32  OR4 MOL d           5.684  15.022  41.418  0.00  0.00    -0.348 OA
BRANCH  32  33
ATOM     33  CR4 MOL d           5.917  14.597  42.760  0.00  0.00     0.096 C 
ATOM     34  CR3 MOL d           7.110  15.402  43.336  0.00  0.00     0.092 C 
ATOM     35  CR2 MOL d           7.354  14.951  44.781  0.00  0.00     0.110 C 
ATOM     36  H3  MOL d           6.883  16.477  43.306  0.00  0.00     0.091 H 
ATOM     37  CR1 MOL d           6.081  15.211  45.633  0.00  0.00     0.156 C 
ATOM     38  H2  MOL d           7.588  13.877  44.789  0.00  0.00     0.094 H 
ATOM     39  OR5 MOL d           4.925  14.495  45.039  0.00  0.00    -0.349 OA
ATOM     40  H1  MOL d           6.258  14.816  46.645  0.00  0.00     0.133 H 
ATOM     41  CR5 MOL d           4.624  14.887  43.657  0.00  0.00     0.089 C 
ATOM     42  H5  MOL d           4.399  15.964  43.621  0.00  0.00     0.090 H 
ATOM     43  H4  MOL d           6.146  13.521  42.774  0.00  0.00     0.091 H 
BRANCH  34  44
ATOM     44  OR3 MOL d           8.279  15.137  42.593  0.00  0.00    -0.390 OA
ATOM     45  H10 MOL d           8.132  15.363  41.682  0.00  0.00     0.210 HD
ENDBRANCH  34  44
BRANCH  35  46
ATOM     46  OR2 MOL d           8.429  15.666  45.348  0.00  0.00    -0.388 OA
ATOM     47  H9  MOL d           8.343  15.668  46.295  0.00  0.00     0.210 HD
ENDBRANCH  35  46
BRANCH  37  48
ATOM     48  OR1 MOL d           5.786  16.593  45.743  0.00  0.00    -0.369 OA
ATOM     49  H8  MOL d           5.022  16.710  46.296  0.00  0.00     0.212 HD
ENDBRANCH  37  48
BRANCH  41  50
ATOM     50  CR6 MOL d           3.477  14.161  43.194  0.00  0.00     0.043 C 
ATOM     51  H6  MOL d           2.944  13.751  44.065  0.00  0.00     0.078 H 
ATOM     52  H7  MOL d           3.819  13.336  42.551  0.00  0.00     0.078 H 
BRANCH  50  53
ATOM     53  OR6 MOL d           2.578  14.975  42.450  0.00  0.00    -0.398 OA
ATOM     54  H11 MOL d           1.687  14.693  42.615  0.00  0.00     0.209 HD
ENDBRANCH  50  53
ENDBRANCH  41  50
ENDBRANCH  32  33
ENDBRANCH  21  32
BRANCH  25  55
ATOM     55  CV6 MOL d           6.365  12.482  38.012  0.00  0.00    -0.050 C 
ATOM     56  H17 MOL d           5.854  12.488  37.037  0.00  0.00     0.031 H 
ATOM     57  H18 MOL d           6.013  11.625  38.606  0.00  0.00     0.031 H 
ATOM     58  H19 MOL d           7.450  12.399  37.856  0.00  0.00     0.031 H 
ENDBRANCH  25  55
ENDBRANCH  14  17
ENDBRANCH   1  14
BRANCH   2  59
ATOM     59  OY2 MOL d           5.743  12.752  34.763  0.00  0.00    -0.391 OA
ATOM     60  H47 MOL d           5.721  12.462  35.667  0.00  0.00     0.210 HD
ENDBRANCH   2  59
BRANCH   3  61
ATOM     61  OY3 MOL d           8.586  12.736  35.044  0.00  0.00    -0.390 OA
ATOM     62  H49 MOL d           9.416  13.059  34.715  0.00  0.00     0.210 HD
ENDBRANCH   3  61
BRANCH   5  63
ATOM     63  CY7 MOL d           8.527  17.722  35.101  0.00  0.00     0.022 C 
ATOM     64  H54 MOL d           8.190  17.986  34.088  0.00  0.00     0.074 H 
ATOM     65  H55 MOL d           9.614  17.546  35.092  0.00  0.00     0.074 H 
BRANCH  63  66
ATOM     66  OY7 MOL d           8.228  18.812  36.003  0.00  0.00    -0.400 OA
ATOM     67  H56 MOL d           9.031  19.274  36.218  0.00  0.00     0.209 HD
ENDBRANCH  63  66
ENDBRANCH   5  63
BRANCH   4  68
ATOM     68  OY4 MOL d           9.557  15.236  36.551  0.00  0.00    -0.350 OA
BRANCH  68  69
ATOM     69  CQ1 MOL d          10.497  16.286  36.518  0.00  0.00     0.159 C 
ATOM     70  CQ2 MOL d          11.919  15.719  36.723  0.00  0.00     0.110 C 
ATOM     71  CQ3 MOL d          12.187  15.301  38.201  0.00  0.00     0.092 C 
ATOM     72  H25 MOL d          12.649  16.491  36.437  0.00  0.00     0.094 H 
ATOM     73  CQ4 MOL d          11.968  16.512  39.112  0.00  0.00     0.096 C 
ATOM     74  H26 MOL d          11.499  14.495  38.496  0.00  0.00     0.091 H 
ATOM     75  CQ5 MOL d          10.439  16.902  38.932  0.00  0.00     0.089 C 
ATOM     76  H27 MOL d          12.623  17.345  38.820  0.00  0.00     0.091 H 
ATOM     77  OQ5 MOL d          10.180  17.255  37.551  0.00  0.00    -0.348 OA
ATOM     78  H28 MOL d           9.826  16.033  39.212  0.00  0.00     0.090 H 
ATOM     79  H24 MOL d          10.449  16.781  35.537  0.00  0.00     0.133 H 
BRANCH  70  80
ATOM     80  OQ2 MOL d          12.092  14.582  35.897  0.00  0.00    -0.388 OA
ATOM     81  H31 MOL d          11.319  14.032  35.952  0.00  0.00     0.210 HD
ENDBRANCH  70  80
BRANCH  71  82
ATOM     82  OQ3 MOL d          13.535  14.832  38.272  0.00  0.00    -0.390 OA
ATOM     83  H32 MOL d          13.989  15.055  37.468  0.00  0.00     0.210 HD
ENDBRANCH  71  82
BRANCH  73  84
ATOM     84  OQ4 MOL d          12.211  16.158  40.444  0.00  0.00    -0.348 OA
BRANCH  84  85
ATOM     85  CW1 MOL d          13.253  16.969  41.008  0.00  0.00     0.159 C 
ATOM     86  CW2 MOL d          14.328  16.139  41.749  0.00  0.00     0.110 C 
ATOM     87  CW3 MOL d          13.671  15.436  42.966  0.00  0.00     0.092 C 
ATOM     88  H35 MOL d          15.134  16.799  42.103  0.00  0.00     0.094 H 
ATOM     89  CW4 MOL d          13.129  16.536  43.896  0.00  0.00     0.090 C 
ATOM     90  H36 MOL d          12.854  14.777  42.635  0.00  0.00     0.091 H 
ATOM     91  CW5 MOL d          12.044  17.371  43.111  0.00  0.00     0.089 C 
ATOM     92  H37 MOL d          13.950  17.194  44.215  0.00  0.00     0.091 H 
ATOM     93  OW5 MOL d          12.673  17.954  41.937  0.00  0.00    -0.348 OA
ATOM     94  H38 MOL d          11.222  16.707  42.803  0.00  0.00     0.090 H 
ATOM     95  H34 MOL d          13.746  17.509  40.185  0.00  0.00     0.133 H 
BRANCH  86  96
ATOM     96  OW2 MOL d          14.856  15.202  40.839  0.00  0.00    -0.388 OA
ATOM     97  H41 MOL d          15.152  14.434  41.313  0.00  0.00     0.210 HD
ENDBRANCH  86  96
BRANCH  87  98
ATOM     98  OW3 MOL d          14.650  14.688  43.648  0.00  0.00    -0.390 OA
ATOM     99  H42 MOL d          15.436  14.638  43.116  0.00  0.00     0.210 HD
ENDBRANCH  87  98
BRANCH  89 100
ATOM    100  OW4 MOL d          12.525  15.937  45.031  0.00  0.00    -0.390 OA
ATOM    101  H43 MOL d          12.834  16.371  45.818  0.00  0.00     0.210 HD
ENDBRANCH  89 100
BRANCH  91 102
ATOM    102  CW6 MOL d          11.482  18.504  43.992  0.00  0.00     0.043 C 
ATOM    103  H39 MOL d          11.889  18.400  45.008  0.00  0.00     0.078 H 
ATOM    104  H40 MOL d          10.386  18.419  44.026  0.00  0.00     0.078 H 
BRANCH 102 105
ATOM    105  OW6 MOL d          11.824  19.769  43.494  0.00  0.00    -0.398 OA
ATOM    106  H44 MOL d          12.732  19.954  43.699  0.00  0.00     0.209 HD
ENDBRANCH 102 105
ENDBRANCH  91 102
ENDBRANCH  84  85
ENDBRANCH  73  84
BRANCH  75 107
ATOM    107  CQ6 MOL d          10.012  18.098  39.776  0.00  0.00     0.043 C 
ATOM    108  H29 MOL d           9.720  17.747  40.777  0.00  0.00     0.078 H 
ATOM    109  H30 MOL d           9.153  18.590  39.296  0.00  0.00     0.078 H 
BRANCH 107 110
ATOM    110  OQ6 MOL d          11.066  19.025  39.900  0.00  0.00    -0.398 OA
ATOM    111  H33 MOL d          11.888  18.598  39.692  0.00  0.00     0.209 HD
ENDBRANCH 107 110
ENDBRANCH  75 107
ENDBRANCH  68  69
ENDBRANCH   4  68
TORSDOF 29
ENDMDL
