MODEL 1
REMARK VINA RESULT:      -8.6      0.000      0.000
REMARK  9 active torsions:
REMARK  status: ('A' for Active; 'I' for Inactive)
REMARK    1  A    between atoms: CAH_1  and  CAG_2 
REMARK       I    between atoms: CAG_2  and  NAI_4 
REMARK    2  A    between atoms: NAI_4  and  CAB_5 
REMARK    3  A    between atoms: CAC_6  and  OAJ_7 
REMARK    4  A    between atoms: CAD_8  and  OAK_9 
REMARK    5  A    between atoms: CAE_10  and  CAF_11 
REMARK    6  A    between atoms: CAF_11  and  OAM_12 
REMARK    7  A    between atoms: NAY_15  and  OAQ_16 
REMARK    8  A    between atoms: OAQ_16  and  CAP_17 
REMARK       I    between atoms: CAP_17  and  NAO_19 
REMARK    9  A    between atoms: NAO_19  and  CAS_20 
ROOT
ATOM      1  CAB OAN d          33.070  42.365  21.412  0.00  0.00     0.105 C 
ATOM      2  CAC OAN d          32.496  42.669  22.831  0.00  0.00     0.089 C 
ATOM      3  CAD OAN d          31.049  42.228  22.953  0.00  0.00     0.090 C 
ATOM      4  CAE OAN d          30.987  40.702  22.756  0.00  0.00     0.094 C 
ATOM      5  OAL OAN d          31.441  40.404  21.411  0.00  0.00    -0.324 OA
ATOM      6  CAA OAN d          32.292  41.234  20.726  0.00  0.00     0.194 C 
ATOM      7  NAY OAN d          32.413  41.065  19.399  0.00  0.00    -0.100 NA
ATOM      8  H5  OAN d          32.957  43.267  20.793  0.00  0.00     0.090 H 
ATOM      9  H6  OAN d          33.090  42.106  23.565  0.00  0.00     0.090 H 
ATOM     10  H8  OAN d          30.451  42.722  22.173  0.00  0.00     0.091 H 
ATOM     11  H10 OAN d          31.703  40.270  23.470  0.00  0.00     0.091 H 
ENDROOT
BRANCH   1  12
ATOM     12  NAI OAN d          34.513  42.072  21.536  0.00  0.00    -0.347 N 
ATOM     13  CAG OAN d          35.031  41.127  22.336  0.00  0.00     0.214 C 
ATOM     14  OAN OAN d          34.365  40.350  23.031  0.00  0.00    -0.274 OA
ATOM     15  H4  OAN d          35.147  42.616  20.986  0.00  0.00     0.163 HD
BRANCH  13  16
ATOM     16  CAH OAN d          36.570  41.068  22.345  0.00  0.00    -0.003 C 
ATOM     17  H1  OAN d          36.915  40.377  21.561  0.00  0.00     0.040 H 
ATOM     18  H2  OAN d          36.918  40.712  23.326  0.00  0.00     0.040 H 
ATOM     19  H3  OAN d          36.977  42.072  22.153  0.00  0.00     0.040 H 
ENDBRANCH  13  16
ENDBRANCH   1  12
BRANCH   7  20
ATOM     20  OAQ OAN d          31.736  40.089  18.681  0.00  0.00    -0.153 OA
BRANCH  20  21
ATOM     21  CAP OAN d          30.524  40.504  18.214  0.00  0.00     0.389 C 
ATOM     22  OAR OAN d          30.105  40.058  17.137  0.00  0.00    -0.236 OA
ATOM     23  NAO OAN d          29.837  41.392  18.986  0.00  0.00    -0.301 N 
ATOM     24  H14 OAN d          30.251  41.671  19.852  0.00  0.00     0.171 HD
BRANCH  23  25
ATOM     25  CAS OAN d          28.615  41.934  18.661  0.00  0.00     0.036 A 
ATOM     26  CAT OAN d          27.385  41.290  18.946  0.00  0.00    -0.057 A 
ATOM     27  CAU OAN d          26.149  41.862  18.588  0.00  0.00    -0.081 A 
ATOM     28  H15 OAN d          27.396  40.332  19.454  0.00  0.00     0.086 H 
ATOM     29  CAV OAN d          26.124  43.094  17.934  0.00  0.00    -0.083 A 
ATOM     30  H16 OAN d          25.222  41.348  18.819  0.00  0.00     0.083 H 
ATOM     31  CAW OAN d          27.326  43.760  17.649  0.00  0.00    -0.081 A 
ATOM     32  H17 OAN d          25.177  43.537  17.646  0.00  0.00     0.083 H 
ATOM     33  CAX OAN d          28.552  43.183  18.016  0.00  0.00    -0.057 A 
ATOM     34  H18 OAN d          27.308  44.720  17.145  0.00  0.00     0.083 H 
ATOM     35  H19 OAN d          29.473  43.713  17.797  0.00  0.00     0.086 H 
ENDBRANCH  23  25
ENDBRANCH  20  21
ENDBRANCH   7  20
BRANCH   2  36
ATOM     36  OAJ OAN d          32.605  44.054  23.135  0.00  0.00    -0.390 OA
ATOM     37  H7  OAN d          31.742  44.407  23.319  0.00  0.00     0.210 HD
ENDBRANCH   2  36
BRANCH   4  38
ATOM     38  CAF OAN d          29.637  39.959  22.988  0.00  0.00     0.044 C 
ATOM     39  H11 OAN d          29.200  40.291  23.941  0.00  0.00     0.078 H 
ATOM     40  H12 OAN d          29.823  38.876  23.027  0.00  0.00     0.078 H 
BRANCH  38  41
ATOM     41  OAM OAN d          28.722  40.241  21.929  0.00  0.00    -0.398 OA
ATOM     42  H13 OAN d          28.359  39.427  21.600  0.00  0.00     0.209 HD
ENDBRANCH  38  41
ENDBRANCH   4  38
BRANCH   3  43
ATOM     43  OAK OAN d          30.524  42.580  24.228  0.00  0.00    -0.390 OA
ATOM     44  H9  OAN d          31.040  42.163  24.908  0.00  0.00     0.210 HD
ENDBRANCH   3  43
TORSDOF 9
ENDMDL
