MODEL 1
REMARK VINA RESULT:     -10.8      0.000      0.000
REMARK  8 active torsions:
REMARK  status: ('A' for Active; 'I' for Inactive)
REMARK    1  A    between atoms: CAA_1  and  OAN_2 
REMARK    2  A    between atoms: OAN_2  and  CAR_3 
REMARK    3  A    between atoms: CAQ_8  and  CAL_9 
REMARK    4  A    between atoms: CAL_9  and  CAU_10 
REMARK    5  A    between atoms: CAT_13  and  OAF_14 
REMARK    6  A    between atoms: CAS_15  and  OAE_16 
REMARK    7  A    between atoms: CAV_18  and  CAO_19 
REMARK    8  A    between atoms: CAV_18  and  OAG_22 
ROOT
ATOM      1  CAU XNW d          13.515   2.684  38.788  0.00  0.00     0.050 C 
ATOM      2  CAP XNW d          13.783   3.326  40.149  0.00  0.00     0.165 C 
ATOM      3  OAC XNW d          14.486   4.333  40.263  0.00  0.00    -0.294 OA
ATOM      4  CAT XNW d          13.155   2.719  41.385  0.00  0.00     0.118 C 
ATOM      5  CAS XNW d          11.663   2.518  41.114  0.00  0.00     0.070 C 
ATOM      6  CAM XNW d          11.366   1.842  39.752  0.00  0.00     0.001 C 
ATOM      7  CAV XNW d          12.005   2.562  38.556  0.00  0.00     0.158 C 
ATOM      8  H10 XNW d          13.947   1.673  38.779  0.00  0.00     0.058 H 
ATOM      9  H11 XNW d          13.637   1.762  41.633  0.00  0.00     0.099 H 
ATOM     10  H13 XNW d          11.185   3.509  41.101  0.00  0.00     0.087 H 
ATOM     11  H15 XNW d          10.276   1.823  39.604  0.00  0.00     0.042 H 
ATOM     12  H16 XNW d          11.750   0.812  39.784  0.00  0.00     0.042 H 
ENDROOT
BRANCH   1  13
ATOM     13  CAL XNW d          14.203   3.512  37.710  0.00  0.00    -0.028 C 
ATOM     14  H8  XNW d          13.589   3.466  36.799  0.00  0.00     0.041 H 
ATOM     15  H9  XNW d          14.258   4.553  38.063  0.00  0.00     0.041 H 
BRANCH  13  16
ATOM     16  CAQ XNW d          15.621   3.055  37.353  0.00  0.00    -0.057 A 
ATOM     17  CAI XNW d          15.794   2.541  36.104  0.00  0.00    -0.074 A 
ATOM     18  CAK XNW d          17.036   2.127  35.661  0.00  0.00    -0.050 A 
ATOM     19  H5  XNW d          14.939   2.455  35.443  0.00  0.00     0.084 H 
ATOM     20  CAR XNW d          18.163   2.184  36.437  0.00  0.00     0.068 A 
ATOM     21  H4  XNW d          17.121   1.738  34.653  0.00  0.00     0.087 H 
ATOM     22  CAJ XNW d          18.017   2.699  37.723  0.00  0.00    -0.050 A 
ATOM     23  CAH XNW d          16.748   3.129  38.169  0.00  0.00    -0.074 A 
ATOM     24  H6  XNW d          18.877   2.771  38.381  0.00  0.00     0.087 H 
ATOM     25  H7  XNW d          16.648   3.528  39.172  0.00  0.00     0.084 H 
BRANCH  20  26
ATOM     26  OAN XNW d          19.334   1.724  35.859  0.00  0.00    -0.356 OA
BRANCH  26  27
ATOM     27  CAA XNW d          20.075   0.910  36.768  0.00  0.00     0.010 C 
ATOM     28  H1  XNW d          21.075   1.343  36.917  0.00  0.00     0.066 H 
ATOM     29  H2  XNW d          20.173  -0.105  36.356  0.00  0.00     0.066 H 
ATOM     30  H3  XNW d          19.548   0.864  37.732  0.00  0.00     0.066 H 
ENDBRANCH  26  27
ENDBRANCH  20  26
ENDBRANCH  13  16
ENDBRANCH   1  13
BRANCH   7  31
ATOM     31  CAO XNW d          11.754   1.728  37.281  0.00  0.00     0.210 C 
ATOM     32  OAD XNW d          11.368   0.536  37.441  0.00  0.00    -0.646 OA
ATOM     33  OAB XNW d          11.875   2.323  36.173  0.00  0.00    -0.646 OA
ENDBRANCH   7  31
BRANCH   7  34
ATOM     34  OAG XNW d          11.372   3.861  38.383  0.00  0.00    -0.378 OA
ATOM     35  H17 XNW d          11.454   4.135  37.478  0.00  0.00     0.211 HD
ENDBRANCH   7  34
BRANCH   4  36
ATOM     36  OAF XNW d          13.292   3.656  42.476  0.00  0.00    -0.385 OA
ATOM     37  H12 XNW d          14.115   3.500  42.925  0.00  0.00     0.210 HD
ENDBRANCH   4  36
BRANCH   5  38
ATOM     38  OAE XNW d          11.105   1.761  42.195  0.00  0.00    -0.392 OA
ATOM     39  H14 XNW d          11.300   2.195  43.018  0.00  0.00     0.210 HD
ENDBRANCH   5  38
TORSDOF 8
ENDMDL
