MODEL 1
REMARK VINA RESULT:     -10.3      0.000      0.000
REMARK  2 active torsions:
REMARK  status: ('A' for Active; 'I' for Inactive)
REMARK    1  A    between atoms: CG_8  and  CA_2 
REMARK    2  A    between atoms: NM_14  and  CG_8 
ROOT
ATOM      1  CG  MOL d          -7.889 -27.516 -13.928  0.00  0.00     0.154 C 
ATOM      2  CH  MOL d          -6.716 -26.685 -14.639  0.00  0.00    -0.029 C 
ATOM      3  CI  MOL d          -7.009 -25.206 -14.438  0.00  0.00    -0.062 C 
ATOM      4  CJ  MOL d          -6.841 -24.815 -12.954  0.00  0.00    -0.065 C 
ATOM      5  CK  MOL d          -7.724 -25.710 -12.062  0.00  0.00    -0.062 C 
ATOM      6  CL  MOL d          -7.559 -27.195 -12.415  0.00  0.00    -0.029 C 
ATOM      7  H8  MOL d          -6.690 -26.919 -15.714  0.00  0.00     0.037 H 
ATOM      8  H9  MOL d          -5.748 -26.940 -14.184  0.00  0.00     0.037 H 
ATOM      9  H10 MOL d          -8.042 -24.997 -14.752  0.00  0.00     0.033 H 
ATOM     10  H11 MOL d          -6.313 -24.613 -15.050  0.00  0.00     0.033 H 
ATOM     11  H12 MOL d          -7.136 -23.764 -12.819  0.00  0.00     0.033 H 
ATOM     12  H13 MOL d          -5.788 -24.941 -12.663  0.00  0.00     0.033 H 
ATOM     13  H14 MOL d          -8.777 -25.424 -12.201  0.00  0.00     0.033 H 
ATOM     14  H15 MOL d          -7.439 -25.559 -11.010  0.00  0.00     0.033 H 
ATOM     15  H16 MOL d          -6.518 -27.488 -12.215  0.00  0.00     0.037 H 
ATOM     16  H17 MOL d          -8.235 -27.783 -11.778  0.00  0.00     0.037 H 
ENDROOT
BRANCH   1  17
ATOM     17  NM  MOL d          -7.584 -29.049 -14.081  0.00  0.00    -0.058 N 
ATOM     18  CN  MOL d          -8.824 -29.931 -14.413  0.00  0.00     0.085 C 
ATOM     19  CO  MOL d          -8.466 -31.422 -14.538  0.00  0.00    -0.042 C 
ATOM     20  H19 MOL d          -9.567 -29.811 -13.611  0.00  0.00     0.076 H 
ATOM     21  H20 MOL d          -9.255 -29.590 -15.367  0.00  0.00     0.076 H 
ATOM     22  CP  MOL d          -7.338 -31.686 -15.536  0.00  0.00    -0.062 C 
ATOM     23  H21 MOL d          -8.154 -31.791 -13.550  0.00  0.00     0.035 H 
ATOM     24  H22 MOL d          -9.361 -31.970 -14.867  0.00  0.00     0.035 H 
ATOM     25  CQ  MOL d          -6.116 -30.836 -15.132  0.00  0.00    -0.042 C 
ATOM     26  H1  MOL d          -7.070 -32.752 -15.518  0.00  0.00     0.033 H 
ATOM     27  H2  MOL d          -7.666 -31.406 -16.548  0.00  0.00     0.033 H 
ATOM     28  CR  MOL d          -6.429 -29.360 -15.046  0.00  0.00     0.085 C 
ATOM     29  H23 MOL d          -5.323 -30.985 -15.880  0.00  0.00     0.035 H 
ATOM     30  H24 MOL d          -5.760 -31.177 -14.148  0.00  0.00     0.035 H 
ATOM     31  H25 MOL d          -5.529 -28.830 -14.700  0.00  0.00     0.076 H 
ATOM     32  H26 MOL d          -6.702 -29.000 -16.049  0.00  0.00     0.076 H 
ATOM     33  H18 MOL d          -7.273 -29.346 -13.170  0.00  0.00     0.281 HD
ENDBRANCH   1  17
BRANCH   1  34
ATOM     34  CA  MOL d          -9.361 -27.125 -14.427  0.00  0.00    -0.022 A 
ATOM     35  CF  MOL d          -9.600 -26.715 -15.803  0.00  0.00    -0.074 A 
ATOM     36  CE  MOL d         -10.899 -26.383 -16.282  0.00  0.00    -0.082 A 
ATOM     37  H7  MOL d          -8.761 -26.660 -16.487  0.00  0.00     0.084 H 
ATOM     38  CD  MOL d         -12.005 -26.445 -15.455  0.00  0.00    -0.083 A 
ATOM     39  H6  MOL d         -11.023 -26.075 -17.313  0.00  0.00     0.083 H 
ATOM     40  CC  MOL d         -11.797 -26.845 -14.074  0.00  0.00    -0.082 A 
ATOM     41  H5  MOL d         -12.995 -26.204 -15.825  0.00  0.00     0.083 H 
ATOM     42  CB  MOL d         -10.491 -27.180 -13.570  0.00  0.00    -0.074 A 
ATOM     43  H4  MOL d         -12.649 -26.891 -13.404  0.00  0.00     0.083 H 
ATOM     44  H3  MOL d         -10.371 -27.476 -12.534  0.00  0.00     0.084 H 
ENDBRANCH   1  34
TORSDOF 2
ENDMDL
MODEL 2
REMARK VINA RESULT:      -9.9      0.864      3.915
REMARK  2 active torsions:
REMARK  status: ('A' for Active; 'I' for Inactive)
REMARK    1  A    between atoms: CG_8  and  CA_2 
REMARK    2  A    between atoms: NM_14  and  CG_8 
ROOT
ATOM      1  CG  MOL d          -9.376 -28.141 -14.849  0.00  0.00     0.154 C 
ATOM      2  CH  MOL d         -10.716 -28.486 -14.039  0.00  0.00    -0.029 C 
ATOM      3  CI  MOL d         -11.455 -27.181 -13.788  0.00  0.00    -0.062 C 
ATOM      4  CJ  MOL d         -12.005 -26.604 -15.110  0.00  0.00    -0.065 C 
ATOM      5  CK  MOL d         -10.867 -26.440 -16.136  0.00  0.00    -0.062 C 
ATOM      6  CL  MOL d         -10.009 -27.710 -16.233  0.00  0.00    -0.029 C 
ATOM      7  H8  MOL d         -10.462 -28.964 -13.081  0.00  0.00     0.037 H 
ATOM      8  H9  MOL d         -11.347 -29.166 -14.632  0.00  0.00     0.037 H 
ATOM      9  H10 MOL d         -10.763 -26.455 -13.337  0.00  0.00     0.033 H 
ATOM     10  H11 MOL d         -12.292 -27.367 -13.098  0.00  0.00     0.033 H 
ATOM     11  H12 MOL d         -12.463 -25.623 -14.916  0.00  0.00     0.033 H 
ATOM     12  H13 MOL d         -12.764 -27.289 -15.516  0.00  0.00     0.033 H 
ATOM     13  H14 MOL d         -10.229 -25.598 -15.830  0.00  0.00     0.033 H 
ATOM     14  H15 MOL d         -11.304 -26.228 -17.124  0.00  0.00     0.033 H 
ATOM     15  H16 MOL d         -10.641 -28.532 -16.599  0.00  0.00     0.037 H 
ATOM     16  H17 MOL d          -9.194 -27.526 -16.948  0.00  0.00     0.037 H 
ENDROOT
BRANCH   1  17
ATOM     17  NM  MOL d          -8.618 -29.479 -15.162  0.00  0.00    -0.058 N 
ATOM     18  CN  MOL d          -7.067 -29.395 -15.038  0.00  0.00     0.085 C 
ATOM     19  CO  MOL d          -6.380 -30.731 -15.370  0.00  0.00    -0.042 C 
ATOM     20  H19 MOL d          -6.699 -28.626 -15.733  0.00  0.00     0.076 H 
ATOM     21  H20 MOL d          -6.810 -29.112 -14.007  0.00  0.00     0.076 H 
ATOM     22  CP  MOL d          -6.920 -31.902 -14.549  0.00  0.00    -0.062 C 
ATOM     23  H21 MOL d          -6.534 -30.949 -16.437  0.00  0.00     0.035 H 
ATOM     24  H22 MOL d          -5.303 -30.630 -15.169  0.00  0.00     0.035 H 
ATOM     25  CQ  MOL d          -8.447 -31.980 -14.750  0.00  0.00    -0.042 C 
ATOM     26  H1  MOL d          -6.453 -32.839 -14.889  0.00  0.00     0.033 H 
ATOM     27  H2  MOL d          -6.694 -31.745 -13.485  0.00  0.00     0.033 H 
ATOM     28  CR  MOL d          -9.154 -30.694 -14.388  0.00  0.00     0.085 C 
ATOM     29  H23 MOL d          -8.844 -32.789 -14.118  0.00  0.00     0.035 H 
ATOM     30  H24 MOL d          -8.652 -32.207 -15.807  0.00  0.00     0.035 H 
ATOM     31  H25 MOL d         -10.225 -30.808 -14.612  0.00  0.00     0.076 H 
ATOM     32  H26 MOL d          -9.021 -30.511 -13.312  0.00  0.00     0.076 H 
ATOM     33  H18 MOL d          -8.805 -29.665 -16.135  0.00  0.00     0.281 HD
ENDBRANCH   1  17
BRANCH   1  34
ATOM     34  CA  MOL d          -8.443 -27.053 -14.131  0.00  0.00    -0.022 A 
ATOM     35  CF  MOL d          -8.113 -27.165 -12.718  0.00  0.00    -0.074 A 
ATOM     36  CE  MOL d          -7.269 -26.229 -12.058  0.00  0.00    -0.082 A 
ATOM     37  H7  MOL d          -8.524 -27.991 -12.149  0.00  0.00     0.084 H 
ATOM     38  CD  MOL d          -6.710 -25.163 -12.740  0.00  0.00    -0.083 A 
ATOM     39  H6  MOL d          -7.061 -26.352 -11.002  0.00  0.00     0.083 H 
ATOM     40  CC  MOL d          -7.026 -25.021 -14.150  0.00  0.00    -0.082 A 
ATOM     41  H5  MOL d          -6.057 -24.458 -12.238  0.00  0.00     0.083 H 
ATOM     42  CB  MOL d          -7.880 -25.956 -14.835  0.00  0.00    -0.074 A 
ATOM     43  H4  MOL d          -6.606 -24.188 -14.703  0.00  0.00     0.083 H 
ATOM     44  H3  MOL d          -8.094 -25.821 -15.889  0.00  0.00     0.084 H 
ENDBRANCH   1  34
TORSDOF 2
ENDMDL
MODEL 3
REMARK VINA RESULT:      -8.5      1.139      4.761
REMARK  2 active torsions:
REMARK  status: ('A' for Active; 'I' for Inactive)
REMARK    1  A    between atoms: CG_8  and  CA_2 
REMARK    2  A    between atoms: NM_14  and  CG_8 
ROOT
ATOM      1  CG  MOL d          -9.265 -27.216 -14.582  0.00  0.00     0.154 C 
ATOM      2  CH  MOL d          -9.576 -26.563 -16.012  0.00  0.00    -0.029 C 
ATOM      3  CI  MOL d         -10.659 -27.398 -16.677  0.00  0.00    -0.062 C 
ATOM      4  CJ  MOL d         -12.004 -27.233 -15.937  0.00  0.00    -0.065 C 
ATOM      5  CK  MOL d         -11.838 -27.578 -14.444  0.00  0.00    -0.062 C 
ATOM      6  CL  MOL d         -10.616 -26.873 -13.837  0.00  0.00    -0.029 C 
ATOM      7  H8  MOL d          -8.667 -26.567 -16.632  0.00  0.00     0.037 H 
ATOM      8  H9  MOL d          -9.927 -25.528 -15.883  0.00  0.00     0.037 H 
ATOM      9  H10 MOL d         -10.363 -28.457 -16.657  0.00  0.00     0.033 H 
ATOM     10  H11 MOL d         -10.778 -27.071 -17.721  0.00  0.00     0.033 H 
ATOM     11  H12 MOL d         -12.750 -27.907 -16.384  0.00  0.00     0.033 H 
ATOM     12  H13 MOL d         -12.345 -26.192 -16.033  0.00  0.00     0.033 H 
ATOM     13  H14 MOL d         -11.713 -28.665 -14.340  0.00  0.00     0.033 H 
ATOM     14  H15 MOL d         -12.741 -27.260 -13.901  0.00  0.00     0.033 H 
ATOM     15  H16 MOL d         -10.778 -25.786 -13.888  0.00  0.00     0.037 H 
ATOM     16  H17 MOL d         -10.523 -27.181 -12.784  0.00  0.00     0.037 H 
ENDROOT
BRANCH   1  17
ATOM     17  NM  MOL d          -8.181 -26.343 -13.855  0.00  0.00    -0.058 N 
ATOM     18  CN  MOL d          -7.476 -27.044 -12.655  0.00  0.00     0.085 C 
ATOM     19  CO  MOL d          -6.436 -26.136 -11.976  0.00  0.00    -0.042 C 
ATOM     20  H19 MOL d          -8.238 -27.326 -11.914  0.00  0.00     0.076 H 
ATOM     21  H20 MOL d          -6.969 -27.949 -13.023  0.00  0.00     0.076 H 
ATOM     22  CP  MOL d          -5.402 -25.575 -12.952  0.00  0.00    -0.062 C 
ATOM     23  H21 MOL d          -6.962 -25.295 -11.500  0.00  0.00     0.035 H 
ATOM     24  H22 MOL d          -5.911 -26.721 -11.206  0.00  0.00     0.035 H 
ATOM     25  CQ  MOL d          -6.144 -24.842 -14.088  0.00  0.00    -0.042 C 
ATOM     26  H1  MOL d          -4.740 -24.870 -12.426  0.00  0.00     0.033 H 
ATOM     27  H2  MOL d          -4.803 -26.397 -13.371  0.00  0.00     0.033 H 
ATOM     28  CR  MOL d          -7.141 -25.725 -14.803  0.00  0.00     0.085 C 
ATOM     29  H23 MOL d          -5.403 -24.485 -14.818  0.00  0.00     0.035 H 
ATOM     30  H24 MOL d          -6.681 -23.983 -13.659  0.00  0.00     0.035 H 
ATOM     31  H25 MOL d          -7.668 -25.120 -15.556  0.00  0.00     0.076 H 
ATOM     32  H26 MOL d          -6.595 -26.538 -15.303  0.00  0.00     0.076 H 
ATOM     33  H18 MOL d          -8.690 -25.569 -13.458  0.00  0.00     0.281 HD
ENDBRANCH   1  17
BRANCH   1  34
ATOM     34  CA  MOL d          -8.869 -28.768 -14.646  0.00  0.00    -0.022 A 
ATOM     35  CF  MOL d          -9.829 -29.801 -14.288  0.00  0.00    -0.074 A 
ATOM     36  CE  MOL d          -9.515 -31.187 -14.357  0.00  0.00    -0.082 A 
ATOM     37  H7  MOL d         -10.818 -29.505 -13.959  0.00  0.00     0.084 H 
ATOM     38  CD  MOL d          -8.272 -31.621 -14.780  0.00  0.00    -0.083 A 
ATOM     39  H6  MOL d         -10.263 -31.917 -14.072  0.00  0.00     0.083 H 
ATOM     40  CC  MOL d          -7.289 -30.612 -15.138  0.00  0.00    -0.082 A 
ATOM     41  H5  MOL d          -8.039 -32.677 -14.843  0.00  0.00     0.083 H 
ATOM     42  CB  MOL d          -7.587 -29.206 -15.071  0.00  0.00    -0.074 A 
ATOM     43  H4  MOL d          -6.304 -30.928 -15.463  0.00  0.00     0.083 H 
ATOM     44  H3  MOL d          -6.831 -28.479 -15.347  0.00  0.00     0.084 H 
ENDBRANCH   1  34
TORSDOF 2
ENDMDL
MODEL 4
REMARK VINA RESULT:      -7.5      1.259      4.511
REMARK  2 active torsions:
REMARK  status: ('A' for Active; 'I' for Inactive)
REMARK    1  A    between atoms: CG_8  and  CA_2 
REMARK    2  A    between atoms: NM_14  and  CG_8 
ROOT
ATOM      1  CG  MOL d          -8.112 -29.071 -14.081  0.00  0.00     0.154 C 
ATOM      2  CH  MOL d          -8.299 -30.343 -13.123  0.00  0.00    -0.029 C 
ATOM      3  CI  MOL d          -8.970 -31.440 -13.936  0.00  0.00    -0.062 C 
ATOM      4  CJ  MOL d          -8.011 -31.978 -15.019  0.00  0.00    -0.065 C 
ATOM      5  CK  MOL d          -7.505 -30.824 -15.907  0.00  0.00    -0.062 C 
ATOM      6  CL  MOL d          -7.011 -29.640 -15.062  0.00  0.00    -0.029 C 
ATOM      7  H8  MOL d          -8.930 -30.075 -12.263  0.00  0.00     0.037 H 
ATOM      8  H9  MOL d          -7.318 -30.689 -12.765  0.00  0.00     0.037 H 
ATOM      9  H10 MOL d          -9.870 -31.033 -14.419  0.00  0.00     0.033 H 
ATOM     10  H11 MOL d          -9.255 -32.264 -13.264  0.00  0.00     0.033 H 
ATOM     11  H12 MOL d          -8.543 -32.710 -15.645  0.00  0.00     0.033 H 
ATOM     12  H13 MOL d          -7.152 -32.465 -14.535  0.00  0.00     0.033 H 
ATOM     13  H14 MOL d          -8.328 -30.483 -16.553  0.00  0.00     0.033 H 
ATOM     14  H15 MOL d          -6.677 -31.189 -16.531  0.00  0.00     0.033 H 
ATOM     15  H16 MOL d          -6.149 -29.973 -14.465  0.00  0.00     0.037 H 
ATOM     16  H17 MOL d          -6.698 -28.834 -15.742  0.00  0.00     0.037 H 
ENDROOT
BRANCH   1  17
ATOM     17  NM  MOL d          -7.378 -27.939 -13.278  0.00  0.00    -0.058 N 
ATOM     18  CN  MOL d          -6.068 -27.416 -13.937  0.00  0.00     0.085 C 
ATOM     19  CO  MOL d          -5.387 -26.320 -13.098  0.00  0.00    -0.042 C 
ATOM     20  H19 MOL d          -5.369 -28.259 -14.052  0.00  0.00     0.076 H 
ATOM     21  H20 MOL d          -6.311 -27.004 -14.928  0.00  0.00     0.076 H 
ATOM     22  CP  MOL d          -6.320 -25.156 -12.764  0.00  0.00    -0.062 C 
ATOM     23  H21 MOL d          -5.033 -26.768 -12.158  0.00  0.00     0.035 H 
ATOM     24  H22 MOL d          -4.528 -25.930 -13.664  0.00  0.00     0.035 H 
ATOM     25  CQ  MOL d          -7.574 -25.717 -12.062  0.00  0.00    -0.042 C 
ATOM     26  H1  MOL d          -5.806 -24.450 -12.096  0.00  0.00     0.033 H 
ATOM     27  H2  MOL d          -6.614 -24.639 -13.689  0.00  0.00     0.033 H 
ATOM     28  CR  MOL d          -8.289 -26.765 -12.885  0.00  0.00     0.085 C 
ATOM     29  H23 MOL d          -8.270 -24.886 -11.870  0.00  0.00     0.035 H 
ATOM     30  H24 MOL d          -7.269 -26.169 -11.106  0.00  0.00     0.035 H 
ATOM     31  H25 MOL d          -9.133 -27.156 -12.298  0.00  0.00     0.076 H 
ATOM     32  H26 MOL d          -8.668 -26.292 -13.802  0.00  0.00     0.076 H 
ATOM     33  H18 MOL d          -7.095 -28.373 -12.413  0.00  0.00     0.281 HD
ENDBRANCH   1  17
BRANCH   1  34
ATOM     34  CA  MOL d          -9.471 -28.564 -14.764  0.00  0.00    -0.022 A 
ATOM     35  CF  MOL d         -10.764 -29.055 -14.312  0.00  0.00    -0.074 A 
ATOM     36  CE  MOL d         -11.989 -28.607 -14.883  0.00  0.00    -0.082 A 
ATOM     37  H7  MOL d         -10.796 -29.787 -13.514  0.00  0.00     0.084 H 
ATOM     38  CD  MOL d         -12.005 -27.667 -15.897  0.00  0.00    -0.083 A 
ATOM     39  H6  MOL d         -12.925 -29.010 -14.516  0.00  0.00     0.083 H 
ATOM     40  CC  MOL d         -10.729 -27.163 -16.374  0.00  0.00    -0.082 A 
ATOM     41  H5  MOL d         -12.939 -27.319 -16.321  0.00  0.00     0.083 H 
ATOM     42  CB  MOL d          -9.481 -27.606 -15.812  0.00  0.00    -0.074 A 
ATOM     43  H4  MOL d         -10.717 -26.432 -17.175  0.00  0.00     0.083 H 
ATOM     44  H3  MOL d          -8.546 -27.208 -16.190  0.00  0.00     0.084 H 
ENDBRANCH   1  34
TORSDOF 2
ENDMDL
