MODEL 1
REMARK VINA RESULT:      -5.2      0.000      0.000
REMARK WARNING: 32 MAX_TORS EXCEEDED!!!
REMARK  36 active torsions:
REMARK  status: ('A' for Active; 'I' for Inactive)
REMARK    1  A    between atoms: C6_6  and  N6_7 
REMARK    2  A    between atoms: CCN_19  and  N9_10 
REMARK    3  A    between atoms: CCK_16  and  OAN_12 
REMARK    4  A    between atoms: CCL_17  and  OAO_13 
REMARK    5  A    between atoms: CCC_15  and  CCM_18 
REMARK       I    between atoms: NBR_27  and  CCC_15 
REMARK    6  A    between atoms: CBZ_20  and  CBG_22 
REMARK       I    between atoms: NBS_28  and  CBZ_20 
REMARK    7  A    between atoms: CBG_22  and  CAX_23 
REMARK    8  A    between atoms: CAX_23  and  CAU_24 
REMARK    9  A    between atoms: CAU_24  and  CAW_25 
REMARK   10  A    between atoms: CAW_25  and  CBD_26 
REMARK   11  A    between atoms: CBD_26  and  NBR_27 
REMARK   12  A    between atoms: CCI_29  and  NBS_28 
REMARK   13  A    between atoms: CCB_30  and  CCI_29 
REMARK   14  A    between atoms: CCI_29  and  CBJ_32 
REMARK       I    between atoms: NBQ_44  and  CCB_30 
REMARK   15  A    between atoms: CBJ_32  and  CAZ_33 
REMARK   16  A    between atoms: CAZ_33  and  CAS_34 
REMARK   17  A    between atoms: CAS_34  and  CAR_35 
REMARK   18  A    between atoms: CAR_35  and  NAC_36 
REMARK   19  A    between atoms: CBH_39  and  CCA_37 
REMARK       I    between atoms: CCA_37  and  NBT_45 
REMARK   20  A    between atoms: CAY_40  and  CBH_39 
REMARK   21  A    between atoms: CAT_41  and  CAY_40 
REMARK   22  A    between atoms: CAV_42  and  CAT_41 
REMARK   23  A    between atoms: CBC_43  and  CAV_42 
REMARK   24  A    between atoms: CBC_43  and  NBQ_44 
REMARK   25  A    between atoms: NBT_45  and  CCJ_46 
REMARK   26  A    between atoms: CCJ_46  and  CBK_47 
REMARK   27  A    between atoms: CCJ_46  and  CCD_54 
REMARK   28  A    between atoms: CBK_47  and  CBB_48 
REMARK   29  A    between atoms: CBB_48  and  CBF_49 
REMARK   30  A    between atoms: CBF_49  and  NBP_50 
REMARK       I    between atoms: NBP_50  and  CBX_51 
REMARK       I    between atoms: CBX_51  and  NAB_52 
REMARK       I    between atoms: CBX_51  and  NAE_53 
REMARK       I    between atoms: CCD_54  and  N_56 
REMARK   31  A    between atoms: N_56  and  CA_57 
REMARK   32  A    between atoms: CA_57  and  CB_58 
REMARK   33  A    between atoms: CA_57  and  C_65 
REMARK   34  A    between atoms: CB_58  and  CG_59 
REMARK   35  A    between atoms: CG_59  and  CD_60 
REMARK   36  A    between atoms: CD_60  and  NE_61 
REMARK       I    between atoms: NE_61  and  CZ_62 
REMARK       I    between atoms: CZ_62  and  NH1_63 
REMARK       I    between atoms: C_65  and  NAF_67 
ROOT
ATOM      1  CCB A02 d          15.359  11.467   6.721  0.00  0.00     0.240 C 
ATOM      2  OAK A02 d          16.574  11.454   6.574  0.00  0.00    -0.271 OA
ATOM      3  NBQ A02 d          14.707  10.666   7.562  0.00  0.00    -0.359 N 
ATOM      4  H45 A02 d          13.710  10.732   7.616  0.00  0.00     0.162 HD
ENDROOT
BRANCH   1   5
ATOM      5  CCI A02 d          14.475  12.425   5.885  0.00  0.00     0.089 C 
ATOM      6  H23 A02 d          13.855  12.991   6.595  0.00  0.00     0.087 H 
BRANCH   5   7
ATOM      7  NBS A02 d          13.553  11.656   5.010  0.00  0.00    -0.348 N 
ATOM      8  CBZ A02 d          13.922  10.499   4.436  0.00  0.00     0.218 C 
ATOM      9  OAI A02 d          15.049  10.000   4.538  0.00  0.00    -0.274 OA
ATOM     10  H22 A02 d          12.633  12.009   4.843  0.00  0.00     0.163 HD
BRANCH   8  11
ATOM     11  CBG A02 d          12.840   9.828   3.565  0.00  0.00     0.009 C 
ATOM     12  H11 A02 d          11.859  10.250   3.827  0.00  0.00     0.047 H 
ATOM     13  H12 A02 d          12.840   8.747   3.768  0.00  0.00     0.047 H 
BRANCH  11  14
ATOM     14  CAX A02 d          13.093  10.052   2.061  0.00  0.00    -0.057 C 
ATOM     15  H13 A02 d          13.997  10.668   1.937  0.00  0.00     0.033 H 
ATOM     16  H14 A02 d          12.229  10.577   1.626  0.00  0.00     0.033 H 
BRANCH  14  17
ATOM     17  CAU A02 d          13.291   8.722   1.326  0.00  0.00    -0.063 C 
ATOM     18  H15 A02 d          13.494   8.933   0.266  0.00  0.00     0.033 H 
ATOM     19  H16 A02 d          12.365   8.133   1.411  0.00  0.00     0.033 H 
BRANCH  17  20
ATOM     20  CAW A02 d          14.449   7.896   1.891  0.00  0.00    -0.050 C 
ATOM     21  H17 A02 d          14.880   8.403   2.767  0.00  0.00     0.035 H 
ATOM     22  H18 A02 d          15.227   7.765   1.124  0.00  0.00     0.035 H 
BRANCH  20  23
ATOM     23  CBD A02 d          13.887   6.533   2.302  0.00  0.00    -0.005 C 
ATOM     24  H19 A02 d          13.860   5.882   1.415  0.00  0.00     0.064 H 
ATOM     25  H20 A02 d          12.866   6.675   2.684  0.00  0.00     0.064 H 
BRANCH  23  26
ATOM     26  NBR A02 d          14.694   5.876   3.345  0.00  0.00    -0.359 N 
ATOM     27  CCC A02 d          15.690   5.023   3.101  0.00  0.00     0.249 C 
ATOM     28  OAL A02 d          16.013   4.626   1.973  0.00  0.00    -0.271 OA
ATOM     29  H21 A02 d          14.481   6.084   4.299  0.00  0.00     0.162 HD
BRANCH  27  30
ATOM     30  CCM A02 d          16.471   4.516   4.329  0.00  0.00     0.144 C 
ATOM     31  OBV A02 d          17.662   3.758   3.931  0.00  0.00    -0.346 OA
ATOM     32  CCN A02 d          18.843   4.588   4.131  0.00  0.00     0.140 C 
ATOM     33  CCL A02 d          18.298   6.002   4.410  0.00  0.00     0.105 C 
ATOM     34  H10 A02 d          19.401   4.232   5.010  0.00  0.00     0.123 H 
ATOM     35  CCK A02 d          16.993   5.711   5.127  0.00  0.00     0.098 C 
ATOM     36  H8  A02 d          18.140   6.570   3.481  0.00  0.00     0.093 H 
ATOM     37  H7  A02 d          16.302   6.566   5.109  0.00  0.00     0.091 H 
ATOM     38  H9  A02 d          15.812   3.891   4.951  0.00  0.00     0.102 H 
BRANCH  32  39
ATOM     39  N9  A02 d          19.777   4.537   2.926  0.00  0.00    -0.294 N 
ATOM     40  C4  A02 d          19.663   5.262   1.818  0.00  0.00     0.167 A 
ATOM     41  N3  A02 d          18.776   6.184   1.412  0.00  0.00    -0.222 NA
ATOM     42  C5  A02 d          20.708   4.899   0.978  0.00  0.00     0.149 A 
ATOM     43  C2  A02 d          18.901   6.761   0.225  0.00  0.00     0.091 A 
ATOM     44  N1  A02 d          19.905   6.438  -0.602  0.00  0.00    -0.222 NA
ATOM     45  H1  A02 d          18.178   7.508  -0.083  0.00  0.00     0.146 H 
ATOM     46  C6  A02 d          20.815   5.513  -0.259  0.00  0.00     0.155 A 
ATOM     47  N7  A02 d          21.438   3.972   1.595  0.00  0.00    -0.236 NA
ATOM     48  C8  A02 d          20.868   3.767   2.787  0.00  0.00     0.071 A 
ATOM     49  H4  A02 d          21.237   3.072   3.540  0.00  0.00     0.144 H 
BRANCH  46  50
ATOM     50  N6  A02 d          21.803   5.183  -1.084  0.00  0.00    -0.382 N 
ATOM     51  H2  A02 d          21.602   4.641  -1.936  0.00  0.00     0.157 HD
ATOM     52  H3  A02 d          22.769   5.468  -0.870  0.00  0.00     0.157 HD
ENDBRANCH  46  50
ENDBRANCH  32  39
BRANCH  33  53
ATOM     53  OAO A02 d          19.173   6.708   5.278  0.00  0.00    -0.388 OA
ATOM     54  H6  A02 d          18.668   7.303   5.819  0.00  0.00     0.210 HD
ENDBRANCH  33  53
BRANCH  35  55
ATOM     55  OAN A02 d          17.262   5.295   6.480  0.00  0.00    -0.390 OA
ATOM     56  H5  A02 d          16.470   5.376   6.999  0.00  0.00     0.210 HD
ENDBRANCH  35  55
ENDBRANCH  27  30
ENDBRANCH  23  26
ENDBRANCH  20  23
ENDBRANCH  17  20
ENDBRANCH  14  17
ENDBRANCH  11  14
ENDBRANCH   8  11
ENDBRANCH   5   7
BRANCH   5  57
ATOM     57  CBJ A02 d          15.295  13.461   5.083  0.00  0.00    -0.038 C 
ATOM     58  H24 A02 d          16.348  13.372   5.391  0.00  0.00     0.036 H 
ATOM     59  H25 A02 d          14.921  14.463   5.342  0.00  0.00     0.036 H 
BRANCH  57  60
ATOM     60  CAZ A02 d          15.231  13.310   3.560  0.00  0.00    -0.061 C 
ATOM     61  H26 A02 d          14.358  13.858   3.177  0.00  0.00     0.033 H 
ATOM     62  H27 A02 d          15.137  12.244   3.305  0.00  0.00     0.033 H 
BRANCH  60  63
ATOM     63  CAS A02 d          16.513  13.877   2.914  0.00  0.00    -0.043 C 
ATOM     64  H28 A02 d          17.157  14.296   3.702  0.00  0.00     0.035 H 
ATOM     65  H29 A02 d          16.236  14.672   2.205  0.00  0.00     0.035 H 
BRANCH  63  66
ATOM     66  CAR A02 d          17.287  12.783   2.163  0.00  0.00     0.080 C 
ATOM     67  H30 A02 d          16.895  12.698   1.138  0.00  0.00     0.075 H 
ATOM     68  H31 A02 d          17.160  11.823   2.686  0.00  0.00     0.075 H 
BRANCH  66  69
ATOM     69  NAC A02 d          18.720  13.125   2.111  0.00  0.00    -0.079 N 
ATOM     70  H32 A02 d          18.902  13.904   2.725  0.00  0.00     0.274 HD
ATOM     71  H33 A02 d          18.971  13.376   1.167  0.00  0.00     0.274 HD
ATOM     72  H34 A02 d          19.266  12.330   2.404  0.00  0.00     0.274 HD
ENDBRANCH  66  69
ENDBRANCH  63  66
ENDBRANCH  60  63
ENDBRANCH  57  60
ENDBRANCH   5  57
ENDBRANCH   1   5
BRANCH   3  73
ATOM     73  CBC A02 d          15.402   9.680   8.421  0.00  0.00    -0.005 C 
ATOM     74  H43 A02 d          16.349  10.113   8.775  0.00  0.00     0.064 H 
ATOM     75  H44 A02 d          14.764   9.439   9.285  0.00  0.00     0.064 H 
BRANCH  73  76
ATOM     76  CAV A02 d          15.696   8.396   7.638  0.00  0.00    -0.050 C 
ATOM     77  H41 A02 d          15.489   8.568   6.571  0.00  0.00     0.035 H 
ATOM     78  H42 A02 d          16.755   8.128   7.767  0.00  0.00     0.035 H 
BRANCH  76  79
ATOM     79  CAT A02 d          14.818   7.245   8.143  0.00  0.00    -0.063 C 
ATOM     80  H39 A02 d          15.301   6.291   7.888  0.00  0.00     0.033 H 
ATOM     81  H40 A02 d          14.720   7.325   9.236  0.00  0.00     0.033 H 
BRANCH  79  82
ATOM     82  CAY A02 d          13.420   7.276   7.517  0.00  0.00    -0.057 C 
ATOM     83  H37 A02 d          13.362   8.123   6.817  0.00  0.00     0.033 H 
ATOM     84  H38 A02 d          13.255   6.336   6.970  0.00  0.00     0.033 H 
BRANCH  82  85
ATOM     85  CBH A02 d          12.322   7.434   8.582  0.00  0.00     0.009 C 
ATOM     86  H35 A02 d          12.659   8.161   9.335  0.00  0.00     0.047 H 
ATOM     87  H36 A02 d          11.407   7.804   8.097  0.00  0.00     0.047 H 
BRANCH  85  88
ATOM     88  CCA A02 d          12.013   6.100   9.282  0.00  0.00     0.218 C 
ATOM     89  OAJ A02 d          11.094   5.376   8.885  0.00  0.00    -0.274 OA
ATOM     90  NBT A02 d          12.811   5.806  10.315  0.00  0.00    -0.348 N 
ATOM     91  H46 A02 d          13.536   6.451  10.555  0.00  0.00     0.163 HD
BRANCH  90  92
ATOM     92  CCJ A02 d          12.671   4.569  11.122  0.00  0.00     0.089 C 
ATOM     93  H47 A02 d          11.633   4.220  11.030  0.00  0.00     0.087 H 
BRANCH  92  94
ATOM     94  CBK A02 d          12.949   4.840  12.625  0.00  0.00    -0.036 C 
ATOM     95  H48 A02 d          13.798   5.535  12.698  0.00  0.00     0.036 H 
ATOM     96  H49 A02 d          13.213   3.886  13.104  0.00  0.00     0.036 H 
BRANCH  94  97
ATOM     97  CBB A02 d          11.762   5.450  13.392  0.00  0.00    -0.048 C 
ATOM     98  H50 A02 d          11.606   6.480  13.040  0.00  0.00     0.035 H 
ATOM     99  H51 A02 d          12.004   5.461  14.465  0.00  0.00     0.035 H 
BRANCH  97 100
ATOM    100  CBF A02 d          10.464   4.654  13.185  0.00  0.00     0.009 C 
ATOM    101  H52 A02 d          10.588   3.632  13.574  0.00  0.00     0.064 H 
ATOM    102  H53 A02 d          10.221   4.611  12.114  0.00  0.00     0.064 H 
BRANCH 100 103
ATOM    103  NBP A02 d           9.380   5.338  13.916  0.00  0.00    -0.227 N 
ATOM    104  CBX A02 d           9.000   5.024  15.162  0.00  0.00     0.665 C 
ATOM    105  NAB A02 d           9.589   4.059  15.866  0.00  0.00    -0.235 N 
ATOM    106  NAE A02 d           8.004   5.712  15.713  0.00  0.00    -0.235 N 
ATOM    107  H55 A02 d           9.267   3.848  16.822  0.00  0.00     0.174 HD
ATOM    108  H56 A02 d          10.367   3.523  15.455  0.00  0.00     0.174 HD
ATOM    109  H57 A02 d           7.539   6.462  15.181  0.00  0.00     0.174 HD
ATOM    110  H58 A02 d           7.698   5.496  16.673  0.00  0.00     0.174 HD
ATOM    111  H54 A02 d           8.885   6.105  13.439  0.00  0.00     0.177 HD
ENDBRANCH 100 103
ENDBRANCH  97 100
ENDBRANCH  94  97
ENDBRANCH  92  94
BRANCH  92 112
ATOM    112  CCD A02 d          13.599   3.457  10.575  0.00  0.00     0.241 C 
ATOM    113  OAM A02 d          14.431   2.912  11.300  0.00  0.00    -0.271 OA
ATOM    114  N   A02 d          13.427   3.153   9.286  0.00  0.00    -0.346 N 
ATOM    115  H59 A02 d          12.727   3.648   8.771  0.00  0.00     0.163 HD
BRANCH 114 116
ATOM    116  CA  A02 d          14.219   2.121   8.580  0.00  0.00     0.089 C 
ATOM    117  H60 A02 d          14.350   1.261   9.253  0.00  0.00     0.087 H 
BRANCH 116 118
ATOM    118  CB  A02 d          15.600   2.684   8.222  0.00  0.00    -0.036 C 
ATOM    119  H61 A02 d          15.763   3.615   8.785  0.00  0.00     0.036 H 
ATOM    120  H62 A02 d          15.630   2.898   7.143  0.00  0.00     0.036 H 
BRANCH 118 121
ATOM    121  CG  A02 d          16.714   1.694   8.565  0.00  0.00    -0.048 C 
ATOM    122  H63 A02 d          17.071   1.221   7.637  0.00  0.00     0.035 H 
ATOM    123  H64 A02 d          16.314   0.922   9.239  0.00  0.00     0.035 H 
BRANCH 121 124
ATOM    124  CD  A02 d          17.885   2.393   9.249  0.00  0.00     0.009 C 
ATOM    125  H65 A02 d          18.617   1.648   9.594  0.00  0.00     0.064 H 
ATOM    126  H66 A02 d          17.523   2.978  10.108  0.00  0.00     0.064 H 
BRANCH 124 127
ATOM    127  NE  A02 d          18.501   3.278   8.266  0.00  0.00    -0.227 N 
ATOM    128  CZ  A02 d          19.703   3.842   8.387  0.00  0.00     0.665 C 
ATOM    129  NH1 A02 d          20.506   3.619   9.426  0.00  0.00    -0.235 N 
ATOM    130  NH2 A02 d          20.094   4.637   7.401  0.00  0.00    -0.235 N 
ATOM    131  H68 A02 d          21.427   4.079   9.473  0.00  0.00     0.174 HD
ATOM    132  H69 A02 d          20.207   2.988  10.183  0.00  0.00     0.174 HD
ATOM    133  H70 A02 d          19.472   4.807   6.598  0.00  0.00     0.174 HD
ATOM    134  H71 A02 d          21.022   5.084   7.438  0.00  0.00     0.174 HD
ATOM    135  H67 A02 d          17.965   3.485   7.411  0.00  0.00     0.177 HD
ENDBRANCH 124 127
ENDBRANCH 121 124
ENDBRANCH 118 121
ENDBRANCH 116 118
BRANCH 116 136
ATOM    136  C   A02 d          13.502   1.634   7.300  0.00  0.00     0.238 C 
ATOM    137  O   A02 d          12.287   1.771   7.144  0.00  0.00    -0.271 OA
ATOM    138  NAF A02 d          14.302   1.086   6.387  0.00  0.00    -0.368 N 
ATOM    139  H72 A02 d          13.920   0.744   5.528  0.00  0.00     0.159 HD
ATOM    140  H73 A02 d          15.284   1.016   6.561  0.00  0.00     0.159 HD
ENDBRANCH 116 136
ENDBRANCH 114 116
ENDBRANCH  92 112
ENDBRANCH  90  92
ENDBRANCH  85  88
ENDBRANCH  82  85
ENDBRANCH  79  82
ENDBRANCH  76  79
ENDBRANCH  73  76
ENDBRANCH   3  73
TORSDOF 36
ENDMDL
MODEL 2
REMARK VINA RESULT:      -4.9      3.045      8.233
REMARK WARNING: 32 MAX_TORS EXCEEDED!!!
REMARK  36 active torsions:
REMARK  status: ('A' for Active; 'I' for Inactive)
REMARK    1  A    between atoms: C6_6  and  N6_7 
REMARK    2  A    between atoms: CCN_19  and  N9_10 
REMARK    3  A    between atoms: CCK_16  and  OAN_12 
REMARK    4  A    between atoms: CCL_17  and  OAO_13 
REMARK    5  A    between atoms: CCC_15  and  CCM_18 
REMARK       I    between atoms: NBR_27  and  CCC_15 
REMARK    6  A    between atoms: CBZ_20  and  CBG_22 
REMARK       I    between atoms: NBS_28  and  CBZ_20 
REMARK    7  A    between atoms: CBG_22  and  CAX_23 
REMARK    8  A    between atoms: CAX_23  and  CAU_24 
REMARK    9  A    between atoms: CAU_24  and  CAW_25 
REMARK   10  A    between atoms: CAW_25  and  CBD_26 
REMARK   11  A    between atoms: CBD_26  and  NBR_27 
REMARK   12  A    between atoms: CCI_29  and  NBS_28 
REMARK   13  A    between atoms: CCB_30  and  CCI_29 
REMARK   14  A    between atoms: CCI_29  and  CBJ_32 
REMARK       I    between atoms: NBQ_44  and  CCB_30 
REMARK   15  A    between atoms: CBJ_32  and  CAZ_33 
REMARK   16  A    between atoms: CAZ_33  and  CAS_34 
REMARK   17  A    between atoms: CAS_34  and  CAR_35 
REMARK   18  A    between atoms: CAR_35  and  NAC_36 
REMARK   19  A    between atoms: CBH_39  and  CCA_37 
REMARK       I    between atoms: CCA_37  and  NBT_45 
REMARK   20  A    between atoms: CAY_40  and  CBH_39 
REMARK   21  A    between atoms: CAT_41  and  CAY_40 
REMARK   22  A    between atoms: CAV_42  and  CAT_41 
REMARK   23  A    between atoms: CBC_43  and  CAV_42 
REMARK   24  A    between atoms: CBC_43  and  NBQ_44 
REMARK   25  A    between atoms: NBT_45  and  CCJ_46 
REMARK   26  A    between atoms: CCJ_46  and  CBK_47 
REMARK   27  A    between atoms: CCJ_46  and  CCD_54 
REMARK   28  A    between atoms: CBK_47  and  CBB_48 
REMARK   29  A    between atoms: CBB_48  and  CBF_49 
REMARK   30  A    between atoms: CBF_49  and  NBP_50 
REMARK       I    between atoms: NBP_50  and  CBX_51 
REMARK       I    between atoms: CBX_51  and  NAB_52 
REMARK       I    between atoms: CBX_51  and  NAE_53 
REMARK       I    between atoms: CCD_54  and  N_56 
REMARK   31  A    between atoms: N_56  and  CA_57 
REMARK   32  A    between atoms: CA_57  and  CB_58 
REMARK   33  A    between atoms: CA_57  and  C_65 
REMARK   34  A    between atoms: CB_58  and  CG_59 
REMARK   35  A    between atoms: CG_59  and  CD_60 
REMARK   36  A    between atoms: CD_60  and  NE_61 
REMARK       I    between atoms: NE_61  and  CZ_62 
REMARK       I    between atoms: CZ_62  and  NH1_63 
REMARK       I    between atoms: C_65  and  NAF_67 
ROOT
ATOM      1  CCB A02 d          13.851  11.868   6.090  0.00  0.00     0.240 C 
ATOM      2  OAK A02 d          14.607  12.831   6.142  0.00  0.00    -0.271 OA
ATOM      3  NBQ A02 d          14.060  10.727   6.746  0.00  0.00    -0.359 N 
ATOM      4  H45 A02 d          13.399   9.984   6.641  0.00  0.00     0.162 HD
ENDROOT
BRANCH   1   5
ATOM      5  CCI A02 d          12.584  11.910   5.201  0.00  0.00     0.089 C 
ATOM      6  H23 A02 d          12.148  12.913   5.312  0.00  0.00     0.087 H 
BRANCH   5   7
ATOM      7  NBS A02 d          11.574  10.934   5.684  0.00  0.00    -0.348 N 
ATOM      8  CBZ A02 d          10.487  11.322   6.371  0.00  0.00     0.218 C 
ATOM      9  OAI A02 d          10.253  12.491   6.701  0.00  0.00    -0.274 OA
ATOM     10  H22 A02 d          11.706   9.962   5.493  0.00  0.00     0.163 HD
BRANCH   8  11
ATOM     11  CBG A02 d           9.537  10.181   6.789  0.00  0.00     0.009 C 
ATOM     12  H11 A02 d           8.758  10.067   6.022  0.00  0.00     0.047 H 
ATOM     13  H12 A02 d           9.069  10.442   7.750  0.00  0.00     0.047 H 
BRANCH  11  14
ATOM     14  CAX A02 d          10.282   8.841   6.945  0.00  0.00    -0.057 C 
ATOM     15  H13 A02 d          11.247   8.904   6.421  0.00  0.00     0.033 H 
ATOM     16  H14 A02 d           9.675   8.038   6.500  0.00  0.00     0.033 H 
BRANCH  14  17
ATOM     17  CAU A02 d          10.536   8.515   8.421  0.00  0.00    -0.063 C 
ATOM     18  H15 A02 d           9.653   8.816   9.004  0.00  0.00     0.033 H 
ATOM     19  H16 A02 d          11.412   9.086   8.762  0.00  0.00     0.033 H 
BRANCH  17  20
ATOM     20  CAW A02 d          10.798   7.026   8.666  0.00  0.00    -0.050 C 
ATOM     21  H17 A02 d          10.082   6.419   8.091  0.00  0.00     0.035 H 
ATOM     22  H18 A02 d          10.695   6.797   9.737  0.00  0.00     0.035 H 
BRANCH  20  23
ATOM     23  CBD A02 d          12.225   6.727   8.203  0.00  0.00    -0.005 C 
ATOM     24  H19 A02 d          12.929   7.162   8.928  0.00  0.00     0.064 H 
ATOM     25  H20 A02 d          12.380   7.192   7.219  0.00  0.00     0.064 H 
BRANCH  23  26
ATOM     26  NBR A02 d          12.495   5.283   8.090  0.00  0.00    -0.359 N 
ATOM     27  CCC A02 d          13.149   4.715   7.076  0.00  0.00     0.249 C 
ATOM     28  OAL A02 d          13.549   5.323   6.072  0.00  0.00    -0.271 OA
ATOM     29  H21 A02 d          12.167   4.689   8.824  0.00  0.00     0.162 HD
BRANCH  27  30
ATOM     30  CCM A02 d          13.409   3.202   7.192  0.00  0.00     0.144 C 
ATOM     31  OBV A02 d          14.550   2.789   6.368  0.00  0.00    -0.346 OA
ATOM     32  CCN A02 d          15.702   2.558   7.232  0.00  0.00     0.140 C 
ATOM     33  CCL A02 d          15.291   3.122   8.607  0.00  0.00     0.105 C 
ATOM     34  H10 A02 d          15.887   1.478   7.321  0.00  0.00     0.123 H 
ATOM     35  CCK A02 d          13.796   2.862   8.631  0.00  0.00     0.098 C 
ATOM     36  H8  A02 d          15.525   4.193   8.696  0.00  0.00     0.093 H 
ATOM     37  H7  A02 d          13.272   3.485   9.369  0.00  0.00     0.091 H 
ATOM     38  H9  A02 d          12.505   2.650   6.893  0.00  0.00     0.102 H 
BRANCH  32  39
ATOM     39  N9  A02 d          16.963   3.210   6.675  0.00  0.00    -0.294 N 
ATOM     40  C4  A02 d          18.147   3.260   7.275  0.00  0.00     0.167 A 
ATOM     41  N3  A02 d          18.595   2.812   8.458  0.00  0.00    -0.222 NA
ATOM     42  C5  A02 d          19.009   3.949   6.431  0.00  0.00     0.149 A 
ATOM     43  C2  A02 d          19.858   3.008   8.817  0.00  0.00     0.091 A 
ATOM     44  N1  A02 d          20.713   3.661   8.019  0.00  0.00    -0.222 NA
ATOM     45  H1  A02 d          20.203   2.633   9.775  0.00  0.00     0.146 H 
ATOM     46  C6  A02 d          20.320   4.145   6.830  0.00  0.00     0.155 A 
ATOM     47  N7  A02 d          18.335   4.294   5.336  0.00  0.00    -0.236 NA
ATOM     48  C8  A02 d          17.090   3.828   5.490  0.00  0.00     0.071 A 
ATOM     49  H4  A02 d          16.293   3.935   4.757  0.00  0.00     0.144 H 
BRANCH  46  50
ATOM     50  N6  A02 d          21.165   4.804   6.044  0.00  0.00    -0.382 N 
ATOM     51  H2  A02 d          21.326   5.811   6.191  0.00  0.00     0.157 HD
ATOM     52  H3  A02 d          21.659   4.308   5.288  0.00  0.00     0.157 HD
ENDBRANCH  46  50
ENDBRANCH  32  39
BRANCH  33  53
ATOM     53  OAO A02 d          15.920   2.390   9.649  0.00  0.00    -0.388 OA
ATOM     54  H6  A02 d          15.783   1.460   9.510  0.00  0.00     0.210 HD
ENDBRANCH  33  53
BRANCH  35  55
ATOM     55  OAN A02 d          13.549   1.462   8.870  0.00  0.00    -0.390 OA
ATOM     56  H5  A02 d          13.142   1.078   8.102  0.00  0.00     0.210 HD
ENDBRANCH  35  55
ENDBRANCH  27  30
ENDBRANCH  23  26
ENDBRANCH  20  23
ENDBRANCH  17  20
ENDBRANCH  14  17
ENDBRANCH  11  14
ENDBRANCH   8  11
ENDBRANCH   5   7
BRANCH   5  57
ATOM     57  CBJ A02 d          12.892  11.720   3.699  0.00  0.00    -0.038 C 
ATOM     58  H24 A02 d          12.017  11.244   3.230  0.00  0.00     0.036 H 
ATOM     59  H25 A02 d          13.762  11.053   3.612  0.00  0.00     0.036 H 
BRANCH  57  60
ATOM     60  CAZ A02 d          13.201  13.006   2.926  0.00  0.00    -0.061 C 
ATOM     61  H26 A02 d          14.043  12.825   2.241  0.00  0.00     0.033 H 
ATOM     62  H27 A02 d          13.472  13.801   3.637  0.00  0.00     0.033 H 
BRANCH  60  63
ATOM     63  CAS A02 d          11.968  13.449   2.111  0.00  0.00    -0.043 C 
ATOM     64  H28 A02 d          11.288  12.592   1.995  0.00  0.00     0.035 H 
ATOM     65  H29 A02 d          12.298  13.794   1.120  0.00  0.00     0.035 H 
BRANCH  63  66
ATOM     66  CAR A02 d          11.219  14.591   2.815  0.00  0.00     0.080 C 
ATOM     67  H30 A02 d          11.943  15.346   3.157  0.00  0.00     0.075 H 
ATOM     68  H31 A02 d          10.672  14.189   3.681  0.00  0.00     0.075 H 
BRANCH  66  69
ATOM     69  NAC A02 d          10.264  15.217   1.883  0.00  0.00    -0.079 N 
ATOM     70  H32 A02 d           9.940  14.529   1.222  0.00  0.00     0.274 HD
ATOM     71  H33 A02 d          10.720  15.969   1.389  0.00  0.00     0.274 HD
ATOM     72  H34 A02 d           9.480  15.582   2.401  0.00  0.00     0.274 HD
ENDBRANCH  66  69
ENDBRANCH  63  66
ENDBRANCH  60  63
ENDBRANCH  57  60
ENDBRANCH   5  57
ENDBRANCH   1   5
BRANCH   3  73
ATOM     73  CBC A02 d          15.234  10.518   7.624  0.00  0.00    -0.005 C 
ATOM     74  H43 A02 d          16.119  10.317   7.002  0.00  0.00     0.064 H 
ATOM     75  H44 A02 d          15.405  11.426   8.221  0.00  0.00     0.064 H 
BRANCH  73  76
ATOM     76  CAV A02 d          14.998   9.332   8.565  0.00  0.00    -0.050 C 
ATOM     77  H41 A02 d          15.400   9.573   9.560  0.00  0.00     0.035 H 
ATOM     78  H42 A02 d          13.917   9.142   8.643  0.00  0.00     0.035 H 
BRANCH  76  79
ATOM     79  CAT A02 d          15.694   8.074   8.030  0.00  0.00    -0.063 C 
ATOM     80  H39 A02 d          15.290   7.195   8.552  0.00  0.00     0.033 H 
ATOM     81  H40 A02 d          15.492   7.987   6.952  0.00  0.00     0.033 H 
BRANCH  79  82
ATOM     82  CAY A02 d          17.210   8.126   8.248  0.00  0.00    -0.057 C 
ATOM     83  H37 A02 d          17.533   9.178   8.253  0.00  0.00     0.033 H 
ATOM     84  H38 A02 d          17.446   7.664   9.217  0.00  0.00     0.033 H 
BRANCH  82  85
ATOM     85  CBH A02 d          17.970   7.377   7.140  0.00  0.00     0.009 C 
ATOM     86  H35 A02 d          18.889   6.948   7.566  0.00  0.00     0.047 H 
ATOM     87  H36 A02 d          17.332   6.568   6.755  0.00  0.00     0.047 H 
BRANCH  85  88
ATOM     88  CCA A02 d          18.348   8.311   5.978  0.00  0.00     0.218 C 
ATOM     89  OAJ A02 d          19.478   8.803   5.903  0.00  0.00    -0.274 OA
ATOM     90  NBT A02 d          17.374   8.523   5.085  0.00  0.00    -0.348 N 
ATOM     91  H46 A02 d          16.492   8.071   5.225  0.00  0.00     0.163 HD
BRANCH  90  92
ATOM     92  CCJ A02 d          17.538   9.396   3.897  0.00  0.00     0.089 C 
ATOM     93  H47 A02 d          18.496   9.927   3.997  0.00  0.00     0.087 H 
BRANCH  92  94
ATOM     94  CBK A02 d          16.412  10.461   3.817  0.00  0.00    -0.036 C 
ATOM     95  H48 A02 d          15.800  10.383   4.728  0.00  0.00     0.036 H 
ATOM     96  H49 A02 d          15.790  10.239   2.938  0.00  0.00     0.036 H 
BRANCH  94  97
ATOM     97  CBB A02 d          16.913  11.910   3.697  0.00  0.00    -0.048 C 
ATOM     98  H50 A02 d          16.045  12.586   3.698  0.00  0.00     0.035 H 
ATOM     99  H51 A02 d          17.461  12.018   2.749  0.00  0.00     0.035 H 
BRANCH  97 100
ATOM    100  CBF A02 d          17.846  12.302   4.854  0.00  0.00     0.009 C 
ATOM    101  H52 A02 d          17.937  11.462   5.559  0.00  0.00     0.064 H 
ATOM    102  H53 A02 d          17.438  13.179   5.379  0.00  0.00     0.064 H 
BRANCH 100 103
ATOM    103  NBP A02 d          19.170  12.628   4.292  0.00  0.00    -0.227 N 
ATOM    104  CBX A02 d          19.538  13.855   3.898  0.00  0.00     0.665 C 
ATOM    105  NAB A02 d          18.728  14.908   3.997  0.00  0.00    -0.235 N 
ATOM    106  NAE A02 d          20.759  14.021   3.401  0.00  0.00    -0.235 N 
ATOM    107  H55 A02 d          19.049  15.836   3.682  0.00  0.00     0.174 HD
ATOM    108  H56 A02 d          17.782  14.796   4.387  0.00  0.00     0.174 HD
ATOM    109  H57 A02 d          21.397  13.216   3.319  0.00  0.00     0.174 HD
ATOM    110  H58 A02 d          21.070  14.956   3.098  0.00  0.00     0.174 HD
ATOM    111  H54 A02 d          19.855  11.865   4.196  0.00  0.00     0.177 HD
ENDBRANCH 100 103
ENDBRANCH  97 100
ENDBRANCH  94  97
ENDBRANCH  92  94
BRANCH  92 112
ATOM    112  CCD A02 d          17.596   8.546   2.604  0.00  0.00     0.241 C 
ATOM    113  OAM A02 d          18.015   9.024   1.550  0.00  0.00    -0.271 OA
ATOM    114  N   A02 d          17.162   7.290   2.726  0.00  0.00    -0.346 N 
ATOM    115  H59 A02 d          16.837   6.985   3.622  0.00  0.00     0.163 HD
BRANCH 114 116
ATOM    116  CA  A02 d          17.135   6.324   1.604  0.00  0.00     0.089 C 
ATOM    117  H60 A02 d          16.969   6.879   0.670  0.00  0.00     0.087 H 
BRANCH 116 118
ATOM    118  CB  A02 d          15.982   5.333   1.803  0.00  0.00    -0.036 C 
ATOM    119  H61 A02 d          15.489   5.546   2.763  0.00  0.00     0.036 H 
ATOM    120  H62 A02 d          16.387   4.310   1.819  0.00  0.00     0.036 H 
BRANCH 118 121
ATOM    121  CG  A02 d          14.950   5.442   0.679  0.00  0.00    -0.048 C 
ATOM    122  H63 A02 d          14.300   4.554   0.702  0.00  0.00     0.035 H 
ATOM    123  H64 A02 d          15.475   5.487  -0.287  0.00  0.00     0.035 H 
BRANCH 121 124
ATOM    124  CD  A02 d          14.090   6.692   0.836  0.00  0.00     0.009 C 
ATOM    125  H65 A02 d          13.212   6.628   0.177  0.00  0.00     0.064 H 
ATOM    126  H66 A02 d          14.677   7.587   0.580  0.00  0.00     0.064 H 
BRANCH 124 127
ATOM    127  NE  A02 d          13.663   6.757   2.230  0.00  0.00    -0.227 N 
ATOM    128  CZ  A02 d          12.433   6.495   2.669  0.00  0.00     0.665 C 
ATOM    129  NH1 A02 d          11.445   6.097   1.867  0.00  0.00    -0.235 N 
ATOM    130  NH2 A02 d          12.220   6.626   3.971  0.00  0.00    -0.235 N 
ATOM    131  H68 A02 d          10.511   5.907   2.256  0.00  0.00     0.174 HD
ATOM    132  H69 A02 d          11.617   5.980   0.858  0.00  0.00     0.174 HD
ATOM    133  H70 A02 d          12.984   6.933   4.590  0.00  0.00     0.174 HD
ATOM    134  H71 A02 d          11.290   6.419   4.365  0.00  0.00     0.174 HD
ATOM    135  H67 A02 d          14.368   7.028   2.931  0.00  0.00     0.177 HD
ENDBRANCH 124 127
ENDBRANCH 121 124
ENDBRANCH 118 121
ENDBRANCH 116 118
BRANCH 116 136
ATOM    136  C   A02 d          18.472   5.557   1.486  0.00  0.00     0.238 C 
ATOM    137  O   A02 d          19.237   5.728   0.533  0.00  0.00    -0.271 OA
ATOM    138  NAF A02 d          18.731   4.728   2.495  0.00  0.00    -0.368 N 
ATOM    139  H72 A02 d          19.575   4.192   2.498  0.00  0.00     0.159 HD
ATOM    140  H73 A02 d          18.081   4.642   3.250  0.00  0.00     0.159 HD
ENDBRANCH 116 136
ENDBRANCH 114 116
ENDBRANCH  92 112
ENDBRANCH  90  92
ENDBRANCH  85  88
ENDBRANCH  82  85
ENDBRANCH  79  82
ENDBRANCH  76  79
ENDBRANCH  73  76
ENDBRANCH   3  73
TORSDOF 36
ENDMDL
MODEL 3
REMARK VINA RESULT:      -4.7      2.858      9.821
REMARK WARNING: 32 MAX_TORS EXCEEDED!!!
REMARK  36 active torsions:
REMARK  status: ('A' for Active; 'I' for Inactive)
REMARK    1  A    between atoms: C6_6  and  N6_7 
REMARK    2  A    between atoms: CCN_19  and  N9_10 
REMARK    3  A    between atoms: CCK_16  and  OAN_12 
REMARK    4  A    between atoms: CCL_17  and  OAO_13 
REMARK    5  A    between atoms: CCC_15  and  CCM_18 
REMARK       I    between atoms: NBR_27  and  CCC_15 
REMARK    6  A    between atoms: CBZ_20  and  CBG_22 
REMARK       I    between atoms: NBS_28  and  CBZ_20 
REMARK    7  A    between atoms: CBG_22  and  CAX_23 
REMARK    8  A    between atoms: CAX_23  and  CAU_24 
REMARK    9  A    between atoms: CAU_24  and  CAW_25 
REMARK   10  A    between atoms: CAW_25  and  CBD_26 
REMARK   11  A    between atoms: CBD_26  and  NBR_27 
REMARK   12  A    between atoms: CCI_29  and  NBS_28 
REMARK   13  A    between atoms: CCB_30  and  CCI_29 
REMARK   14  A    between atoms: CCI_29  and  CBJ_32 
REMARK       I    between atoms: NBQ_44  and  CCB_30 
REMARK   15  A    between atoms: CBJ_32  and  CAZ_33 
REMARK   16  A    between atoms: CAZ_33  and  CAS_34 
REMARK   17  A    between atoms: CAS_34  and  CAR_35 
REMARK   18  A    between atoms: CAR_35  and  NAC_36 
REMARK   19  A    between atoms: CBH_39  and  CCA_37 
REMARK       I    between atoms: CCA_37  and  NBT_45 
REMARK   20  A    between atoms: CAY_40  and  CBH_39 
REMARK   21  A    between atoms: CAT_41  and  CAY_40 
REMARK   22  A    between atoms: CAV_42  and  CAT_41 
REMARK   23  A    between atoms: CBC_43  and  CAV_42 
REMARK   24  A    between atoms: CBC_43  and  NBQ_44 
REMARK   25  A    between atoms: NBT_45  and  CCJ_46 
REMARK   26  A    between atoms: CCJ_46  and  CBK_47 
REMARK   27  A    between atoms: CCJ_46  and  CCD_54 
REMARK   28  A    between atoms: CBK_47  and  CBB_48 
REMARK   29  A    between atoms: CBB_48  and  CBF_49 
REMARK   30  A    between atoms: CBF_49  and  NBP_50 
REMARK       I    between atoms: NBP_50  and  CBX_51 
REMARK       I    between atoms: CBX_51  and  NAB_52 
REMARK       I    between atoms: CBX_51  and  NAE_53 
REMARK       I    between atoms: CCD_54  and  N_56 
REMARK   31  A    between atoms: N_56  and  CA_57 
REMARK   32  A    between atoms: CA_57  and  CB_58 
REMARK   33  A    between atoms: CA_57  and  C_65 
REMARK   34  A    between atoms: CB_58  and  CG_59 
REMARK   35  A    between atoms: CG_59  and  CD_60 
REMARK   36  A    between atoms: CD_60  and  NE_61 
REMARK       I    between atoms: NE_61  and  CZ_62 
REMARK       I    between atoms: CZ_62  and  NH1_63 
REMARK       I    between atoms: C_65  and  NAF_67 
ROOT
ATOM      1  CCB A02 d          17.596   7.361   2.036  0.00  0.00     0.240 C 
ATOM      2  OAK A02 d          16.468   6.976   2.318  0.00  0.00    -0.271 OA
ATOM      3  NBQ A02 d          17.854   8.267   1.094  0.00  0.00    -0.359 N 
ATOM      4  H45 A02 d          18.806   8.520   0.917  0.00  0.00     0.162 HD
ENDROOT
BRANCH   1   5
ATOM      5  CCI A02 d          18.832   6.772   2.758  0.00  0.00     0.089 C 
ATOM      6  H23 A02 d          19.221   5.965   2.120  0.00  0.00     0.087 H 
BRANCH   5   7
ATOM      7  NBS A02 d          18.438   6.159   4.053  0.00  0.00    -0.348 N 
ATOM      8  CBZ A02 d          18.616   4.852   4.300  0.00  0.00     0.218 C 
ATOM      9  OAI A02 d          19.066   4.043   3.480  0.00  0.00    -0.274 OA
ATOM     10  H22 A02 d          18.030   6.736   4.760  0.00  0.00     0.163 HD
BRANCH   8  11
ATOM     11  CBG A02 d          18.160   4.383   5.697  0.00  0.00     0.009 C 
ATOM     12  H11 A02 d          17.455   5.120   6.108  0.00  0.00     0.047 H 
ATOM     13  H12 A02 d          19.040   4.312   6.353  0.00  0.00     0.047 H 
BRANCH  11  14
ATOM     14  CAX A02 d          17.466   3.007   5.643  0.00  0.00    -0.057 C 
ATOM     15  H13 A02 d          18.217   2.220   5.810  0.00  0.00     0.033 H 
ATOM     16  H14 A02 d          17.009   2.874   4.651  0.00  0.00     0.033 H 
BRANCH  14  17
ATOM     17  CAU A02 d          16.376   2.892   6.715  0.00  0.00    -0.063 C 
ATOM     18  H15 A02 d          15.402   3.105   6.249  0.00  0.00     0.033 H 
ATOM     19  H16 A02 d          16.577   3.634   7.501  0.00  0.00     0.033 H 
BRANCH  17  20
ATOM     20  CAW A02 d          16.317   1.503   7.357  0.00  0.00    -0.050 C 
ATOM     21  H17 A02 d          16.442   1.588   8.447  0.00  0.00     0.035 H 
ATOM     22  H18 A02 d          17.113   0.865   6.946  0.00  0.00     0.035 H 
BRANCH  20  23
ATOM     23  CBD A02 d          14.947   0.904   7.033  0.00  0.00    -0.005 C 
ATOM     24  H19 A02 d          14.616   0.299   7.890  0.00  0.00     0.064 H 
ATOM     25  H20 A02 d          15.044   0.261   6.147  0.00  0.00     0.064 H 
BRANCH  23  26
ATOM     26  NBR A02 d          13.927   1.932   6.760  0.00  0.00    -0.359 N 
ATOM     27  CCC A02 d          12.916   2.227   7.578  0.00  0.00     0.249 C 
ATOM     28  OAL A02 d          12.670   1.627   8.634  0.00  0.00    -0.271 OA
ATOM     29  H21 A02 d          13.999   2.444   5.904  0.00  0.00     0.162 HD
BRANCH  27  30
ATOM     30  CCM A02 d          12.011   3.399   7.152  0.00  0.00     0.144 C 
ATOM     31  OBV A02 d          10.968   3.661   8.149  0.00  0.00    -0.346 OA
ATOM     32  CCN A02 d          11.324   4.852   8.910  0.00  0.00     0.140 C 
ATOM     33  CCL A02 d          12.785   5.154   8.521  0.00  0.00     0.105 C 
ATOM     34  H10 A02 d          10.684   5.691   8.604  0.00  0.00     0.123 H 
ATOM     35  CCK A02 d          12.841   4.681   7.080  0.00  0.00     0.098 C 
ATOM     36  H8  A02 d          13.499   4.614   9.160  0.00  0.00     0.093 H 
ATOM     37  H7  A02 d          13.870   4.501   6.736  0.00  0.00     0.091 H 
ATOM     38  H9  A02 d          11.557   3.176   6.175  0.00  0.00     0.102 H 
BRANCH  32  39
ATOM     39  N9  A02 d          11.141   4.637  10.409  0.00  0.00    -0.294 N 
ATOM     40  C4  A02 d          12.061   4.181  11.252  0.00  0.00     0.167 A 
ATOM     41  N3  A02 d          13.334   3.784  11.093  0.00  0.00    -0.222 NA
ATOM     42  C5  A02 d          11.479   4.130  12.511  0.00  0.00     0.149 A 
ATOM     43  C2  A02 d          14.041   3.361  12.133  0.00  0.00     0.091 A 
ATOM     44  N1  A02 d          13.507   3.309  13.361  0.00  0.00    -0.222 NA
ATOM     45  H1  A02 d          15.069   3.050  11.986  0.00  0.00     0.146 H 
ATOM     46  C6  A02 d          12.235   3.680  13.580  0.00  0.00     0.155 A 
ATOM     47  N7  A02 d          10.223   4.562  12.409  0.00  0.00    -0.236 NA
ATOM     48  C8  A02 d          10.031   4.880  11.124  0.00  0.00     0.071 A 
ATOM     49  H4  A02 d           9.104   5.280  10.716  0.00  0.00     0.144 H 
BRANCH  46  50
ATOM     50  N6  A02 d          11.702   3.617  14.795  0.00  0.00    -0.382 N 
ATOM     51  H2  A02 d          11.618   4.470  15.365  0.00  0.00     0.157 HD
ATOM     52  H3  A02 d          11.373   2.714  15.168  0.00  0.00     0.157 HD
ENDBRANCH  46  50
ENDBRANCH  32  39
BRANCH  33  53
ATOM     53  OAO A02 d          13.032   6.552   8.575  0.00  0.00    -0.388 OA
ATOM     54  H6  A02 d          12.854   6.937   7.724  0.00  0.00     0.210 HD
ENDBRANCH  33  53
BRANCH  35  55
ATOM     55  OAN A02 d          12.172   5.631   6.228  0.00  0.00    -0.390 OA
ATOM     56  H5  A02 d          11.419   5.989   6.685  0.00  0.00     0.210 HD
ENDBRANCH  35  55
ENDBRANCH  27  30
ENDBRANCH  23  26
ENDBRANCH  20  23
ENDBRANCH  17  20
ENDBRANCH  14  17
ENDBRANCH  11  14
ENDBRANCH   8  11
ENDBRANCH   5   7
BRANCH   5  57
ATOM     57  CBJ A02 d          19.977   7.795   2.932  0.00  0.00    -0.038 C 
ATOM     58  H24 A02 d          20.303   8.113   1.931  0.00  0.00     0.036 H 
ATOM     59  H25 A02 d          20.808   7.289   3.445  0.00  0.00     0.036 H 
BRANCH  57  60
ATOM     60  CAZ A02 d          19.618   9.049   3.735  0.00  0.00    -0.061 C 
ATOM     61  H26 A02 d          18.784   8.819   4.415  0.00  0.00     0.033 H 
ATOM     62  H27 A02 d          19.317   9.849   3.044  0.00  0.00     0.033 H 
BRANCH  60  63
ATOM     63  CAS A02 d          20.834   9.520   4.561  0.00  0.00    -0.043 C 
ATOM     64  H28 A02 d          20.564  10.436   5.108  0.00  0.00     0.035 H 
ATOM     65  H29 A02 d          21.671   9.732   3.879  0.00  0.00     0.035 H 
BRANCH  63  66
ATOM     66  CAR A02 d          21.270   8.445   5.569  0.00  0.00     0.080 C 
ATOM     67  H30 A02 d          22.162   8.794   6.110  0.00  0.00     0.075 H 
ATOM     68  H31 A02 d          21.507   7.515   5.031  0.00  0.00     0.075 H 
BRANCH  66  69
ATOM     69  NAC A02 d          20.184   8.187   6.532  0.00  0.00    -0.079 N 
ATOM     70  H32 A02 d          19.938   9.047   6.999  0.00  0.00     0.274 HD
ATOM     71  H33 A02 d          20.492   7.511   7.213  0.00  0.00     0.274 HD
ATOM     72  H34 A02 d          19.379   7.828   6.042  0.00  0.00     0.274 HD
ENDBRANCH  66  69
ENDBRANCH  63  66
ENDBRANCH  60  63
ENDBRANCH  57  60
ENDBRANCH   5  57
ENDBRANCH   1   5
BRANCH   3  73
ATOM     73  CBC A02 d          16.786   8.915   0.299  0.00  0.00    -0.005 C 
ATOM     74  H43 A02 d          17.206   9.262  -0.657  0.00  0.00     0.064 H 
ATOM     75  H44 A02 d          15.987   8.184   0.103  0.00  0.00     0.064 H 
BRANCH  73  76
ATOM     76  CAV A02 d          16.201  10.112   1.057  0.00  0.00    -0.050 C 
ATOM     77  H41 A02 d          15.268  10.429   0.567  0.00  0.00     0.035 H 
ATOM     78  H42 A02 d          15.987   9.813   2.093  0.00  0.00     0.035 H 
BRANCH  76  79
ATOM     79  CAT A02 d          17.192  11.281   1.062  0.00  0.00    -0.063 C 
ATOM     80  H39 A02 d          18.212  10.882   1.154  0.00  0.00     0.033 H 
ATOM     81  H40 A02 d          17.098  11.833   0.114  0.00  0.00     0.033 H 
BRANCH  79  82
ATOM     82  CAY A02 d          16.930  12.245   2.224  0.00  0.00    -0.057 C 
ATOM     83  H37 A02 d          17.661  13.067   2.176  0.00  0.00     0.033 H 
ATOM     84  H38 A02 d          15.913  12.652   2.126  0.00  0.00     0.033 H 
BRANCH  82  85
ATOM     85  CBH A02 d          17.058  11.543   3.586  0.00  0.00     0.009 C 
ATOM     86  H35 A02 d          17.374  10.503   3.423  0.00  0.00     0.047 H 
ATOM     87  H36 A02 d          17.816  12.067   4.188  0.00  0.00     0.047 H 
BRANCH  85  88
ATOM     88  CCA A02 d          15.725  11.544   4.353  0.00  0.00     0.218 C 
ATOM     89  OAJ A02 d          15.253  12.593   4.802  0.00  0.00    -0.274 OA
ATOM     90  NBT A02 d          15.142  10.344   4.472  0.00  0.00    -0.348 N 
ATOM     91  H46 A02 d          15.596   9.552   4.064  0.00  0.00     0.163 HD
BRANCH  90  92
ATOM     92  CCJ A02 d          13.855  10.134   5.180  0.00  0.00     0.089 C 
ATOM     93  H47 A02 d          13.684  11.000   5.835  0.00  0.00     0.087 H 
BRANCH  92  94
ATOM     94  CBK A02 d          13.902   8.866   6.073  0.00  0.00    -0.036 C 
ATOM     95  H48 A02 d          13.934   7.984   5.416  0.00  0.00     0.036 H 
ATOM     96  H49 A02 d          12.986   8.838   6.680  0.00  0.00     0.036 H 
BRANCH  94  97
ATOM     97  CBB A02 d          15.110   8.800   7.024  0.00  0.00    -0.048 C 
ATOM     98  H50 A02 d          14.751   8.893   8.059  0.00  0.00     0.035 H 
ATOM     99  H51 A02 d          15.787   9.636   6.794  0.00  0.00     0.035 H 
BRANCH  97 100
ATOM    100  CBF A02 d          15.889   7.482   6.887  0.00  0.00     0.009 C 
ATOM    101  H52 A02 d          16.229   7.357   5.849  0.00  0.00     0.064 H 
ATOM    102  H53 A02 d          15.241   6.637   7.164  0.00  0.00     0.064 H 
BRANCH 100 103
ATOM    103  NBP A02 d          17.053   7.536   7.792  0.00  0.00    -0.227 N 
ATOM    104  CBX A02 d          17.014   8.032   9.036  0.00  0.00     0.665 C 
ATOM    105  NAB A02 d          15.897   8.513   9.578  0.00  0.00    -0.235 N 
ATOM    106  NAE A02 d          18.134   8.030   9.754  0.00  0.00    -0.235 N 
ATOM    107  H55 A02 d          15.909   8.886  10.539  0.00  0.00     0.174 HD
ATOM    108  H56 A02 d          15.020   8.513   9.037  0.00  0.00     0.174 HD
ATOM    109  H57 A02 d          19.006   7.660   9.348  0.00  0.00     0.174 HD
ATOM    110  H58 A02 d          18.129   8.398  10.716  0.00  0.00     0.174 HD
ATOM    111  H54 A02 d          17.951   7.170   7.445  0.00  0.00     0.177 HD
ENDBRANCH 100 103
ENDBRANCH  97 100
ENDBRANCH  94  97
ENDBRANCH  92  94
BRANCH  92 112
ATOM    112  CCD A02 d          12.686  10.062   4.169  0.00  0.00     0.241 C 
ATOM    113  OAM A02 d          12.554  10.916   3.291  0.00  0.00    -0.271 OA
ATOM    114  N   A02 d          11.854   9.030   4.328  0.00  0.00    -0.346 N 
ATOM    115  H59 A02 d          12.037   8.385   5.070  0.00  0.00     0.163 HD
BRANCH 114 116
ATOM    116  CA  A02 d          10.677   8.791   3.464  0.00  0.00     0.089 C 
ATOM    117  H60 A02 d          10.612   9.606   2.728  0.00  0.00     0.087 H 
BRANCH 116 118
ATOM    118  CB  A02 d           9.402   8.793   4.317  0.00  0.00    -0.036 C 
ATOM    119  H61 A02 d           9.671   8.588   5.364  0.00  0.00     0.036 H 
ATOM    120  H62 A02 d           8.725   8.006   3.951  0.00  0.00     0.036 H 
BRANCH 118 121
ATOM    121  CG  A02 d           8.682  10.141   4.244  0.00  0.00    -0.048 C 
ATOM    122  H63 A02 d           7.953  10.115   3.420  0.00  0.00     0.035 H 
ATOM    123  H64 A02 d           9.421  10.933   4.054  0.00  0.00     0.035 H 
BRANCH 121 124
ATOM    124  CD  A02 d           7.949  10.449   5.546  0.00  0.00     0.009 C 
ATOM    125  H65 A02 d           8.325   9.801   6.351  0.00  0.00     0.064 H 
ATOM    126  H66 A02 d           6.868  10.284   5.417  0.00  0.00     0.064 H 
BRANCH 124 127
ATOM    127  NE  A02 d           8.204  11.848   5.872  0.00  0.00    -0.227 N 
ATOM    128  CZ  A02 d           8.965  12.275   6.879  0.00  0.00     0.665 C 
ATOM    129  NH1 A02 d           9.622  11.449   7.693  0.00  0.00    -0.235 N 
ATOM    130  NH2 A02 d           9.069  13.587   7.039  0.00  0.00    -0.235 N 
ATOM    131  H68 A02 d          10.198  11.829   8.457  0.00  0.00     0.174 HD
ATOM    132  H69 A02 d           9.554  10.430   7.557  0.00  0.00     0.174 HD
ATOM    133  H70 A02 d           8.560  14.225   6.409  0.00  0.00     0.174 HD
ATOM    134  H71 A02 d           9.658  13.970   7.792  0.00  0.00     0.174 HD
ATOM    135  H67 A02 d           7.761  12.563   5.277  0.00  0.00     0.177 HD
ENDBRANCH 124 127
ENDBRANCH 121 124
ENDBRANCH 118 121
ENDBRANCH 116 118
BRANCH 116 136
ATOM    136  C   A02 d          10.796   7.452   2.701  0.00  0.00     0.238 C 
ATOM    137  O   A02 d          11.594   7.302   1.774  0.00  0.00    -0.271 OA
ATOM    138  NAF A02 d           9.992   6.486   3.141  0.00  0.00    -0.368 N 
ATOM    139  H72 A02 d          10.004   5.587   2.703  0.00  0.00     0.159 HD
ATOM    140  H73 A02 d           9.375   6.660   3.909  0.00  0.00     0.159 HD
ENDBRANCH 116 136
ENDBRANCH 114 116
ENDBRANCH  92 112
ENDBRANCH  90  92
ENDBRANCH  85  88
ENDBRANCH  82  85
ENDBRANCH  79  82
ENDBRANCH  76  79
ENDBRANCH  73  76
ENDBRANCH   3  73
TORSDOF 36
ENDMDL
MODEL 4
REMARK VINA RESULT:      -4.7      2.892      9.458
REMARK WARNING: 32 MAX_TORS EXCEEDED!!!
REMARK  36 active torsions:
REMARK  status: ('A' for Active; 'I' for Inactive)
REMARK    1  A    between atoms: C6_6  and  N6_7 
REMARK    2  A    between atoms: CCN_19  and  N9_10 
REMARK    3  A    between atoms: CCK_16  and  OAN_12 
REMARK    4  A    between atoms: CCL_17  and  OAO_13 
REMARK    5  A    between atoms: CCC_15  and  CCM_18 
REMARK       I    between atoms: NBR_27  and  CCC_15 
REMARK    6  A    between atoms: CBZ_20  and  CBG_22 
REMARK       I    between atoms: NBS_28  and  CBZ_20 
REMARK    7  A    between atoms: CBG_22  and  CAX_23 
REMARK    8  A    between atoms: CAX_23  and  CAU_24 
REMARK    9  A    between atoms: CAU_24  and  CAW_25 
REMARK   10  A    between atoms: CAW_25  and  CBD_26 
REMARK   11  A    between atoms: CBD_26  and  NBR_27 
REMARK   12  A    between atoms: CCI_29  and  NBS_28 
REMARK   13  A    between atoms: CCB_30  and  CCI_29 
REMARK   14  A    between atoms: CCI_29  and  CBJ_32 
REMARK       I    between atoms: NBQ_44  and  CCB_30 
REMARK   15  A    between atoms: CBJ_32  and  CAZ_33 
REMARK   16  A    between atoms: CAZ_33  and  CAS_34 
REMARK   17  A    between atoms: CAS_34  and  CAR_35 
REMARK   18  A    between atoms: CAR_35  and  NAC_36 
REMARK   19  A    between atoms: CBH_39  and  CCA_37 
REMARK       I    between atoms: CCA_37  and  NBT_45 
REMARK   20  A    between atoms: CAY_40  and  CBH_39 
REMARK   21  A    between atoms: CAT_41  and  CAY_40 
REMARK   22  A    between atoms: CAV_42  and  CAT_41 
REMARK   23  A    between atoms: CBC_43  and  CAV_42 
REMARK   24  A    between atoms: CBC_43  and  NBQ_44 
REMARK   25  A    between atoms: NBT_45  and  CCJ_46 
REMARK   26  A    between atoms: CCJ_46  and  CBK_47 
REMARK   27  A    between atoms: CCJ_46  and  CCD_54 
REMARK   28  A    between atoms: CBK_47  and  CBB_48 
REMARK   29  A    between atoms: CBB_48  and  CBF_49 
REMARK   30  A    between atoms: CBF_49  and  NBP_50 
REMARK       I    between atoms: NBP_50  and  CBX_51 
REMARK       I    between atoms: CBX_51  and  NAB_52 
REMARK       I    between atoms: CBX_51  and  NAE_53 
REMARK       I    between atoms: CCD_54  and  N_56 
REMARK   31  A    between atoms: N_56  and  CA_57 
REMARK   32  A    between atoms: CA_57  and  CB_58 
REMARK   33  A    between atoms: CA_57  and  C_65 
REMARK   34  A    between atoms: CB_58  and  CG_59 
REMARK   35  A    between atoms: CG_59  and  CD_60 
REMARK   36  A    between atoms: CD_60  and  NE_61 
REMARK       I    between atoms: NE_61  and  CZ_62 
REMARK       I    between atoms: CZ_62  and  NH1_63 
REMARK       I    between atoms: C_65  and  NAF_67 
ROOT
ATOM      1  CCB A02 d          11.346  10.624   5.423  0.00  0.00     0.240 C 
ATOM      2  OAK A02 d          10.408  10.173   4.776  0.00  0.00    -0.271 OA
ATOM      3  NBQ A02 d          12.565  10.815   4.922  0.00  0.00    -0.359 N 
ATOM      4  H45 A02 d          13.280  11.179   5.520  0.00  0.00     0.162 HD
ENDROOT
BRANCH   1   5
ATOM      5  CCI A02 d          11.171  10.978   6.920  0.00  0.00     0.089 C 
ATOM      6  H23 A02 d          12.166  11.244   7.305  0.00  0.00     0.087 H 
BRANCH   5   7
ATOM      7  NBS A02 d          10.704   9.794   7.686  0.00  0.00    -0.348 N 
ATOM      8  CBZ A02 d           9.421   9.651   8.055  0.00  0.00     0.218 C 
ATOM      9  OAI A02 d           8.537  10.490   7.840  0.00  0.00    -0.274 OA
ATOM     10  H22 A02 d          11.363   9.085   7.935  0.00  0.00     0.163 HD
BRANCH   8  11
ATOM     11  CBG A02 d           9.106   8.360   8.838  0.00  0.00     0.009 C 
ATOM     12  H11 A02 d           9.976   7.691   8.785  0.00  0.00     0.047 H 
ATOM     13  H12 A02 d           8.236   7.869   8.377  0.00  0.00     0.047 H 
BRANCH  11  14
ATOM     14  CAX A02 d           8.789   8.649  10.318  0.00  0.00    -0.057 C 
ATOM     15  H13 A02 d           7.734   8.951  10.407  0.00  0.00     0.033 H 
ATOM     16  H14 A02 d           9.435   9.468  10.671  0.00  0.00     0.033 H 
BRANCH  14  17
ATOM     17  CAU A02 d           9.029   7.412  11.190  0.00  0.00    -0.063 C 
ATOM     18  H15 A02 d           9.151   7.736  12.234  0.00  0.00     0.033 H 
ATOM     19  H16 A02 d           9.952   6.917  10.851  0.00  0.00     0.033 H 
BRANCH  17  20
ATOM     20  CAW A02 d           7.880   6.403  11.122  0.00  0.00    -0.050 C 
ATOM     21  H17 A02 d           7.657   6.157  10.073  0.00  0.00     0.035 H 
ATOM     22  H18 A02 d           6.982   6.823  11.599  0.00  0.00     0.035 H 
BRANCH  20  23
ATOM     23  CBD A02 d           8.327   5.144  11.869  0.00  0.00    -0.005 C 
ATOM     24  H19 A02 d           7.788   4.279  11.455  0.00  0.00     0.064 H 
ATOM     25  H20 A02 d           8.076   5.258  12.933  0.00  0.00     0.064 H 
BRANCH  23  26
ATOM     26  NBR A02 d           9.775   4.898  11.750  0.00  0.00    -0.359 N 
ATOM     27  CCC A02 d          10.561   4.523  12.760  0.00  0.00     0.249 C 
ATOM     28  OAL A02 d          10.184   4.402  13.935  0.00  0.00    -0.271 OA
ATOM     29  H21 A02 d          10.197   5.020  10.851  0.00  0.00     0.162 HD
BRANCH  27  30
ATOM     30  CCM A02 d          12.032   4.228  12.409  0.00  0.00     0.144 C 
ATOM     31  OBV A02 d          12.189   3.907  10.986  0.00  0.00    -0.346 OA
ATOM     32  CCN A02 d          12.766   5.057  10.300  0.00  0.00     0.140 C 
ATOM     33  CCL A02 d          12.697   6.210  11.321  0.00  0.00     0.105 C 
ATOM     34  H10 A02 d          13.817   4.851  10.052  0.00  0.00     0.123 H 
ATOM     35  CCK A02 d          12.872   5.483  12.642  0.00  0.00     0.098 C 
ATOM     36  H8  A02 d          11.738   6.745  11.269  0.00  0.00     0.093 H 
ATOM     37  H7  A02 d          12.519   6.076  13.498  0.00  0.00     0.091 H 
ATOM     38  H9  A02 d          12.397   3.396  13.029  0.00  0.00     0.102 H 
BRANCH  32  39
ATOM     39  N9  A02 d          12.026   5.367   9.003  0.00  0.00    -0.294 N 
ATOM     40  C4  A02 d          12.442   6.186   8.042  0.00  0.00     0.167 A 
ATOM     41  N3  A02 d          13.536   6.950   7.899  0.00  0.00    -0.222 NA
ATOM     42  C5  A02 d          11.469   6.187   7.051  0.00  0.00     0.149 A 
ATOM     43  C2  A02 d          13.701   7.691   6.811  0.00  0.00     0.091 A 
ATOM     44  N1  A02 d          12.783   7.706   5.834  0.00  0.00    -0.222 NA
ATOM     45  H1  A02 d          14.594   8.298   6.710  0.00  0.00     0.146 H 
ATOM     46  C6  A02 d          11.662   6.973   5.927  0.00  0.00     0.155 A 
ATOM     47  N7  A02 d          10.490   5.367   7.425  0.00  0.00    -0.236 NA
ATOM     48  C8  A02 d          10.845   4.862   8.612  0.00  0.00     0.071 A 
ATOM     49  H4  A02 d          10.258   4.143   9.181  0.00  0.00     0.144 H 
BRANCH  46  50
ATOM     50  N6  A02 d          10.745   6.997   4.965  0.00  0.00    -0.382 N 
ATOM     51  H2  A02 d          10.598   7.855   4.415  0.00  0.00     0.157 HD
ATOM     52  H3  A02 d          10.182   6.157   4.770  0.00  0.00     0.157 HD
ENDBRANCH  46  50
ENDBRANCH  32  39
BRANCH  33  53
ATOM     53  OAO A02 d          13.777   7.110  11.124  0.00  0.00    -0.388 OA
ATOM     54  H6  A02 d          14.530   6.633  10.794  0.00  0.00     0.210 HD
ENDBRANCH  33  53
BRANCH  35  55
ATOM     55  OAN A02 d          14.252   5.105  12.811  0.00  0.00    -0.390 OA
ATOM     56  H5  A02 d          14.359   4.665  13.647  0.00  0.00     0.210 HD
ENDBRANCH  35  55
ENDBRANCH  27  30
ENDBRANCH  23  26
ENDBRANCH  20  23
ENDBRANCH  17  20
ENDBRANCH  14  17
ENDBRANCH  11  14
ENDBRANCH   8  11
ENDBRANCH   5   7
BRANCH   5  57
ATOM     57  CBJ A02 d          10.261  12.206   7.150  0.00  0.00    -0.038 C 
ATOM     58  H24 A02 d           9.900  12.171   8.189  0.00  0.00     0.036 H 
ATOM     59  H25 A02 d           9.406  12.128   6.463  0.00  0.00     0.036 H 
BRANCH  57  60
ATOM     60  CAZ A02 d          10.928  13.567   6.925  0.00  0.00    -0.061 C 
ATOM     61  H26 A02 d          11.998  13.417   6.720  0.00  0.00     0.033 H 
ATOM     62  H27 A02 d          10.811  14.182   7.830  0.00  0.00     0.033 H 
BRANCH  60  63
ATOM     63  CAS A02 d          10.274  14.290   5.729  0.00  0.00    -0.043 C 
ATOM     64  H28 A02 d           9.904  15.271   6.061  0.00  0.00     0.035 H 
ATOM     65  H29 A02 d           9.433  13.685   5.360  0.00  0.00     0.035 H 
BRANCH  63  66
ATOM     66  CAR A02 d          11.282  14.495   4.587  0.00  0.00     0.080 C 
ATOM     67  H30 A02 d          11.172  15.513   4.183  0.00  0.00     0.075 H 
ATOM     68  H31 A02 d          11.085  13.761   3.791  0.00  0.00     0.075 H 
BRANCH  66  69
ATOM     69  NAC A02 d          12.656  14.314   5.089  0.00  0.00    -0.079 N 
ATOM     70  H32 A02 d          12.821  13.336   5.272  0.00  0.00     0.274 HD
ATOM     71  H33 A02 d          12.774  14.840   5.941  0.00  0.00     0.274 HD
ATOM     72  H34 A02 d          13.312  14.642   4.398  0.00  0.00     0.274 HD
ENDBRANCH  66  69
ENDBRANCH  63  66
ENDBRANCH  60  63
ENDBRANCH  57  60
ENDBRANCH   5  57
ENDBRANCH   1   5
BRANCH   3  73
ATOM     73  CBC A02 d          12.903  10.511   3.513  0.00  0.00    -0.005 C 
ATOM     74  H43 A02 d          13.510   9.594   3.477  0.00  0.00     0.064 H 
ATOM     75  H44 A02 d          11.975  10.358   2.943  0.00  0.00     0.064 H 
BRANCH  73  76
ATOM     76  CAV A02 d          13.695  11.664   2.887  0.00  0.00    -0.050 C 
ATOM     77  H41 A02 d          12.995  12.367   2.411  0.00  0.00     0.035 H 
ATOM     78  H42 A02 d          14.257  12.186   3.676  0.00  0.00     0.035 H 
BRANCH  76  79
ATOM     79  CAT A02 d          14.675  11.135   1.834  0.00  0.00    -0.063 C 
ATOM     80  H39 A02 d          14.274  10.202   1.412  0.00  0.00     0.033 H 
ATOM     81  H40 A02 d          14.777  11.885   1.034  0.00  0.00     0.033 H 
BRANCH  79  82
ATOM     82  CAY A02 d          16.058  10.855   2.430  0.00  0.00    -0.057 C 
ATOM     83  H37 A02 d          16.211   9.767   2.480  0.00  0.00     0.033 H 
ATOM     84  H38 A02 d          16.823  11.304   1.780  0.00  0.00     0.033 H 
BRANCH  82  85
ATOM     85  CBH A02 d          16.197  11.443   3.845  0.00  0.00     0.009 C 
ATOM     86  H35 A02 d          16.541  12.484   3.765  0.00  0.00     0.047 H 
ATOM     87  H36 A02 d          15.215  11.417   4.339  0.00  0.00     0.047 H 
BRANCH  85  88
ATOM     88  CCA A02 d          17.204  10.648   4.693  0.00  0.00     0.218 C 
ATOM     89  OAJ A02 d          17.567  11.064   5.799  0.00  0.00    -0.274 OA
ATOM     90  NBT A02 d          17.625   9.503   4.144  0.00  0.00    -0.348 N 
ATOM     91  H46 A02 d          17.266   9.244   3.247  0.00  0.00     0.163 HD
BRANCH  90  92
ATOM     92  CCJ A02 d          18.600   8.598   4.802  0.00  0.00     0.089 C 
ATOM     93  H47 A02 d          18.864   9.034   5.776  0.00  0.00     0.087 H 
BRANCH  92  94
ATOM     94  CBK A02 d          19.904   8.470   3.970  0.00  0.00    -0.036 C 
ATOM     95  H48 A02 d          20.564   7.748   4.474  0.00  0.00     0.036 H 
ATOM     96  H49 A02 d          20.391   9.455   3.941  0.00  0.00     0.036 H 
BRANCH  94  97
ATOM     97  CBB A02 d          19.691   7.996   2.522  0.00  0.00    -0.048 C 
ATOM     98  H50 A02 d          18.741   7.446   2.465  0.00  0.00     0.035 H 
ATOM     99  H51 A02 d          20.520   7.328   2.243  0.00  0.00     0.035 H 
BRANCH  97 100
ATOM    100  CBF A02 d          19.644   9.167   1.527  0.00  0.00     0.009 C 
ATOM    101  H52 A02 d          18.644   9.624   1.537  0.00  0.00     0.064 H 
ATOM    102  H53 A02 d          19.870   8.803   0.514  0.00  0.00     0.064 H 
BRANCH 100 103
ATOM    103  NBP A02 d          20.652  10.163   1.936  0.00  0.00    -0.227 N 
ATOM    104  CBX A02 d          20.989  11.234   1.205  0.00  0.00     0.665 C 
ATOM    105  NAB A02 d          20.421  11.504   0.031  0.00  0.00    -0.235 N 
ATOM    106  NAE A02 d          21.918  12.059   1.680  0.00  0.00    -0.235 N 
ATOM    107  H55 A02 d          20.709  12.339  -0.501  0.00  0.00     0.174 HD
ATOM    108  H56 A02 d          19.695  10.879  -0.346  0.00  0.00     0.174 HD
ATOM    109  H57 A02 d          22.366  11.863   2.587  0.00  0.00     0.174 HD
ATOM    110  H58 A02 d          22.190  12.894   1.141  0.00  0.00     0.174 HD
ATOM    111  H54 A02 d          21.126  10.027   2.840  0.00  0.00     0.177 HD
ENDBRANCH 100 103
ENDBRANCH  97 100
ENDBRANCH  94  97
ENDBRANCH  92  94
BRANCH  92 112
ATOM    112  CCD A02 d          17.963   7.210   5.059  0.00  0.00     0.241 C 
ATOM    113  OAM A02 d          16.740   7.064   5.055  0.00  0.00    -0.271 OA
ATOM    114  N   A02 d          18.826   6.217   5.282  0.00  0.00    -0.346 N 
ATOM    115  H59 A02 d          19.804   6.427   5.268  0.00  0.00     0.163 HD
BRANCH 114 116
ATOM    116  CA  A02 d          18.412   4.822   5.551  0.00  0.00     0.089 C 
ATOM    117  H60 A02 d          17.524   4.840   6.199  0.00  0.00     0.087 H 
BRANCH 116 118
ATOM    118  CB  A02 d          19.540   4.078   6.276  0.00  0.00    -0.036 C 
ATOM    119  H61 A02 d          20.406   4.750   6.374  0.00  0.00     0.036 H 
ATOM    120  H62 A02 d          19.826   3.196   5.684  0.00  0.00     0.036 H 
BRANCH 118 121
ATOM    121  CG  A02 d          19.105   3.623   7.670  0.00  0.00    -0.048 C 
ATOM    122  H63 A02 d          19.007   4.505   8.321  0.00  0.00     0.035 H 
ATOM    123  H64 A02 d          19.868   2.946   8.082  0.00  0.00     0.035 H 
BRANCH 121 124
ATOM    124  CD  A02 d          17.767   2.891   7.622  0.00  0.00     0.009 C 
ATOM    125  H65 A02 d          17.932   1.819   7.440  0.00  0.00     0.064 H 
ATOM    126  H66 A02 d          17.141   3.308   6.818  0.00  0.00     0.064 H 
BRANCH 124 127
ATOM    127  NE  A02 d          17.115   3.084   8.913  0.00  0.00    -0.227 N 
ATOM    128  CZ  A02 d          15.864   3.507   9.086  0.00  0.00     0.665 C 
ATOM    129  NH1 A02 d          15.040   3.767   8.071  0.00  0.00    -0.235 N 
ATOM    130  NH2 A02 d          15.444   3.643  10.336  0.00  0.00    -0.235 N 
ATOM    131  H68 A02 d          14.080   4.092   8.257  0.00  0.00     0.174 HD
ATOM    132  H69 A02 d          15.363   3.645   7.101  0.00  0.00     0.174 HD
ATOM    133  H70 A02 d          16.081   3.441  11.119  0.00  0.00     0.174 HD
ATOM    134  H71 A02 d          14.478   3.951  10.524  0.00  0.00     0.174 HD
ATOM    135  H67 A02 d          17.666   2.877   9.759  0.00  0.00     0.177 HD
ENDBRANCH 124 127
ENDBRANCH 121 124
ENDBRANCH 118 121
ENDBRANCH 116 118
BRANCH 116 136
ATOM    136  C   A02 d          18.047   4.078   4.245  0.00  0.00     0.238 C 
ATOM    137  O   A02 d          16.924   3.605   4.059  0.00  0.00    -0.271 OA
ATOM    138  NAF A02 d          19.029   4.014   3.347  0.00  0.00    -0.368 N 
ATOM    139  H72 A02 d          18.878   3.550   2.474  0.00  0.00     0.159 HD
ATOM    140  H73 A02 d          19.916   4.430   3.546  0.00  0.00     0.159 HD
ENDBRANCH 116 136
ENDBRANCH 114 116
ENDBRANCH  92 112
ENDBRANCH  90  92
ENDBRANCH  85  88
ENDBRANCH  82  85
ENDBRANCH  79  82
ENDBRANCH  76  79
ENDBRANCH  73  76
ENDBRANCH   3  73
TORSDOF 36
ENDMDL
MODEL 5
REMARK VINA RESULT:      -4.6      3.422      8.116
REMARK WARNING: 32 MAX_TORS EXCEEDED!!!
REMARK  36 active torsions:
REMARK  status: ('A' for Active; 'I' for Inactive)
REMARK    1  A    between atoms: C6_6  and  N6_7 
REMARK    2  A    between atoms: CCN_19  and  N9_10 
REMARK    3  A    between atoms: CCK_16  and  OAN_12 
REMARK    4  A    between atoms: CCL_17  and  OAO_13 
REMARK    5  A    between atoms: CCC_15  and  CCM_18 
REMARK       I    between atoms: NBR_27  and  CCC_15 
REMARK    6  A    between atoms: CBZ_20  and  CBG_22 
REMARK       I    between atoms: NBS_28  and  CBZ_20 
REMARK    7  A    between atoms: CBG_22  and  CAX_23 
REMARK    8  A    between atoms: CAX_23  and  CAU_24 
REMARK    9  A    between atoms: CAU_24  and  CAW_25 
REMARK   10  A    between atoms: CAW_25  and  CBD_26 
REMARK   11  A    between atoms: CBD_26  and  NBR_27 
REMARK   12  A    between atoms: CCI_29  and  NBS_28 
REMARK   13  A    between atoms: CCB_30  and  CCI_29 
REMARK   14  A    between atoms: CCI_29  and  CBJ_32 
REMARK       I    between atoms: NBQ_44  and  CCB_30 
REMARK   15  A    between atoms: CBJ_32  and  CAZ_33 
REMARK   16  A    between atoms: CAZ_33  and  CAS_34 
REMARK   17  A    between atoms: CAS_34  and  CAR_35 
REMARK   18  A    between atoms: CAR_35  and  NAC_36 
REMARK   19  A    between atoms: CBH_39  and  CCA_37 
REMARK       I    between atoms: CCA_37  and  NBT_45 
REMARK   20  A    between atoms: CAY_40  and  CBH_39 
REMARK   21  A    between atoms: CAT_41  and  CAY_40 
REMARK   22  A    between atoms: CAV_42  and  CAT_41 
REMARK   23  A    between atoms: CBC_43  and  CAV_42 
REMARK   24  A    between atoms: CBC_43  and  NBQ_44 
REMARK   25  A    between atoms: NBT_45  and  CCJ_46 
REMARK   26  A    between atoms: CCJ_46  and  CBK_47 
REMARK   27  A    between atoms: CCJ_46  and  CCD_54 
REMARK   28  A    between atoms: CBK_47  and  CBB_48 
REMARK   29  A    between atoms: CBB_48  and  CBF_49 
REMARK   30  A    between atoms: CBF_49  and  NBP_50 
REMARK       I    between atoms: NBP_50  and  CBX_51 
REMARK       I    between atoms: CBX_51  and  NAB_52 
REMARK       I    between atoms: CBX_51  and  NAE_53 
REMARK       I    between atoms: CCD_54  and  N_56 
REMARK   31  A    between atoms: N_56  and  CA_57 
REMARK   32  A    between atoms: CA_57  and  CB_58 
REMARK   33  A    between atoms: CA_57  and  C_65 
REMARK   34  A    between atoms: CB_58  and  CG_59 
REMARK   35  A    between atoms: CG_59  and  CD_60 
REMARK   36  A    between atoms: CD_60  and  NE_61 
REMARK       I    between atoms: NE_61  and  CZ_62 
REMARK       I    between atoms: CZ_62  and  NH1_63 
REMARK       I    between atoms: C_65  and  NAF_67 
ROOT
ATOM      1  CCB A02 d          16.936   6.231   3.273  0.00  0.00     0.240 C 
ATOM      2  OAK A02 d          16.715   6.945   4.243  0.00  0.00    -0.271 OA
ATOM      3  NBQ A02 d          16.680   4.924   3.242  0.00  0.00    -0.359 N 
ATOM      4  H45 A02 d          16.901   4.409   2.413  0.00  0.00     0.162 HD
ENDROOT
BRANCH   1   5
ATOM      5  CCI A02 d          17.581   6.820   1.994  0.00  0.00     0.089 C 
ATOM      6  H23 A02 d          18.635   7.023   2.231  0.00  0.00     0.087 H 
BRANCH   5   7
ATOM      7  NBS A02 d          16.950   8.117   1.640  0.00  0.00    -0.348 N 
ATOM      8  CBZ A02 d          17.560   9.289   1.879  0.00  0.00     0.218 C 
ATOM      9  OAI A02 d          18.654   9.401   2.446  0.00  0.00    -0.274 OA
ATOM     10  H22 A02 d          16.047   8.118   1.211  0.00  0.00     0.163 HD
BRANCH   8  11
ATOM     11  CBG A02 d          16.769  10.539   1.441  0.00  0.00     0.009 C 
ATOM     12  H11 A02 d          16.042  10.248   0.670  0.00  0.00     0.047 H 
ATOM     13  H12 A02 d          17.471  11.276   1.025  0.00  0.00     0.047 H 
BRANCH  11  14
ATOM     14  CAX A02 d          16.013  11.182   2.621  0.00  0.00    -0.057 C 
ATOM     15  H13 A02 d          16.093  10.524   3.499  0.00  0.00     0.033 H 
ATOM     16  H14 A02 d          14.954  11.300   2.346  0.00  0.00     0.033 H 
BRANCH  14  17
ATOM     17  CAU A02 d          16.595  12.556   2.971  0.00  0.00    -0.063 C 
ATOM     18  H15 A02 d          15.983  13.331   2.486  0.00  0.00     0.033 H 
ATOM     19  H16 A02 d          17.625  12.609   2.588  0.00  0.00     0.033 H 
BRANCH  17  20
ATOM     20  CAW A02 d          16.620  12.826   4.478  0.00  0.00    -0.050 C 
ATOM     21  H17 A02 d          17.365  12.178   4.964  0.00  0.00     0.035 H 
ATOM     22  H18 A02 d          15.627  12.630   4.911  0.00  0.00     0.035 H 
BRANCH  20  23
ATOM     23  CBD A02 d          16.996  14.296   4.677  0.00  0.00    -0.005 C 
ATOM     24  H19 A02 d          16.929  14.534   5.749  0.00  0.00     0.064 H 
ATOM     25  H20 A02 d          16.285  14.920   4.118  0.00  0.00     0.064 H 
BRANCH  23  26
ATOM     26  NBR A02 d          18.360  14.601   4.209  0.00  0.00    -0.359 N 
ATOM     27  CCC A02 d          18.717  15.744   3.623  0.00  0.00     0.249 C 
ATOM     28  OAL A02 d          17.934  16.661   3.338  0.00  0.00    -0.271 OA
ATOM     29  H21 A02 d          19.065  13.904   4.341  0.00  0.00     0.162 HD
BRANCH  27  30
ATOM     30  CCM A02 d          20.213  15.903   3.291  0.00  0.00     0.144 C 
ATOM     31  OBV A02 d          20.776  14.664   2.743  0.00  0.00    -0.346 OA
ATOM     32  CCN A02 d          20.941  14.813   1.302  0.00  0.00     0.140 C 
ATOM     33  CCL A02 d          20.188  16.109   0.943  0.00  0.00     0.105 C 
ATOM     34  H10 A02 d          22.008  14.932   1.063  0.00  0.00     0.123 H 
ATOM     35  CCK A02 d          20.380  16.951   2.191  0.00  0.00     0.098 C 
ATOM     36  H8  A02 d          19.125  15.919   0.734  0.00  0.00     0.093 H 
ATOM     37  H7  A02 d          19.645  17.766   2.266  0.00  0.00     0.091 H 
ATOM     38  H9  A02 d          20.760  16.202   4.198  0.00  0.00     0.102 H 
BRANCH  32  39
ATOM     39  N9  A02 d          20.420  13.594   0.548  0.00  0.00    -0.294 N 
ATOM     40  C4  A02 d          20.912  12.361   0.620  0.00  0.00     0.167 A 
ATOM     41  N3  A02 d          21.935  11.820   1.300  0.00  0.00    -0.222 NA
ATOM     42  C5  A02 d          20.155  11.565  -0.229  0.00  0.00     0.149 A 
ATOM     43  C2  A02 d          22.214  10.529   1.180  0.00  0.00     0.091 A 
ATOM     44  N1  A02 d          21.495   9.734   0.376  0.00  0.00    -0.222 NA
ATOM     45  H1  A02 d          23.041  10.109   1.742  0.00  0.00     0.146 H 
ATOM     46  C6  A02 d          20.469  10.221  -0.342  0.00  0.00     0.155 A 
ATOM     47  N7  A02 d          19.216  12.325  -0.790  0.00  0.00    -0.236 NA
ATOM     48  C8  A02 d          19.380  13.559  -0.300  0.00  0.00     0.071 A 
ATOM     49  H4  A02 d          18.757  14.415  -0.554  0.00  0.00     0.144 H 
BRANCH  46  50
ATOM     50  N6  A02 d          19.763   9.436  -1.149  0.00  0.00    -0.382 N 
ATOM     51  H2  A02 d          18.818   9.132  -0.874  0.00  0.00     0.157 HD
ATOM     52  H3  A02 d          20.161   9.132  -2.049  0.00  0.00     0.157 HD
ENDBRANCH  46  50
ENDBRANCH  32  39
BRANCH  33  53
ATOM     53  OAO A02 d          20.805  16.748  -0.165  0.00  0.00    -0.388 OA
ATOM     54  H6  A02 d          21.672  16.384  -0.297  0.00  0.00     0.210 HD
ENDBRANCH  33  53
BRANCH  35  55
ATOM     55  OAN A02 d          21.725  17.467   2.228  0.00  0.00    -0.390 OA
ATOM     56  H5  A02 d          21.780  18.160   2.877  0.00  0.00     0.210 HD
ENDBRANCH  35  55
ENDBRANCH  27  30
ENDBRANCH  23  26
ENDBRANCH  20  23
ENDBRANCH  17  20
ENDBRANCH  14  17
ENDBRANCH  11  14
ENDBRANCH   8  11
ENDBRANCH   5   7
BRANCH   5  57
ATOM     57  CBJ A02 d          17.573   5.835   0.803  0.00  0.00    -0.038 C 
ATOM     58  H24 A02 d          17.083   6.333  -0.046  0.00  0.00     0.036 H 
ATOM     59  H25 A02 d          16.988   4.951   1.097  0.00  0.00     0.036 H 
BRANCH  57  60
ATOM     60  CAZ A02 d          18.953   5.356   0.340  0.00  0.00    -0.061 C 
ATOM     61  H26 A02 d          19.284   4.526   0.982  0.00  0.00     0.033 H 
ATOM     62  H27 A02 d          19.670   6.187   0.417  0.00  0.00     0.033 H 
BRANCH  60  63
ATOM     63  CAS A02 d          18.887   4.874  -1.124  0.00  0.00    -0.043 C 
ATOM     64  H28 A02 d          18.353   3.912  -1.161  0.00  0.00     0.035 H 
ATOM     65  H29 A02 d          19.910   4.741  -1.505  0.00  0.00     0.035 H 
BRANCH  63  66
ATOM     66  CAR A02 d          18.151   5.890  -2.011  0.00  0.00     0.080 C 
ATOM     67  H30 A02 d          18.699   6.844  -2.003  0.00  0.00     0.075 H 
ATOM     68  H31 A02 d          17.135   6.047  -1.618  0.00  0.00     0.075 H 
BRANCH  66  69
ATOM     69  NAC A02 d          18.067   5.385  -3.393  0.00  0.00    -0.079 N 
ATOM     70  H32 A02 d          18.989   5.367  -3.800  0.00  0.00     0.274 HD
ATOM     71  H33 A02 d          17.472   5.991  -3.936  0.00  0.00     0.274 HD
ATOM     72  H34 A02 d          17.682   4.454  -3.388  0.00  0.00     0.274 HD
ENDBRANCH  66  69
ENDBRANCH  63  66
ENDBRANCH  60  63
ENDBRANCH  57  60
ENDBRANCH   5  57
ENDBRANCH   1   5
BRANCH   3  73
ATOM     73  CBC A02 d          16.081   4.204   4.389  0.00  0.00    -0.005 C 
ATOM     74  H43 A02 d          15.893   4.917   5.205  0.00  0.00     0.064 H 
ATOM     75  H44 A02 d          15.131   3.748   4.074  0.00  0.00     0.064 H 
BRANCH  73  76
ATOM     76  CAV A02 d          17.027   3.105   4.888  0.00  0.00    -0.050 C 
ATOM     77  H41 A02 d          17.727   2.838   4.082  0.00  0.00     0.035 H 
ATOM     78  H42 A02 d          17.591   3.479   5.754  0.00  0.00     0.035 H 
BRANCH  76  79
ATOM     79  CAT A02 d          16.233   1.860   5.301  0.00  0.00    -0.063 C 
ATOM     80  H39 A02 d          15.180   1.999   5.017  0.00  0.00     0.033 H 
ATOM     81  H40 A02 d          16.643   0.985   4.773  0.00  0.00     0.033 H 
BRANCH  79  82
ATOM     82  CAY A02 d          16.311   1.609   6.810  0.00  0.00    -0.057 C 
ATOM     83  H37 A02 d          15.289   1.531   7.211  0.00  0.00     0.033 H 
ATOM     84  H38 A02 d          16.848   0.665   6.986  0.00  0.00     0.033 H 
BRANCH  82  85
ATOM     85  CBH A02 d          17.048   2.745   7.539  0.00  0.00     0.009 C 
ATOM     86  H35 A02 d          18.078   2.424   7.750  0.00  0.00     0.047 H 
ATOM     87  H36 A02 d          17.065   3.633   6.890  0.00  0.00     0.047 H 
BRANCH  85  88
ATOM     88  CCA A02 d          16.359   3.110   8.865  0.00  0.00     0.218 C 
ATOM     89  OAJ A02 d          16.432   2.360   9.844  0.00  0.00    -0.274 OA
ATOM     90  NBT A02 d          15.707   4.279   8.859  0.00  0.00    -0.348 N 
ATOM     91  H46 A02 d          15.713   4.823   8.020  0.00  0.00     0.163 HD
BRANCH  90  92
ATOM     92  CCJ A02 d          14.976   4.806  10.037  0.00  0.00     0.089 C 
ATOM     93  H47 A02 d          15.527   4.505  10.940  0.00  0.00     0.087 H 
BRANCH  92  94
ATOM     94  CBK A02 d          13.547   4.207  10.131  0.00  0.00    -0.036 C 
ATOM     95  H48 A02 d          13.411   3.800  11.144  0.00  0.00     0.036 H 
ATOM     96  H49 A02 d          13.467   3.394   9.395  0.00  0.00     0.036 H 
BRANCH  94  97
ATOM     97  CBB A02 d          12.415   5.213   9.861  0.00  0.00    -0.048 C 
ATOM     98  H50 A02 d          12.857   6.206   9.693  0.00  0.00     0.035 H 
ATOM     99  H51 A02 d          11.757   5.249  10.741  0.00  0.00     0.035 H 
BRANCH  97 100
ATOM    100  CBF A02 d          11.577   4.831   8.630  0.00  0.00     0.009 C 
ATOM    101  H52 A02 d          11.887   5.438   7.767  0.00  0.00     0.064 H 
ATOM    102  H53 A02 d          10.511   5.006   8.838  0.00  0.00     0.064 H 
BRANCH 100 103
ATOM    103  NBP A02 d          11.802   3.402   8.343  0.00  0.00    -0.227 N 
ATOM    104  CBX A02 d          12.554   2.949   7.330  0.00  0.00     0.665 C 
ATOM    105  NAB A02 d          13.187   3.766   6.491  0.00  0.00    -0.235 N 
ATOM    106  NAE A02 d          12.677   1.634   7.171  0.00  0.00    -0.235 N 
ATOM    107  H55 A02 d          13.756   3.378   5.724  0.00  0.00     0.174 HD
ATOM    108  H56 A02 d          13.107   4.787   6.607  0.00  0.00     0.174 HD
ATOM    109  H57 A02 d          12.193   0.990   7.813  0.00  0.00     0.174 HD
ATOM    110  H58 A02 d          13.256   1.260   6.405  0.00  0.00     0.174 HD
ATOM    111  H54 A02 d          11.353   2.709   8.958  0.00  0.00     0.177 HD
ENDBRANCH 100 103
ENDBRANCH  97 100
ENDBRANCH  94  97
ENDBRANCH  92  94
BRANCH  92 112
ATOM    112  CCD A02 d          14.931   6.353   9.999  0.00  0.00     0.241 C 
ATOM    113  OAM A02 d          14.716   7.006  11.021  0.00  0.00    -0.271 OA
ATOM    114  N   A02 d          15.134   6.902   8.799  0.00  0.00    -0.346 N 
ATOM    115  H59 A02 d          15.300   6.294   8.022  0.00  0.00     0.163 HD
BRANCH 114 116
ATOM    116  CA  A02 d          15.126   8.362   8.559  0.00  0.00     0.089 C 
ATOM    117  H60 A02 d          15.402   8.871   9.494  0.00  0.00     0.087 H 
BRANCH 116 118
ATOM    118  CB  A02 d          13.718   8.811   8.149  0.00  0.00    -0.036 C 
ATOM    119  H61 A02 d          12.979   8.290   8.777  0.00  0.00     0.036 H 
ATOM    120  H62 A02 d          13.551   8.548   7.094  0.00  0.00     0.036 H 
BRANCH 118 121
ATOM    121  CG  A02 d          13.539  10.321   8.320  0.00  0.00    -0.048 C 
ATOM    122  H63 A02 d          14.500  10.819   8.126  0.00  0.00     0.035 H 
ATOM    123  H64 A02 d          13.220  10.530   9.352  0.00  0.00     0.035 H 
BRANCH 121 124
ATOM    124  CD  A02 d          12.492  10.867   7.355  0.00  0.00     0.009 C 
ATOM    125  H65 A02 d          12.436  10.229   6.461  0.00  0.00     0.064 H 
ATOM    126  H66 A02 d          12.754  11.894   7.058  0.00  0.00     0.064 H 
BRANCH 124 127
ATOM    127  NE  A02 d          11.209  10.862   8.052  0.00  0.00    -0.227 N 
ATOM    128  CZ  A02 d          10.150  10.132   7.705  0.00  0.00     0.665 C 
ATOM    129  NH1 A02 d          10.162   9.277   6.683  0.00  0.00    -0.235 N 
ATOM    130  NH2 A02 d           9.058  10.270   8.445  0.00  0.00    -0.235 N 
ATOM    131  H68 A02 d           9.316   8.735   6.455  0.00  0.00     0.174 HD
ATOM    132  H69 A02 d          11.017   9.159   6.120  0.00  0.00     0.174 HD
ATOM    133  H70 A02 d           9.051  10.931   9.235  0.00  0.00     0.174 HD
ATOM    134  H71 A02 d           8.217   9.716   8.229  0.00  0.00     0.174 HD
ATOM    135  H67 A02 d          11.115  11.471   8.878  0.00  0.00     0.177 HD
ENDBRANCH 124 127
ENDBRANCH 121 124
ENDBRANCH 118 121
ENDBRANCH 116 118
BRANCH 116 136
ATOM    136  C   A02 d          16.143   8.762   7.466  0.00  0.00     0.238 C 
ATOM    137  O   A02 d          16.183   9.903   7.002  0.00  0.00    -0.271 OA
ATOM    138  NAF A02 d          16.973   7.789   7.094  0.00  0.00    -0.368 N 
ATOM    139  H72 A02 d          17.663   7.962   6.391  0.00  0.00     0.159 HD
ATOM    140  H73 A02 d          16.905   6.885   7.517  0.00  0.00     0.159 HD
ENDBRANCH 116 136
ENDBRANCH 114 116
ENDBRANCH  92 112
ENDBRANCH  90  92
ENDBRANCH  85  88
ENDBRANCH  82  85
ENDBRANCH  79  82
ENDBRANCH  76  79
ENDBRANCH  73  76
ENDBRANCH   3  73
TORSDOF 36
ENDMDL
MODEL 6
REMARK VINA RESULT:      -4.5      3.395      9.986
REMARK WARNING: 32 MAX_TORS EXCEEDED!!!
REMARK  36 active torsions:
REMARK  status: ('A' for Active; 'I' for Inactive)
REMARK    1  A    between atoms: C6_6  and  N6_7 
REMARK    2  A    between atoms: CCN_19  and  N9_10 
REMARK    3  A    between atoms: CCK_16  and  OAN_12 
REMARK    4  A    between atoms: CCL_17  and  OAO_13 
REMARK    5  A    between atoms: CCC_15  and  CCM_18 
REMARK       I    between atoms: NBR_27  and  CCC_15 
REMARK    6  A    between atoms: CBZ_20  and  CBG_22 
REMARK       I    between atoms: NBS_28  and  CBZ_20 
REMARK    7  A    between atoms: CBG_22  and  CAX_23 
REMARK    8  A    between atoms: CAX_23  and  CAU_24 
REMARK    9  A    between atoms: CAU_24  and  CAW_25 
REMARK   10  A    between atoms: CAW_25  and  CBD_26 
REMARK   11  A    between atoms: CBD_26  and  NBR_27 
REMARK   12  A    between atoms: CCI_29  and  NBS_28 
REMARK   13  A    between atoms: CCB_30  and  CCI_29 
REMARK   14  A    between atoms: CCI_29  and  CBJ_32 
REMARK       I    between atoms: NBQ_44  and  CCB_30 
REMARK   15  A    between atoms: CBJ_32  and  CAZ_33 
REMARK   16  A    between atoms: CAZ_33  and  CAS_34 
REMARK   17  A    between atoms: CAS_34  and  CAR_35 
REMARK   18  A    between atoms: CAR_35  and  NAC_36 
REMARK   19  A    between atoms: CBH_39  and  CCA_37 
REMARK       I    between atoms: CCA_37  and  NBT_45 
REMARK   20  A    between atoms: CAY_40  and  CBH_39 
REMARK   21  A    between atoms: CAT_41  and  CAY_40 
REMARK   22  A    between atoms: CAV_42  and  CAT_41 
REMARK   23  A    between atoms: CBC_43  and  CAV_42 
REMARK   24  A    between atoms: CBC_43  and  NBQ_44 
REMARK   25  A    between atoms: NBT_45  and  CCJ_46 
REMARK   26  A    between atoms: CCJ_46  and  CBK_47 
REMARK   27  A    between atoms: CCJ_46  and  CCD_54 
REMARK   28  A    between atoms: CBK_47  and  CBB_48 
REMARK   29  A    between atoms: CBB_48  and  CBF_49 
REMARK   30  A    between atoms: CBF_49  and  NBP_50 
REMARK       I    between atoms: NBP_50  and  CBX_51 
REMARK       I    between atoms: CBX_51  and  NAB_52 
REMARK       I    between atoms: CBX_51  and  NAE_53 
REMARK       I    between atoms: CCD_54  and  N_56 
REMARK   31  A    between atoms: N_56  and  CA_57 
REMARK   32  A    between atoms: CA_57  and  CB_58 
REMARK   33  A    between atoms: CA_57  and  C_65 
REMARK   34  A    between atoms: CB_58  and  CG_59 
REMARK   35  A    between atoms: CG_59  and  CD_60 
REMARK   36  A    between atoms: CD_60  and  NE_61 
REMARK       I    between atoms: NE_61  and  CZ_62 
REMARK       I    between atoms: CZ_62  and  NH1_63 
REMARK       I    between atoms: C_65  and  NAF_67 
ROOT
ATOM      1  CCB A02 d          16.414   6.449   2.204  0.00  0.00     0.240 C 
ATOM      2  OAK A02 d          15.268   6.064   2.404  0.00  0.00    -0.271 OA
ATOM      3  NBQ A02 d          16.756   7.269   1.212  0.00  0.00    -0.359 N 
ATOM      4  H45 A02 d          17.717   7.528   1.111  0.00  0.00     0.162 HD
ENDROOT
BRANCH   1   5
ATOM      5  CCI A02 d          17.576   5.961   3.103  0.00  0.00     0.089 C 
ATOM      6  H23 A02 d          18.012   5.078   2.612  0.00  0.00     0.087 H 
BRANCH   5   7
ATOM      7  NBS A02 d          17.065   5.521   4.426  0.00  0.00    -0.348 N 
ATOM      8  CBZ A02 d          17.156   4.244   4.832  0.00  0.00     0.218 C 
ATOM      9  OAI A02 d          17.618   3.326   4.143  0.00  0.00    -0.274 OA
ATOM     10  H22 A02 d          16.641   6.194   5.032  0.00  0.00     0.163 HD
BRANCH   8  11
ATOM     11  CBG A02 d          16.583   3.962   6.236  0.00  0.00     0.009 C 
ATOM     12  H11 A02 d          16.872   4.781   6.909  0.00  0.00     0.047 H 
ATOM     13  H12 A02 d          17.003   3.015   6.608  0.00  0.00     0.047 H 
BRANCH  11  14
ATOM     14  CAX A02 d          15.046   3.850   6.217  0.00  0.00    -0.057 C 
ATOM     15  H13 A02 d          14.761   2.898   5.745  0.00  0.00     0.033 H 
ATOM     16  H14 A02 d          14.633   4.687   5.633  0.00  0.00     0.033 H 
BRANCH  14  17
ATOM     17  CAU A02 d          14.468   3.897   7.636  0.00  0.00    -0.063 C 
ATOM     18  H15 A02 d          13.389   4.105   7.569  0.00  0.00     0.033 H 
ATOM     19  H16 A02 d          14.963   4.708   8.190  0.00  0.00     0.033 H 
BRANCH  17  20
ATOM     20  CAW A02 d          14.667   2.587   8.403  0.00  0.00    -0.050 C 
ATOM     21  H17 A02 d          15.509   2.025   7.974  0.00  0.00     0.035 H 
ATOM     22  H18 A02 d          13.753   1.977   8.348  0.00  0.00     0.035 H 
BRANCH  20  23
ATOM     23  CBD A02 d          14.967   2.948   9.860  0.00  0.00    -0.005 C 
ATOM     24  H19 A02 d          15.890   2.433  10.167  0.00  0.00     0.064 H 
ATOM     25  H20 A02 d          14.131   2.607  10.486  0.00  0.00     0.064 H 
BRANCH  23  26
ATOM     26  NBR A02 d          15.147   4.397  10.061  0.00  0.00    -0.359 N 
ATOM     27  CCC A02 d          14.462   5.126  10.943  0.00  0.00     0.249 C 
ATOM     28  OAL A02 d          13.546   4.688  11.653  0.00  0.00    -0.271 OA
ATOM     29  H21 A02 d          15.828   4.865   9.497  0.00  0.00     0.162 HD
BRANCH  27  30
ATOM     30  CCM A02 d          14.864   6.608  11.063  0.00  0.00     0.144 C 
ATOM     31  OBV A02 d          15.365   7.133   9.789  0.00  0.00    -0.346 OA
ATOM     32  CCN A02 d          14.336   7.967   9.180  0.00  0.00     0.140 C 
ATOM     33  CCL A02 d          13.064   7.704  10.009  0.00  0.00     0.105 C 
ATOM     34  H10 A02 d          14.618   9.026   9.268  0.00  0.00     0.123 H 
ATOM     35  CCK A02 d          13.628   7.444  11.394  0.00  0.00     0.098 C 
ATOM     36  H8  A02 d          12.497   6.843   9.627  0.00  0.00     0.093 H 
ATOM     37  H7  A02 d          12.918   6.912  12.044  0.00  0.00     0.091 H 
ATOM     38  H9  A02 d          15.628   6.719  11.848  0.00  0.00     0.102 H 
BRANCH  32  39
ATOM     39  N9  A02 d          14.157   7.647   7.699  0.00  0.00    -0.294 N 
ATOM     40  C4  A02 d          12.998   7.484   7.069  0.00  0.00     0.167 A 
ATOM     41  N3  A02 d          11.720   7.530   7.475  0.00  0.00    -0.222 NA
ATOM     42  C5  A02 d          13.287   7.198   5.741  0.00  0.00     0.149 A 
ATOM     43  C2  A02 d          10.733   7.320   6.614  0.00  0.00     0.091 A 
ATOM     44  N1  A02 d          10.981   7.051   5.324  0.00  0.00    -0.222 NA
ATOM     45  H1  A02 d           9.706   7.367   6.959  0.00  0.00     0.146 H 
ATOM     46  C6  A02 d          12.240   6.978   4.862  0.00  0.00     0.155 A 
ATOM     47  N7  A02 d          14.610   7.202   5.590  0.00  0.00    -0.236 NA
ATOM     48  C8  A02 d          15.131   7.488   6.789  0.00  0.00     0.071 A 
ATOM     49  H4  A02 d          16.196   7.580   6.996  0.00  0.00     0.144 H 
BRANCH  46  50
ATOM     50  N6  A02 d          12.488   6.699   3.587  0.00  0.00    -0.382 N 
ATOM     51  H2  A02 d          13.389   6.968   3.167  0.00  0.00     0.157 HD
ATOM     52  H3  A02 d          11.778   6.215   3.018  0.00  0.00     0.157 HD
ENDBRANCH  46  50
ENDBRANCH  32  39
BRANCH  33  53
ATOM     53  OAO A02 d          12.244   8.863  10.037  0.00  0.00    -0.388 OA
ATOM     54  H6  A02 d          11.445   8.696   9.551  0.00  0.00     0.210 HD
ENDBRANCH  33  53
BRANCH  35  55
ATOM     55  OAN A02 d          14.043   8.688  11.992  0.00  0.00    -0.390 OA
ATOM     56  H5  A02 d          14.651   9.130  11.411  0.00  0.00     0.210 HD
ENDBRANCH  35  55
ENDBRANCH  27  30
ENDBRANCH  23  26
ENDBRANCH  20  23
ENDBRANCH  17  20
ENDBRANCH  14  17
ENDBRANCH  11  14
ENDBRANCH   8  11
ENDBRANCH   5   7
BRANCH   5  57
ATOM     57  CBJ A02 d          18.711   6.999   3.243  0.00  0.00    -0.038 C 
ATOM     58  H24 A02 d          18.690   7.648   2.355  0.00  0.00     0.036 H 
ATOM     59  H25 A02 d          19.667   6.455   3.277  0.00  0.00     0.036 H 
BRANCH  57  60
ATOM     60  CAZ A02 d          18.632   7.893   4.485  0.00  0.00    -0.061 C 
ATOM     61  H26 A02 d          17.762   7.598   5.090  0.00  0.00     0.033 H 
ATOM     62  H27 A02 d          18.521   8.941   4.171  0.00  0.00     0.033 H 
BRANCH  60  63
ATOM     63  CAS A02 d          19.914   7.747   5.331  0.00  0.00    -0.043 C 
ATOM     64  H28 A02 d          19.702   8.066   6.362  0.00  0.00     0.035 H 
ATOM     65  H29 A02 d          20.701   8.386   4.903  0.00  0.00     0.035 H 
BRANCH  63  66
ATOM     66  CAR A02 d          20.405   6.291   5.347  0.00  0.00     0.080 C 
ATOM     67  H30 A02 d          21.459   6.258   5.033  0.00  0.00     0.075 H 
ATOM     68  H31 A02 d          19.796   5.693   4.652  0.00  0.00     0.075 H 
BRANCH  66  69
ATOM     69  NAC A02 d          20.282   5.733   6.706  0.00  0.00    -0.079 N 
ATOM     70  H32 A02 d          20.689   4.811   6.729  0.00  0.00     0.274 HD
ATOM     71  H33 A02 d          19.308   5.678   6.960  0.00  0.00     0.274 HD
ATOM     72  H34 A02 d          20.766   6.330   7.359  0.00  0.00     0.274 HD
ENDBRANCH  66  69
ENDBRANCH  63  66
ENDBRANCH  60  63
ENDBRANCH  57  60
ENDBRANCH   5  57
ENDBRANCH   1   5
BRANCH   3  73
ATOM     73  CBC A02 d          15.767   7.813   0.252  0.00  0.00    -0.005 C 
ATOM     74  H43 A02 d          16.212   7.832  -0.754  0.00  0.00     0.064 H 
ATOM     75  H44 A02 d          14.876   7.168   0.247  0.00  0.00     0.064 H 
BRANCH  73  76
ATOM     76  CAV A02 d          15.358   9.235   0.650  0.00  0.00    -0.050 C 
ATOM     77  H41 A02 d          14.411   9.492   0.151  0.00  0.00     0.035 H 
ATOM     78  H42 A02 d          15.222   9.281   1.740  0.00  0.00     0.035 H 
BRANCH  76  79
ATOM     79  CAT A02 d          16.437  10.242   0.233  0.00  0.00    -0.063 C 
ATOM     80  H39 A02 d          17.106   9.764  -0.496  0.00  0.00     0.033 H 
ATOM     81  H40 A02 d          15.950  11.113  -0.232  0.00  0.00     0.033 H 
BRANCH  79  82
ATOM     82  CAY A02 d          17.266  10.718   1.430  0.00  0.00    -0.057 C 
ATOM     83  H37 A02 d          17.895   9.886   1.780  0.00  0.00     0.033 H 
ATOM     84  H38 A02 d          17.906  11.553   1.110  0.00  0.00     0.033 H 
BRANCH  82  85
ATOM     85  CBH A02 d          16.373  11.190   2.590  0.00  0.00     0.009 C 
ATOM     86  H35 A02 d          15.509  10.515   2.672  0.00  0.00     0.047 H 
ATOM     87  H36 A02 d          16.955  11.157   3.523  0.00  0.00     0.047 H 
BRANCH  85  88
ATOM     88  CCA A02 d          15.866  12.625   2.369  0.00  0.00     0.218 C 
ATOM     89  OAJ A02 d          16.594  13.482   1.859  0.00  0.00    -0.274 OA
ATOM     90  NBT A02 d          14.604  12.843   2.758  0.00  0.00    -0.348 N 
ATOM     91  H46 A02 d          14.088  12.081   3.152  0.00  0.00     0.163 HD
BRANCH  90  92
ATOM     92  CCJ A02 d          13.933  14.160   2.634  0.00  0.00     0.089 C 
ATOM     93  H47 A02 d          14.654  14.868   2.202  0.00  0.00     0.087 H 
BRANCH  92  94
ATOM     94  CBK A02 d          13.502  14.708   4.021  0.00  0.00    -0.036 C 
ATOM     95  H48 A02 d          12.882  15.602   3.860  0.00  0.00     0.036 H 
ATOM     96  H49 A02 d          14.409  14.985   4.578  0.00  0.00     0.036 H 
BRANCH  94  97
ATOM     97  CBB A02 d          12.698  13.714   4.877  0.00  0.00    -0.048 C 
ATOM     98  H50 A02 d          12.409  12.859   4.248  0.00  0.00     0.035 H 
ATOM     99  H51 A02 d          11.794  14.218   5.249  0.00  0.00     0.035 H 
BRANCH  97 100
ATOM    100  CBF A02 d          13.504  13.194   6.078  0.00  0.00     0.009 C 
ATOM    101  H52 A02 d          13.514  13.952   6.875  0.00  0.00     0.064 H 
ATOM    102  H53 A02 d          14.536  12.975   5.767  0.00  0.00     0.064 H 
BRANCH 100 103
ATOM    103  NBP A02 d          12.859  11.961   6.570  0.00  0.00    -0.227 N 
ATOM    104  CBX A02 d          11.843  11.943   7.443  0.00  0.00     0.665 C 
ATOM    105  NAB A02 d          11.309  13.057   7.939  0.00  0.00    -0.235 N 
ATOM    106  NAE A02 d          11.348  10.766   7.815  0.00  0.00    -0.235 N 
ATOM    107  H55 A02 d          10.527  13.000   8.609  0.00  0.00     0.174 HD
ATOM    108  H56 A02 d          11.676  13.976   7.654  0.00  0.00     0.174 HD
ATOM    109  H57 A02 d          11.751   9.895   7.439  0.00  0.00     0.174 HD
ATOM    110  H58 A02 d          10.562  10.724   8.479  0.00  0.00     0.174 HD
ATOM    111  H54 A02 d          13.211  11.059   6.220  0.00  0.00     0.177 HD
ENDBRANCH 100 103
ENDBRANCH  97 100
ENDBRANCH  94  97
ENDBRANCH  92  94
BRANCH  92 112
ATOM    112  CCD A02 d          12.724  14.064   1.672  0.00  0.00     0.241 C 
ATOM    113  OAM A02 d          12.251  15.072   1.147  0.00  0.00    -0.271 OA
ATOM    114  N   A02 d          12.250  12.832   1.470  0.00  0.00    -0.346 N 
ATOM    115  H59 A02 d          12.696  12.070   1.940  0.00  0.00     0.163 HD
BRANCH 114 116
ATOM    116  CA  A02 d          11.099  12.536   0.588  0.00  0.00     0.089 C 
ATOM    117  H60 A02 d          10.586  13.480   0.355  0.00  0.00     0.087 H 
BRANCH 116 118
ATOM    118  CB  A02 d          10.119  11.605   1.313  0.00  0.00    -0.036 C 
ATOM    119  H61 A02 d          10.057  10.654   0.765  0.00  0.00     0.036 H 
ATOM    120  H62 A02 d           9.126  12.080   1.337  0.00  0.00     0.036 H 
BRANCH 118 121
ATOM    121  CG  A02 d          10.571  11.325   2.748  0.00  0.00    -0.048 C 
ATOM    122  H63 A02 d           9.750  11.575   3.437  0.00  0.00     0.035 H 
ATOM    123  H64 A02 d          11.446  11.950   2.978  0.00  0.00     0.035 H 
BRANCH 121 124
ATOM    124  CD  A02 d          10.946   9.858   2.933  0.00  0.00     0.009 C 
ATOM    125  H65 A02 d          11.671   9.757   3.754  0.00  0.00     0.064 H 
ATOM    126  H66 A02 d          11.385   9.463   2.005  0.00  0.00     0.064 H 
BRANCH 124 127
ATOM    127  NE  A02 d           9.723   9.130   3.256  0.00  0.00    -0.227 N 
ATOM    128  CZ  A02 d           9.184   8.167   2.510  0.00  0.00     0.665 C 
ATOM    129  NH1 A02 d           9.739   7.727   1.381  0.00  0.00    -0.235 N 
ATOM    130  NH2 A02 d           8.055   7.628   2.950  0.00  0.00    -0.235 N 
ATOM    131  H68 A02 d           9.282   6.979   0.840  0.00  0.00     0.174 HD
ATOM    132  H69 A02 d          10.625   8.136   1.049  0.00  0.00     0.174 HD
ATOM    133  H70 A02 d           7.628   7.969   3.823  0.00  0.00     0.174 HD
ATOM    134  H71 A02 d           7.606   6.868   2.419  0.00  0.00     0.174 HD
ATOM    135  H67 A02 d           9.238   9.381   4.130  0.00  0.00     0.177 HD
ENDBRANCH 124 127
ENDBRANCH 121 124
ENDBRANCH 118 121
ENDBRANCH 116 118
BRANCH 116 136
ATOM    136  C   A02 d          11.555  11.888  -0.739  0.00  0.00     0.238 C 
ATOM    137  O   A02 d          10.809  11.819  -1.718  0.00  0.00    -0.271 OA
ATOM    138  NAF A02 d          12.808  11.439  -0.739  0.00  0.00    -0.368 N 
ATOM    139  H72 A02 d          13.184  11.004  -1.558  0.00  0.00     0.159 HD
ATOM    140  H73 A02 d          13.374  11.536   0.081  0.00  0.00     0.159 HD
ENDBRANCH 116 136
ENDBRANCH 114 116
ENDBRANCH  92 112
ENDBRANCH  90  92
ENDBRANCH  85  88
ENDBRANCH  82  85
ENDBRANCH  79  82
ENDBRANCH  76  79
ENDBRANCH  73  76
ENDBRANCH   3  73
TORSDOF 36
ENDMDL
MODEL 7
REMARK VINA RESULT:      -4.4      3.721      8.653
REMARK WARNING: 32 MAX_TORS EXCEEDED!!!
REMARK  36 active torsions:
REMARK  status: ('A' for Active; 'I' for Inactive)
REMARK    1  A    between atoms: C6_6  and  N6_7 
REMARK    2  A    between atoms: CCN_19  and  N9_10 
REMARK    3  A    between atoms: CCK_16  and  OAN_12 
REMARK    4  A    between atoms: CCL_17  and  OAO_13 
REMARK    5  A    between atoms: CCC_15  and  CCM_18 
REMARK       I    between atoms: NBR_27  and  CCC_15 
REMARK    6  A    between atoms: CBZ_20  and  CBG_22 
REMARK       I    between atoms: NBS_28  and  CBZ_20 
REMARK    7  A    between atoms: CBG_22  and  CAX_23 
REMARK    8  A    between atoms: CAX_23  and  CAU_24 
REMARK    9  A    between atoms: CAU_24  and  CAW_25 
REMARK   10  A    between atoms: CAW_25  and  CBD_26 
REMARK   11  A    between atoms: CBD_26  and  NBR_27 
REMARK   12  A    between atoms: CCI_29  and  NBS_28 
REMARK   13  A    between atoms: CCB_30  and  CCI_29 
REMARK   14  A    between atoms: CCI_29  and  CBJ_32 
REMARK       I    between atoms: NBQ_44  and  CCB_30 
REMARK   15  A    between atoms: CBJ_32  and  CAZ_33 
REMARK   16  A    between atoms: CAZ_33  and  CAS_34 
REMARK   17  A    between atoms: CAS_34  and  CAR_35 
REMARK   18  A    between atoms: CAR_35  and  NAC_36 
REMARK   19  A    between atoms: CBH_39  and  CCA_37 
REMARK       I    between atoms: CCA_37  and  NBT_45 
REMARK   20  A    between atoms: CAY_40  and  CBH_39 
REMARK   21  A    between atoms: CAT_41  and  CAY_40 
REMARK   22  A    between atoms: CAV_42  and  CAT_41 
REMARK   23  A    between atoms: CBC_43  and  CAV_42 
REMARK   24  A    between atoms: CBC_43  and  NBQ_44 
REMARK   25  A    between atoms: NBT_45  and  CCJ_46 
REMARK   26  A    between atoms: CCJ_46  and  CBK_47 
REMARK   27  A    between atoms: CCJ_46  and  CCD_54 
REMARK   28  A    between atoms: CBK_47  and  CBB_48 
REMARK   29  A    between atoms: CBB_48  and  CBF_49 
REMARK   30  A    between atoms: CBF_49  and  NBP_50 
REMARK       I    between atoms: NBP_50  and  CBX_51 
REMARK       I    between atoms: CBX_51  and  NAB_52 
REMARK       I    between atoms: CBX_51  and  NAE_53 
REMARK       I    between atoms: CCD_54  and  N_56 
REMARK   31  A    between atoms: N_56  and  CA_57 
REMARK   32  A    between atoms: CA_57  and  CB_58 
REMARK   33  A    between atoms: CA_57  and  C_65 
REMARK   34  A    between atoms: CB_58  and  CG_59 
REMARK   35  A    between atoms: CG_59  and  CD_60 
REMARK   36  A    between atoms: CD_60  and  NE_61 
REMARK       I    between atoms: NE_61  and  CZ_62 
REMARK       I    between atoms: CZ_62  and  NH1_63 
REMARK       I    between atoms: C_65  and  NAF_67 
ROOT
ATOM      1  CCB A02 d          17.864   8.835   2.686  0.00  0.00     0.240 C 
ATOM      2  OAK A02 d          17.791   9.598   3.641  0.00  0.00    -0.271 OA
ATOM      3  NBQ A02 d          18.419   7.625   2.747  0.00  0.00    -0.359 N 
ATOM      4  H45 A02 d          18.448   7.067   1.917  0.00  0.00     0.162 HD
ENDROOT
BRANCH   1   5
ATOM      5  CCI A02 d          17.327   9.259   1.298  0.00  0.00     0.089 C 
ATOM      6  H23 A02 d          18.077   8.949   0.555  0.00  0.00     0.087 H 
BRANCH   5   7
ATOM      7  NBS A02 d          17.206  10.737   1.212  0.00  0.00    -0.348 N 
ATOM      8  CBZ A02 d          18.128  11.487   0.587  0.00  0.00     0.218 C 
ATOM      9  OAI A02 d          19.162  11.038   0.078  0.00  0.00    -0.274 OA
ATOM     10  H22 A02 d          16.418  11.186   1.632  0.00  0.00     0.163 HD
BRANCH   8  11
ATOM     11  CBG A02 d          17.844  13.003   0.584  0.00  0.00     0.009 C 
ATOM     12  H11 A02 d          17.817  13.359  -0.456  0.00  0.00     0.047 H 
ATOM     13  H12 A02 d          18.652  13.517   1.126  0.00  0.00     0.047 H 
BRANCH  11  14
ATOM     14  CAX A02 d          16.499  13.337   1.260  0.00  0.00    -0.057 C 
ATOM     15  H13 A02 d          16.125  12.440   1.776  0.00  0.00     0.033 H 
ATOM     16  H14 A02 d          15.777  13.644   0.489  0.00  0.00     0.033 H 
BRANCH  14  17
ATOM     17  CAU A02 d          16.656  14.471   2.279  0.00  0.00    -0.063 C 
ATOM     18  H15 A02 d          16.014  15.310   1.971  0.00  0.00     0.033 H 
ATOM     19  H16 A02 d          17.707  14.797   2.284  0.00  0.00     0.033 H 
BRANCH  17  20
ATOM     20  CAW A02 d          16.267  14.054   3.700  0.00  0.00    -0.050 C 
ATOM     21  H17 A02 d          17.171  13.865   4.297  0.00  0.00     0.035 H 
ATOM     22  H18 A02 d          15.651  13.142   3.668  0.00  0.00     0.035 H 
BRANCH  20  23
ATOM     23  CBD A02 d          15.466  15.203   4.315  0.00  0.00    -0.005 C 
ATOM     24  H19 A02 d          15.834  16.152   3.897  0.00  0.00     0.064 H 
ATOM     25  H20 A02 d          15.621  15.197   5.403  0.00  0.00     0.064 H 
BRANCH  23  26
ATOM     26  NBR A02 d          14.021  15.098   4.044  0.00  0.00    -0.359 N 
ATOM     27  CCC A02 d          13.103  14.789   4.960  0.00  0.00     0.249 C 
ATOM     28  OAL A02 d          13.358  14.487   6.135  0.00  0.00    -0.271 OA
ATOM     29  H21 A02 d          13.708  15.269   3.109  0.00  0.00     0.162 HD
BRANCH  27  30
ATOM     30  CCM A02 d          11.635  14.820   4.495  0.00  0.00     0.144 C 
ATOM     31  OBV A02 d          11.529  14.654   3.041  0.00  0.00    -0.346 OA
ATOM     32  CCN A02 d          11.084  13.297   2.748  0.00  0.00     0.140 C 
ATOM     33  CCL A02 d          11.188  12.542   4.088  0.00  0.00     0.105 C 
ATOM     34  H10 A02 d          10.034  13.316   2.420  0.00  0.00     0.123 H 
ATOM     35  CCK A02 d          10.885  13.633   5.099  0.00  0.00     0.098 C 
ATOM     36  H8  A02 d          12.188  12.109   4.236  0.00  0.00     0.093 H 
ATOM     37  H7  A02 d          11.237  13.380   6.110  0.00  0.00     0.091 H 
ATOM     38  H9  A02 d          11.172  15.770   4.804  0.00  0.00     0.102 H 
BRANCH  32  39
ATOM     39  N9  A02 d          11.914  12.659   1.640  0.00  0.00    -0.294 N 
ATOM     40  C4  A02 d          11.641  12.693   0.340  0.00  0.00     0.167 A 
ATOM     41  N3  A02 d          10.641  13.235  -0.373  0.00  0.00    -0.222 NA
ATOM     42  C5  A02 d          12.642  11.984  -0.312  0.00  0.00     0.149 A 
ATOM     43  C2  A02 d          10.612  13.111  -1.694  0.00  0.00     0.091 A 
ATOM     44  N1  A02 d          11.569  12.441  -2.349  0.00  0.00    -0.222 NA
ATOM     45  H1  A02 d           9.799  13.561  -2.253  0.00  0.00     0.146 H 
ATOM     46  C6  A02 d          12.587  11.865  -1.690  0.00  0.00     0.155 A 
ATOM     47  N7  A02 d          13.504  11.543   0.602  0.00  0.00    -0.236 NA
ATOM     48  C8  A02 d          13.057  11.970   1.788  0.00  0.00     0.071 A 
ATOM     49  H4  A02 d          13.551  11.785   2.741  0.00  0.00     0.144 H 
BRANCH  46  50
ATOM     50  N6  A02 d          13.530  11.189  -2.338  0.00  0.00    -0.382 N 
ATOM     51  H2  A02 d          13.982  11.602  -3.166  0.00  0.00     0.157 HD
ATOM     52  H3  A02 d          13.807  10.252  -2.014  0.00  0.00     0.157 HD
ENDBRANCH  46  50
ENDBRANCH  32  39
BRANCH  33  53
ATOM     53  OAO A02 d          10.194  11.531   4.164  0.00  0.00    -0.388 OA
ATOM     54  H6  A02 d           9.509  11.713   3.532  0.00  0.00     0.210 HD
ENDBRANCH  33  53
BRANCH  35  55
ATOM     55  OAN A02 d           9.472  13.917   5.101  0.00  0.00    -0.390 OA
ATOM     56  H5  A02 d           9.006  13.191   5.499  0.00  0.00     0.210 HD
ENDBRANCH  35  55
ENDBRANCH  27  30
ENDBRANCH  23  26
ENDBRANCH  20  23
ENDBRANCH  17  20
ENDBRANCH  14  17
ENDBRANCH  11  14
ENDBRANCH   8  11
ENDBRANCH   5   7
BRANCH   5  57
ATOM     57  CBJ A02 d          16.005   8.553   0.917  0.00  0.00    -0.038 C 
ATOM     58  H24 A02 d          16.251   7.544   0.554  0.00  0.00     0.036 H 
ATOM     59  H25 A02 d          15.534   9.129   0.108  0.00  0.00     0.036 H 
BRANCH  57  60
ATOM     60  CAZ A02 d          14.988   8.412   2.054  0.00  0.00    -0.061 C 
ATOM     61  H26 A02 d          14.931   9.360   2.610  0.00  0.00     0.033 H 
ATOM     62  H27 A02 d          15.309   7.608   2.731  0.00  0.00     0.033 H 
BRANCH  60  63
ATOM     63  CAS A02 d          13.595   8.072   1.483  0.00  0.00    -0.043 C 
ATOM     64  H28 A02 d          13.663   8.004   0.387  0.00  0.00     0.035 H 
ATOM     65  H29 A02 d          12.889   8.870   1.759  0.00  0.00     0.035 H 
BRANCH  63  66
ATOM     66  CAR A02 d          13.080   6.735   2.037  0.00  0.00     0.080 C 
ATOM     67  H30 A02 d          12.055   6.561   1.674  0.00  0.00     0.075 H 
ATOM     68  H31 A02 d          13.079   6.772   3.136  0.00  0.00     0.075 H 
BRANCH  66  69
ATOM     69  NAC A02 d          13.951   5.634   1.586  0.00  0.00    -0.079 N 
ATOM     70  H32 A02 d          13.709   5.380   0.641  0.00  0.00     0.274 HD
ATOM     71  H33 A02 d          13.825   4.837   2.191  0.00  0.00     0.274 HD
ATOM     72  H34 A02 d          14.913   5.933   1.619  0.00  0.00     0.274 HD
ENDBRANCH  66  69
ENDBRANCH  63  66
ENDBRANCH  60  63
ENDBRANCH  57  60
ENDBRANCH   5  57
ENDBRANCH   1   5
BRANCH   3  73
ATOM     73  CBC A02 d          18.996   7.077   3.995  0.00  0.00    -0.005 C 
ATOM     74  H43 A02 d          19.077   7.882   4.740  0.00  0.00     0.064 H 
ATOM     75  H44 A02 d          18.337   6.285   4.381  0.00  0.00     0.064 H 
BRANCH  73  76
ATOM     76  CAV A02 d          20.388   6.490   3.733  0.00  0.00    -0.050 C 
ATOM     77  H41 A02 d          20.863   7.041   2.908  0.00  0.00     0.035 H 
ATOM     78  H42 A02 d          20.999   6.590   4.641  0.00  0.00     0.035 H 
BRANCH  76  79
ATOM     79  CAT A02 d          20.283   5.008   3.355  0.00  0.00    -0.063 C 
ATOM     80  H39 A02 d          19.222   4.742   3.247  0.00  0.00     0.033 H 
ATOM     81  H40 A02 d          20.801   4.847   2.397  0.00  0.00     0.033 H 
BRANCH  79  82
ATOM     82  CAY A02 d          20.915   4.102   4.416  0.00  0.00    -0.057 C 
ATOM     83  H37 A02 d          20.448   3.107   4.360  0.00  0.00     0.033 H 
ATOM     84  H38 A02 d          21.993   4.014   4.213  0.00  0.00     0.033 H 
BRANCH  82  85
ATOM     85  CBH A02 d          20.720   4.665   5.834  0.00  0.00     0.009 C 
ATOM     86  H35 A02 d          21.611   4.433   6.436  0.00  0.00     0.047 H 
ATOM     87  H36 A02 d          20.594   5.756   5.770  0.00  0.00     0.047 H 
BRANCH  85  88
ATOM     88  CCA A02 d          19.484   4.060   6.521  0.00  0.00     0.218 C 
ATOM     89  OAJ A02 d          19.579   3.502   7.618  0.00  0.00    -0.274 OA
ATOM     90  NBT A02 d          18.338   4.200   5.844  0.00  0.00    -0.348 N 
ATOM     91  H46 A02 d          18.358   4.678   4.966  0.00  0.00     0.163 HD
BRANCH  90  92
ATOM     92  CCJ A02 d          17.037   3.682   6.335  0.00  0.00     0.089 C 
ATOM     93  H47 A02 d          17.237   3.023   7.192  0.00  0.00     0.087 H 
BRANCH  92  94
ATOM     94  CBK A02 d          16.317   2.840   5.248  0.00  0.00    -0.036 C 
ATOM     95  H48 A02 d          16.874   2.947   4.305  0.00  0.00     0.036 H 
ATOM     96  H49 A02 d          15.301   3.240   5.120  0.00  0.00     0.036 H 
BRANCH  94  97
ATOM     97  CBB A02 d          16.206   1.341   5.573  0.00  0.00    -0.048 C 
ATOM     98  H50 A02 d          17.214   0.901   5.565  0.00  0.00     0.035 H 
ATOM     99  H51 A02 d          15.589   0.856   4.801  0.00  0.00     0.035 H 
BRANCH  97 100
ATOM    100  CBF A02 d          15.566   1.088   6.947  0.00  0.00     0.009 C 
ATOM    101  H52 A02 d          15.904   1.854   7.661  0.00  0.00     0.064 H 
ATOM    102  H53 A02 d          15.855   0.092   7.314  0.00  0.00     0.064 H 
BRANCH 100 103
ATOM    103  NBP A02 d          14.101   1.159   6.796  0.00  0.00    -0.227 N 
ATOM    104  CBX A02 d          13.287   1.793   7.651  0.00  0.00     0.665 C 
ATOM    105  NAB A02 d          13.743   2.439   8.723  0.00  0.00    -0.235 N 
ATOM    106  NAE A02 d          11.980   1.782   7.409  0.00  0.00    -0.235 N 
ATOM    107  H55 A02 d          13.084   2.915   9.357  0.00  0.00     0.174 HD
ATOM    108  H56 A02 d          14.754   2.463   8.919  0.00  0.00     0.174 HD
ATOM    109  H57 A02 d          11.613   1.287   6.584  0.00  0.00     0.174 HD
ATOM    110  H58 A02 d          11.333   2.269   8.047  0.00  0.00     0.174 HD
ATOM    111  H54 A02 d          13.676   0.691   5.983  0.00  0.00     0.177 HD
ENDBRANCH 100 103
ENDBRANCH  97 100
ENDBRANCH  94  97
ENDBRANCH  92  94
BRANCH  92 112
ATOM    112  CCD A02 d          16.140   4.844   6.826  0.00  0.00     0.241 C 
ATOM    113  OAM A02 d          14.920   4.708   6.918  0.00  0.00    -0.271 OA
ATOM    114  N   A02 d          16.784   5.974   7.128  0.00  0.00    -0.346 N 
ATOM    115  H59 A02 d          17.779   5.996   7.022  0.00  0.00     0.163 HD
BRANCH 114 116
ATOM    116  CA  A02 d          16.103   7.197   7.610  0.00  0.00     0.089 C 
ATOM    117  H60 A02 d          15.029   6.980   7.713  0.00  0.00     0.087 H 
BRANCH 116 118
ATOM    118  CB  A02 d          16.284   8.326   6.589  0.00  0.00    -0.036 C 
ATOM    119  H61 A02 d          17.121   8.074   5.921  0.00  0.00     0.036 H 
ATOM    120  H62 A02 d          16.511   9.260   7.124  0.00  0.00     0.036 H 
BRANCH 118 121
ATOM    121  CG  A02 d          15.021   8.530   5.749  0.00  0.00    -0.048 C 
ATOM    122  H63 A02 d          15.157   8.038   4.773  0.00  0.00     0.035 H 
ATOM    123  H64 A02 d          14.861   9.607   5.596  0.00  0.00     0.035 H 
BRANCH 121 124
ATOM    124  CD  A02 d          13.796   7.937   6.438  0.00  0.00     0.009 C 
ATOM    125  H65 A02 d          13.485   8.584   7.271  0.00  0.00     0.064 H 
ATOM    126  H66 A02 d          14.030   6.932   6.820  0.00  0.00     0.064 H 
BRANCH 124 127
ATOM    127  NE  A02 d          12.731   7.858   5.443  0.00  0.00    -0.227 N 
ATOM    128  CZ  A02 d          11.662   8.651   5.399  0.00  0.00     0.665 C 
ATOM    129  NH1 A02 d          11.466   9.654   6.256  0.00  0.00    -0.235 N 
ATOM    130  NH2 A02 d          10.783   8.420   4.434  0.00  0.00    -0.235 N 
ATOM    131  H68 A02 d          10.623  10.239   6.178  0.00  0.00     0.174 HD
ATOM    132  H69 A02 d          12.159   9.842   6.994  0.00  0.00     0.174 HD
ATOM    133  H70 A02 d          10.935   7.646   3.772  0.00  0.00     0.174 HD
ATOM    134  H71 A02 d           9.947   9.016   4.345  0.00  0.00     0.174 HD
ATOM    135  H67 A02 d          12.811   7.130   4.719  0.00  0.00     0.177 HD
ENDBRANCH 124 127
ENDBRANCH 121 124
ENDBRANCH 118 121
ENDBRANCH 116 118
BRANCH 116 136
ATOM    136  C   A02 d          16.646   7.642   8.987  0.00  0.00     0.238 C 
ATOM    137  O   A02 d          17.683   8.299   9.095  0.00  0.00    -0.271 OA
ATOM    138  NAF A02 d          15.896   7.278  10.026  0.00  0.00    -0.368 N 
ATOM    139  H72 A02 d          16.174   7.525  10.954  0.00  0.00     0.159 HD
ATOM    140  H73 A02 d          15.054   6.758   9.878  0.00  0.00     0.159 HD
ENDBRANCH 116 136
ENDBRANCH 114 116
ENDBRANCH  92 112
ENDBRANCH  90  92
ENDBRANCH  85  88
ENDBRANCH  82  85
ENDBRANCH  79  82
ENDBRANCH  76  79
ENDBRANCH  73  76
ENDBRANCH   3  73
TORSDOF 36
ENDMDL
MODEL 8
REMARK VINA RESULT:      -4.2      3.489     10.022
REMARK WARNING: 32 MAX_TORS EXCEEDED!!!
REMARK  36 active torsions:
REMARK  status: ('A' for Active; 'I' for Inactive)
REMARK    1  A    between atoms: C6_6  and  N6_7 
REMARK    2  A    between atoms: CCN_19  and  N9_10 
REMARK    3  A    between atoms: CCK_16  and  OAN_12 
REMARK    4  A    between atoms: CCL_17  and  OAO_13 
REMARK    5  A    between atoms: CCC_15  and  CCM_18 
REMARK       I    between atoms: NBR_27  and  CCC_15 
REMARK    6  A    between atoms: CBZ_20  and  CBG_22 
REMARK       I    between atoms: NBS_28  and  CBZ_20 
REMARK    7  A    between atoms: CBG_22  and  CAX_23 
REMARK    8  A    between atoms: CAX_23  and  CAU_24 
REMARK    9  A    between atoms: CAU_24  and  CAW_25 
REMARK   10  A    between atoms: CAW_25  and  CBD_26 
REMARK   11  A    between atoms: CBD_26  and  NBR_27 
REMARK   12  A    between atoms: CCI_29  and  NBS_28 
REMARK   13  A    between atoms: CCB_30  and  CCI_29 
REMARK   14  A    between atoms: CCI_29  and  CBJ_32 
REMARK       I    between atoms: NBQ_44  and  CCB_30 
REMARK   15  A    between atoms: CBJ_32  and  CAZ_33 
REMARK   16  A    between atoms: CAZ_33  and  CAS_34 
REMARK   17  A    between atoms: CAS_34  and  CAR_35 
REMARK   18  A    between atoms: CAR_35  and  NAC_36 
REMARK   19  A    between atoms: CBH_39  and  CCA_37 
REMARK       I    between atoms: CCA_37  and  NBT_45 
REMARK   20  A    between atoms: CAY_40  and  CBH_39 
REMARK   21  A    between atoms: CAT_41  and  CAY_40 
REMARK   22  A    between atoms: CAV_42  and  CAT_41 
REMARK   23  A    between atoms: CBC_43  and  CAV_42 
REMARK   24  A    between atoms: CBC_43  and  NBQ_44 
REMARK   25  A    between atoms: NBT_45  and  CCJ_46 
REMARK   26  A    between atoms: CCJ_46  and  CBK_47 
REMARK   27  A    between atoms: CCJ_46  and  CCD_54 
REMARK   28  A    between atoms: CBK_47  and  CBB_48 
REMARK   29  A    between atoms: CBB_48  and  CBF_49 
REMARK   30  A    between atoms: CBF_49  and  NBP_50 
REMARK       I    between atoms: NBP_50  and  CBX_51 
REMARK       I    between atoms: CBX_51  and  NAB_52 
REMARK       I    between atoms: CBX_51  and  NAE_53 
REMARK       I    between atoms: CCD_54  and  N_56 
REMARK   31  A    between atoms: N_56  and  CA_57 
REMARK   32  A    between atoms: CA_57  and  CB_58 
REMARK   33  A    between atoms: CA_57  and  C_65 
REMARK   34  A    between atoms: CB_58  and  CG_59 
REMARK   35  A    between atoms: CG_59  and  CD_60 
REMARK   36  A    between atoms: CD_60  and  NE_61 
REMARK       I    between atoms: NE_61  and  CZ_62 
REMARK       I    between atoms: CZ_62  and  NH1_63 
REMARK       I    between atoms: C_65  and  NAF_67 
ROOT
ATOM      1  CCB A02 d          14.725   7.261   0.664  0.00  0.00     0.240 C 
ATOM      2  OAK A02 d          13.668   6.734   0.989  0.00  0.00    -0.271 OA
ATOM      3  NBQ A02 d          14.848   8.106  -0.358  0.00  0.00    -0.359 N 
ATOM      4  H45 A02 d          15.750   8.485  -0.564  0.00  0.00     0.162 HD
ENDROOT
BRANCH   1   5
ATOM      5  CCI A02 d          16.033   6.936   1.427  0.00  0.00     0.089 C 
ATOM      6  H23 A02 d          16.349   5.932   1.108  0.00  0.00     0.087 H 
BRANCH   5   7
ATOM      7  NBS A02 d          15.783   6.873   2.890  0.00  0.00    -0.348 N 
ATOM      8  CBZ A02 d          15.698   5.704   3.545  0.00  0.00     0.218 C 
ATOM      9  OAI A02 d          15.768   4.596   3.001  0.00  0.00    -0.274 OA
ATOM     10  H22 A02 d          15.676   7.726   3.402  0.00  0.00     0.163 HD
BRANCH   8  11
ATOM     11  CBG A02 d          15.443   5.821   5.062  0.00  0.00     0.009 C 
ATOM     12  H11 A02 d          16.103   6.598   5.474  0.00  0.00     0.047 H 
ATOM     13  H12 A02 d          15.671   4.855   5.536  0.00  0.00     0.047 H 
BRANCH  11  14
ATOM     14  CAX A02 d          13.980   6.195   5.371  0.00  0.00    -0.057 C 
ATOM     15  H13 A02 d          13.323   5.712   4.632  0.00  0.00     0.033 H 
ATOM     16  H14 A02 d          13.867   7.288   5.304  0.00  0.00     0.033 H 
BRANCH  14  17
ATOM     17  CAU A02 d          13.575   5.736   6.776  0.00  0.00    -0.063 C 
ATOM     18  H15 A02 d          12.761   6.383   7.136  0.00  0.00     0.033 H 
ATOM     19  H16 A02 d          14.444   5.836   7.443  0.00  0.00     0.033 H 
BRANCH  17  20
ATOM     20  CAW A02 d          13.096   4.282   6.813  0.00  0.00    -0.050 C 
ATOM     21  H17 A02 d          13.877   3.619   6.413  0.00  0.00     0.035 H 
ATOM     22  H18 A02 d          12.180   4.173   6.212  0.00  0.00     0.035 H 
BRANCH  20  23
ATOM     23  CBD A02 d          12.807   3.929   8.273  0.00  0.00    -0.005 C 
ATOM     24  H19 A02 d          13.472   3.106   8.574  0.00  0.00     0.064 H 
ATOM     25  H20 A02 d          11.760   3.603   8.356  0.00  0.00     0.064 H 
BRANCH  23  26
ATOM     26  NBR A02 d          13.020   5.066   9.186  0.00  0.00    -0.359 N 
ATOM     27  CCC A02 d          12.047   5.697   9.844  0.00  0.00     0.249 C 
ATOM     28  OAL A02 d          10.839   5.449   9.717  0.00  0.00    -0.271 OA
ATOM     29  H21 A02 d          13.958   5.386   9.320  0.00  0.00     0.162 HD
BRANCH  27  30
ATOM     30  CCM A02 d          12.488   6.803  10.821  0.00  0.00     0.144 C 
ATOM     31  OBV A02 d          13.929   7.060  10.725  0.00  0.00    -0.346 OA
ATOM     32  CCN A02 d          14.144   8.300   9.990  0.00  0.00     0.140 C 
ATOM     33  CCL A02 d          12.770   8.655   9.390  0.00  0.00     0.105 C 
ATOM     34  H10 A02 d          14.455   9.093  10.686  0.00  0.00     0.123 H 
ATOM     35  CCK A02 d          11.811   8.119  10.438  0.00  0.00     0.098 C 
ATOM     36  H8  A02 d          12.616   8.180   8.410  0.00  0.00     0.093 H 
ATOM     37  H7  A02 d          10.795   7.973  10.043  0.00  0.00     0.091 H 
ATOM     38  H9  A02 d          12.221   6.514  11.848  0.00  0.00     0.102 H 
BRANCH  32  39
ATOM     39  N9  A02 d          15.232   8.146   8.932  0.00  0.00    -0.294 N 
ATOM     40  C4  A02 d          15.557   9.044   8.008  0.00  0.00     0.167 A 
ATOM     41  N3  A02 d          15.085  10.265   7.710  0.00  0.00    -0.222 NA
ATOM     42  C5  A02 d          16.585   8.502   7.249  0.00  0.00     0.149 A 
ATOM     43  C2  A02 d          15.605  10.960   6.707  0.00  0.00     0.091 A 
ATOM     44  N1  A02 d          16.604  10.466   5.963  0.00  0.00    -0.222 NA
ATOM     45  H1  A02 d          15.215  11.947   6.485  0.00  0.00     0.146 H 
ATOM     46  C6  A02 d          17.108   9.245   6.204  0.00  0.00     0.155 A 
ATOM     47  N7  A02 d          16.868   7.293   7.730  0.00  0.00    -0.236 NA
ATOM     48  C8  A02 d          16.045   7.091   8.764  0.00  0.00     0.071 A 
ATOM     49  H4  A02 d          16.035   6.195   9.384  0.00  0.00     0.144 H 
BRANCH  46  50
ATOM     50  N6  A02 d          18.089   8.748   5.458  0.00  0.00    -0.382 N 
ATOM     51  H2  A02 d          19.016   8.579   5.874  0.00  0.00     0.157 HD
ATOM     52  H3  A02 d          17.924   8.534   4.464  0.00  0.00     0.157 HD
ENDBRANCH  46  50
ENDBRANCH  32  39
BRANCH  33  53
ATOM     53  OAO A02 d          12.624  10.064   9.285  0.00  0.00    -0.388 OA
ATOM     54  H6  A02 d          11.807  10.328   9.691  0.00  0.00     0.210 HD
ENDBRANCH  33  53
BRANCH  35  55
ATOM     55  OAN A02 d          11.799   8.996  11.581  0.00  0.00    -0.390 OA
ATOM     56  H5  A02 d          11.774   9.899  11.286  0.00  0.00     0.210 HD
ENDBRANCH  35  55
ENDBRANCH  27  30
ENDBRANCH  23  26
ENDBRANCH  20  23
ENDBRANCH  17  20
ENDBRANCH  14  17
ENDBRANCH  11  14
ENDBRANCH   8  11
ENDBRANCH   5   7
BRANCH   5  57
ATOM     57  CBJ A02 d          17.191   7.900   1.084  0.00  0.00    -0.038 C 
ATOM     58  H24 A02 d          17.048   8.247   0.050  0.00  0.00     0.036 H 
ATOM     59  H25 A02 d          18.133   7.337   1.155  0.00  0.00     0.036 H 
BRANCH  57  60
ATOM     60  CAZ A02 d          17.306   9.133   1.986  0.00  0.00    -0.061 C 
ATOM     61  H26 A02 d          17.814   8.853   2.921  0.00  0.00     0.033 H 
ATOM     62  H27 A02 d          16.299   9.510   2.215  0.00  0.00     0.033 H 
BRANCH  60  63
ATOM     63  CAS A02 d          18.116  10.238   1.277  0.00  0.00    -0.043 C 
ATOM     64  H28 A02 d          17.833  11.216   1.696  0.00  0.00     0.035 H 
ATOM     65  H29 A02 d          17.884  10.219   0.201  0.00  0.00     0.035 H 
BRANCH  63  66
ATOM     66  CAR A02 d          19.626  10.029   1.468  0.00  0.00     0.080 C 
ATOM     67  H30 A02 d          19.793   9.152   2.110  0.00  0.00     0.075 H 
ATOM     68  H31 A02 d          20.060  10.921   1.944  0.00  0.00     0.075 H 
BRANCH  66  69
ATOM     69  NAC A02 d          20.273   9.809   0.162  0.00  0.00    -0.079 N 
ATOM     70  H32 A02 d          20.561   8.846   0.088  0.00  0.00     0.274 HD
ATOM     71  H33 A02 d          21.080  10.409   0.082  0.00  0.00     0.274 HD
ATOM     72  H34 A02 d          19.621  10.023  -0.577  0.00  0.00     0.274 HD
ENDBRANCH  66  69
ENDBRANCH  63  66
ENDBRANCH  60  63
ENDBRANCH  57  60
ENDBRANCH   5  57
ENDBRANCH   1   5
BRANCH   3  73
ATOM     73  CBC A02 d          13.698   8.507  -1.200  0.00  0.00    -0.005 C 
ATOM     74  H43 A02 d          14.071   8.954  -2.134  0.00  0.00     0.064 H 
ATOM     75  H44 A02 d          13.094   7.618  -1.435  0.00  0.00     0.064 H 
BRANCH  73  76
ATOM     76  CAV A02 d          12.824   9.530  -0.466  0.00  0.00    -0.050 C 
ATOM     77  H41 A02 d          11.799   9.482  -0.863  0.00  0.00     0.035 H 
ATOM     78  H42 A02 d          12.812   9.292   0.607  0.00  0.00     0.035 H 
BRANCH  76  79
ATOM     79  CAT A02 d          13.375  10.948  -0.663  0.00  0.00    -0.063 C 
ATOM     80  H39 A02 d          13.877  11.001  -1.640  0.00  0.00     0.033 H 
ATOM     81  H40 A02 d          12.537  11.661  -0.641  0.00  0.00     0.033 H 
BRANCH  79  82
ATOM     82  CAY A02 d          14.377  11.327   0.431  0.00  0.00    -0.057 C 
ATOM     83  H37 A02 d          15.272  10.694   0.330  0.00  0.00     0.033 H 
ATOM     84  H38 A02 d          14.658  12.383   0.306  0.00  0.00     0.033 H 
BRANCH  82  85
ATOM     85  CBH A02 d          13.786  11.132   1.838  0.00  0.00     0.009 C 
ATOM     86  H35 A02 d          12.707  11.338   1.802  0.00  0.00     0.047 H 
ATOM     87  H36 A02 d          13.951  10.091   2.152  0.00  0.00     0.047 H 
BRANCH  85  88
ATOM     88  CCA A02 d          14.439  12.073   2.864  0.00  0.00     0.218 C 
ATOM     89  OAJ A02 d          15.617  11.919   3.204  0.00  0.00    -0.274 OA
ATOM     90  NBT A02 d          13.641  13.042   3.328  0.00  0.00    -0.348 N 
ATOM     91  H46 A02 d          12.703  13.093   2.985  0.00  0.00     0.163 HD
BRANCH  90  92
ATOM     92  CCJ A02 d          14.082  14.047   4.327  0.00  0.00     0.089 C 
ATOM     93  H47 A02 d          14.773  13.551   5.024  0.00  0.00     0.087 H 
BRANCH  92  94
ATOM     94  CBK A02 d          12.883  14.587   5.152  0.00  0.00    -0.036 C 
ATOM     95  H48 A02 d          11.954  14.273   4.655  0.00  0.00     0.036 H 
ATOM     96  H49 A02 d          12.941  15.685   5.163  0.00  0.00     0.036 H 
BRANCH  94  97
ATOM     97  CBB A02 d          12.838  14.094   6.609  0.00  0.00    -0.048 C 
ATOM     98  H50 A02 d          12.966  14.957   7.279  0.00  0.00     0.035 H 
ATOM     99  H51 A02 d          13.662  13.382   6.766  0.00  0.00     0.035 H 
BRANCH  97 100
ATOM    100  CBF A02 d          11.511  13.397   6.948  0.00  0.00     0.009 C 
ATOM    101  H52 A02 d          11.266  13.559   8.008  0.00  0.00     0.064 H 
ATOM    102  H53 A02 d          11.596  12.318   6.752  0.00  0.00     0.064 H 
BRANCH 100 103
ATOM    103  NBP A02 d          10.454  13.977   6.097  0.00  0.00    -0.227 N 
ATOM    104  CBX A02 d           9.143  13.766   6.280  0.00  0.00     0.665 C 
ATOM    105  NAB A02 d           8.673  13.013   7.273  0.00  0.00    -0.235 N 
ATOM    106  NAE A02 d           8.286  14.341   5.442  0.00  0.00    -0.235 N 
ATOM    107  H55 A02 d           7.657  12.875   7.379  0.00  0.00     0.174 HD
ATOM    108  H56 A02 d           9.325  12.567   7.934  0.00  0.00     0.174 HD
ATOM    109  H57 A02 d           8.635  14.927   4.670  0.00  0.00     0.174 HD
ATOM    110  H58 A02 d           7.272  14.202   5.565  0.00  0.00     0.174 HD
ATOM    111  H54 A02 d          10.741  14.582   5.315  0.00  0.00     0.177 HD
ENDBRANCH 100 103
ENDBRANCH  97 100
ENDBRANCH  94  97
ENDBRANCH  92  94
BRANCH  92 112
ATOM    112  CCD A02 d          14.849  15.200   3.635  0.00  0.00     0.241 C 
ATOM    113  OAM A02 d          14.911  15.272   2.408  0.00  0.00    -0.271 OA
ATOM    114  N   A02 d          15.424  16.079   4.458  0.00  0.00    -0.346 N 
ATOM    115  H59 A02 d          15.323  15.942   5.444  0.00  0.00     0.163 HD
BRANCH 114 116
ATOM    116  CA  A02 d          16.202  17.247   3.989  0.00  0.00     0.089 C 
ATOM    117  H60 A02 d          16.795  16.942   3.114  0.00  0.00     0.087 H 
BRANCH 116 118
ATOM    118  CB  A02 d          17.157  17.711   5.096  0.00  0.00    -0.036 C 
ATOM    119  H61 A02 d          16.565  18.060   5.955  0.00  0.00     0.036 H 
ATOM    120  H62 A02 d          17.773  18.538   4.714  0.00  0.00     0.036 H 
BRANCH 118 121
ATOM    121  CG  A02 d          18.076  16.576   5.554  0.00  0.00    -0.048 C 
ATOM    122  H63 A02 d          17.516  15.912   6.230  0.00  0.00     0.035 H 
ATOM    123  H64 A02 d          18.935  17.005   6.091  0.00  0.00     0.035 H 
BRANCH 121 124
ATOM    124  CD  A02 d          18.586  15.764   4.368  0.00  0.00     0.009 C 
ATOM    125  H65 A02 d          19.639  16.010   4.170  0.00  0.00     0.064 H 
ATOM    126  H66 A02 d          17.983  15.984   3.475  0.00  0.00     0.064 H 
BRANCH 124 127
ATOM    127  NE  A02 d          18.461  14.352   4.719  0.00  0.00    -0.227 N 
ATOM    128  CZ  A02 d          19.237  13.375   4.253  0.00  0.00     0.665 C 
ATOM    129  NH1 A02 d          20.261  13.592   3.428  0.00  0.00    -0.235 N 
ATOM    130  NH2 A02 d          18.965  12.144   4.666  0.00  0.00    -0.235 N 
ATOM    131  H68 A02 d          20.831  12.801   3.096  0.00  0.00     0.174 HD
ATOM    132  H69 A02 d          20.481  14.550   3.121  0.00  0.00     0.174 HD
ATOM    133  H70 A02 d          18.174  11.979   5.304  0.00  0.00     0.174 HD
ATOM    134  H71 A02 d          19.545  11.354   4.349  0.00  0.00     0.174 HD
ATOM    135  H67 A02 d          17.714  14.091   5.378  0.00  0.00     0.177 HD
ENDBRANCH 124 127
ENDBRANCH 121 124
ENDBRANCH 118 121
ENDBRANCH 116 118
BRANCH 116 136
ATOM    136  C   A02 d          15.278  18.413   3.570  0.00  0.00     0.238 C 
ATOM    137  O   A02 d          14.152  18.555   4.052  0.00  0.00    -0.271 OA
ATOM    138  NAF A02 d          15.804  19.248   2.675  0.00  0.00    -0.368 N 
ATOM    139  H72 A02 d          15.273  20.030   2.349  0.00  0.00     0.159 HD
ATOM    140  H73 A02 d          16.729  19.092   2.330  0.00  0.00     0.159 HD
ENDBRANCH 116 136
ENDBRANCH 114 116
ENDBRANCH  92 112
ENDBRANCH  90  92
ENDBRANCH  85  88
ENDBRANCH  82  85
ENDBRANCH  79  82
ENDBRANCH  76  79
ENDBRANCH  73  76
ENDBRANCH   3  73
TORSDOF 36
ENDMDL
MODEL 9
REMARK VINA RESULT:      -4.0      3.176      9.520
REMARK WARNING: 32 MAX_TORS EXCEEDED!!!
REMARK  36 active torsions:
REMARK  status: ('A' for Active; 'I' for Inactive)
REMARK    1  A    between atoms: C6_6  and  N6_7 
REMARK    2  A    between atoms: CCN_19  and  N9_10 
REMARK    3  A    between atoms: CCK_16  and  OAN_12 
REMARK    4  A    between atoms: CCL_17  and  OAO_13 
REMARK    5  A    between atoms: CCC_15  and  CCM_18 
REMARK       I    between atoms: NBR_27  and  CCC_15 
REMARK    6  A    between atoms: CBZ_20  and  CBG_22 
REMARK       I    between atoms: NBS_28  and  CBZ_20 
REMARK    7  A    between atoms: CBG_22  and  CAX_23 
REMARK    8  A    between atoms: CAX_23  and  CAU_24 
REMARK    9  A    between atoms: CAU_24  and  CAW_25 
REMARK   10  A    between atoms: CAW_25  and  CBD_26 
REMARK   11  A    between atoms: CBD_26  and  NBR_27 
REMARK   12  A    between atoms: CCI_29  and  NBS_28 
REMARK   13  A    between atoms: CCB_30  and  CCI_29 
REMARK   14  A    between atoms: CCI_29  and  CBJ_32 
REMARK       I    between atoms: NBQ_44  and  CCB_30 
REMARK   15  A    between atoms: CBJ_32  and  CAZ_33 
REMARK   16  A    between atoms: CAZ_33  and  CAS_34 
REMARK   17  A    between atoms: CAS_34  and  CAR_35 
REMARK   18  A    between atoms: CAR_35  and  NAC_36 
REMARK   19  A    between atoms: CBH_39  and  CCA_37 
REMARK       I    between atoms: CCA_37  and  NBT_45 
REMARK   20  A    between atoms: CAY_40  and  CBH_39 
REMARK   21  A    between atoms: CAT_41  and  CAY_40 
REMARK   22  A    between atoms: CAV_42  and  CAT_41 
REMARK   23  A    between atoms: CBC_43  and  CAV_42 
REMARK   24  A    between atoms: CBC_43  and  NBQ_44 
REMARK   25  A    between atoms: NBT_45  and  CCJ_46 
REMARK   26  A    between atoms: CCJ_46  and  CBK_47 
REMARK   27  A    between atoms: CCJ_46  and  CCD_54 
REMARK   28  A    between atoms: CBK_47  and  CBB_48 
REMARK   29  A    between atoms: CBB_48  and  CBF_49 
REMARK   30  A    between atoms: CBF_49  and  NBP_50 
REMARK       I    between atoms: NBP_50  and  CBX_51 
REMARK       I    between atoms: CBX_51  and  NAB_52 
REMARK       I    between atoms: CBX_51  and  NAE_53 
REMARK       I    between atoms: CCD_54  and  N_56 
REMARK   31  A    between atoms: N_56  and  CA_57 
REMARK   32  A    between atoms: CA_57  and  CB_58 
REMARK   33  A    between atoms: CA_57  and  C_65 
REMARK   34  A    between atoms: CB_58  and  CG_59 
REMARK   35  A    between atoms: CG_59  and  CD_60 
REMARK   36  A    between atoms: CD_60  and  NE_61 
REMARK       I    between atoms: NE_61  and  CZ_62 
REMARK       I    between atoms: CZ_62  and  NH1_63 
REMARK       I    between atoms: C_65  and  NAF_67 
ROOT
ATOM      1  CCB A02 d          19.123   8.412   3.208  0.00  0.00     0.240 C 
ATOM      2  OAK A02 d          18.019   8.593   2.709  0.00  0.00    -0.271 OA
ATOM      3  NBQ A02 d          20.095   7.715   2.622  0.00  0.00    -0.359 N 
ATOM      4  H45 A02 d          20.965   7.604   3.103  0.00  0.00     0.162 HD
ENDROOT
BRANCH   1   5
ATOM      5  CCI A02 d          19.451   8.972   4.614  0.00  0.00     0.089 C 
ATOM      6  H23 A02 d          20.542   9.103   4.660  0.00  0.00     0.087 H 
BRANCH   5   7
ATOM      7  NBS A02 d          19.080   7.993   5.668  0.00  0.00    -0.348 N 
ATOM      8  CBZ A02 d          17.826   7.900   6.137  0.00  0.00     0.218 C 
ATOM      9  OAI A02 d          16.894   8.633   5.783  0.00  0.00    -0.274 OA
ATOM     10  H22 A02 d          19.784   7.387   6.038  0.00  0.00     0.163 HD
BRANCH   8  11
ATOM     11  CBG A02 d          17.613   6.826   7.223  0.00  0.00     0.009 C 
ATOM     12  H11 A02 d          17.047   7.269   8.056  0.00  0.00     0.047 H 
ATOM     13  H12 A02 d          18.595   6.488   7.586  0.00  0.00     0.047 H 
BRANCH  11  14
ATOM     14  CAX A02 d          16.835   5.610   6.683  0.00  0.00    -0.057 C 
ATOM     15  H13 A02 d          17.381   5.186   5.827  0.00  0.00     0.033 H 
ATOM     16  H14 A02 d          15.837   5.939   6.355  0.00  0.00     0.033 H 
BRANCH  14  17
ATOM     17  CAU A02 d          16.675   4.530   7.759  0.00  0.00    -0.063 C 
ATOM     18  H15 A02 d          15.698   4.042   7.624  0.00  0.00     0.033 H 
ATOM     19  H16 A02 d          16.711   5.011   8.748  0.00  0.00     0.033 H 
BRANCH  17  20
ATOM     20  CAW A02 d          17.769   3.460   7.696  0.00  0.00    -0.050 C 
ATOM     21  H17 A02 d          18.527   3.651   8.470  0.00  0.00     0.035 H 
ATOM     22  H18 A02 d          18.247   3.470   6.705  0.00  0.00     0.035 H 
BRANCH  20  23
ATOM     23  CBD A02 d          17.102   2.104   7.941  0.00  0.00    -0.005 C 
ATOM     24  H19 A02 d          17.658   1.577   8.730  0.00  0.00     0.064 H 
ATOM     25  H20 A02 d          17.143   1.520   7.011  0.00  0.00     0.064 H 
BRANCH  23  26
ATOM     26  NBR A02 d          15.695   2.231   8.357  0.00  0.00    -0.359 N 
ATOM     27  CCC A02 d          14.676   1.600   7.772  0.00  0.00     0.249 C 
ATOM     28  OAL A02 d          14.779   0.885   6.765  0.00  0.00    -0.271 OA
ATOM     29  H21 A02 d          15.490   2.830   9.131  0.00  0.00     0.162 HD
BRANCH  27  30
ATOM     30  CCM A02 d          13.290   1.794   8.417  0.00  0.00     0.144 C 
ATOM     31  OBV A02 d          13.339   2.773   9.508  0.00  0.00    -0.346 OA
ATOM     32  CCN A02 d          12.760   4.029   9.047  0.00  0.00     0.140 C 
ATOM     33  CCL A02 d          12.605   3.865   7.523  0.00  0.00     0.105 C 
ATOM     34  H10 A02 d          11.769   4.168   9.502  0.00  0.00     0.123 H 
ATOM     35  CCK A02 d          12.327   2.379   7.384  0.00  0.00     0.098 C 
ATOM     36  H8  A02 d          13.516   4.165   6.984  0.00  0.00     0.093 H 
ATOM     37  H7  A02 d          12.520   2.008   6.367  0.00  0.00     0.091 H 
ATOM     38  H9  A02 d          12.920   0.827   8.789  0.00  0.00     0.102 H 
BRANCH  32  39
ATOM     39  N9  A02 d          13.629   5.223   9.431  0.00  0.00    -0.294 N 
ATOM     40  C4  A02 d          13.692   6.383   8.786  0.00  0.00     0.167 A 
ATOM     41  N3  A02 d          13.086   6.854   7.685  0.00  0.00    -0.222 NA
ATOM     42  C5  A02 d          14.607   7.181   9.461  0.00  0.00     0.149 A 
ATOM     43  C2  A02 d          13.343   8.081   7.249  0.00  0.00     0.091 A 
ATOM     44  N1  A02 d          14.214   8.876   7.885  0.00  0.00    -0.222 NA
ATOM     45  H1  A02 d          12.839   8.446   6.361  0.00  0.00     0.146 H 
ATOM     46  C6  A02 d          14.862   8.456   8.983  0.00  0.00     0.155 A 
ATOM     47  N7  A02 d          15.073   6.495  10.502  0.00  0.00    -0.236 NA
ATOM     48  C8  A02 d          14.460   5.306  10.482  0.00  0.00     0.071 A 
ATOM     49  H4  A02 d          14.615   4.515  11.215  0.00  0.00     0.144 H 
BRANCH  46  50
ATOM     50  N6  A02 d          15.735   9.239   9.606  0.00  0.00    -0.382 N 
ATOM     51  H2  A02 d          16.677   8.885   9.829  0.00  0.00     0.157 HD
ATOM     52  H3  A02 d          15.471  10.200   9.867  0.00  0.00     0.157 HD
ENDBRANCH  46  50
ENDBRANCH  32  39
BRANCH  33  53
ATOM     53  OAO A02 d          11.488   4.606   7.056  0.00  0.00    -0.388 OA
ATOM     54  H6  A02 d          10.694   4.104   7.199  0.00  0.00     0.210 HD
ENDBRANCH  33  53
BRANCH  35  55
ATOM     55  OAN A02 d          10.972   2.098   7.787  0.00  0.00    -0.390 OA
ATOM     56  H5  A02 d          10.618   1.405   7.241  0.00  0.00     0.210 HD
ENDBRANCH  35  55
ENDBRANCH  27  30
ENDBRANCH  23  26
ENDBRANCH  20  23
ENDBRANCH  17  20
ENDBRANCH  14  17
ENDBRANCH  11  14
ENDBRANCH   8  11
ENDBRANCH   5   7
BRANCH   5  57
ATOM     57  CBJ A02 d          18.824  10.360   4.875  0.00  0.00    -0.038 C 
ATOM     58  H24 A02 d          19.052  10.647   5.912  0.00  0.00     0.036 H 
ATOM     59  H25 A02 d          17.735  10.270   4.750  0.00  0.00     0.036 H 
BRANCH  57  60
ATOM     60  CAZ A02 d          19.314  11.484   3.955  0.00  0.00    -0.061 C 
ATOM     61  H26 A02 d          18.540  11.702   3.204  0.00  0.00     0.033 H 
ATOM     62  H27 A02 d          20.236  11.163   3.449  0.00  0.00     0.033 H 
BRANCH  60  63
ATOM     63  CAS A02 d          19.601  12.758   4.776  0.00  0.00    -0.043 C 
ATOM     64  H28 A02 d          20.401  13.330   4.284  0.00  0.00     0.035 H 
ATOM     65  H29 A02 d          19.924  12.469   5.787  0.00  0.00     0.035 H 
BRANCH  63  66
ATOM     66  CAR A02 d          18.348  13.642   4.885  0.00  0.00     0.080 C 
ATOM     67  H30 A02 d          17.510  13.150   4.370  0.00  0.00     0.075 H 
ATOM     68  H31 A02 d          18.548  14.616   4.415  0.00  0.00     0.075 H 
BRANCH  66  69
ATOM     69  NAC A02 d          17.998  13.847   6.302  0.00  0.00    -0.079 N 
ATOM     70  H32 A02 d          18.810  14.170   6.806  0.00  0.00     0.274 HD
ATOM     71  H33 A02 d          17.681  12.975   6.699  0.00  0.00     0.274 HD
ATOM     72  H34 A02 d          17.264  14.534   6.371  0.00  0.00     0.274 HD
ENDBRANCH  66  69
ENDBRANCH  63  66
ENDBRANCH  60  63
ENDBRANCH  57  60
ENDBRANCH   5  57
ENDBRANCH   1   5
BRANCH   3  73
ATOM     73  CBC A02 d          19.936   7.098   1.286  0.00  0.00    -0.005 C 
ATOM     74  H43 A02 d          19.314   7.752   0.657  0.00  0.00     0.064 H 
ATOM     75  H44 A02 d          20.926   6.978   0.822  0.00  0.00     0.064 H 
BRANCH  73  76
ATOM     76  CAV A02 d          19.265   5.725   1.403  0.00  0.00    -0.050 C 
ATOM     77  H41 A02 d          20.040   4.951   1.510  0.00  0.00     0.035 H 
ATOM     78  H42 A02 d          18.614   5.715   2.290  0.00  0.00     0.035 H 
BRANCH  76  79
ATOM     79  CAT A02 d          18.424   5.428   0.156  0.00  0.00    -0.063 C 
ATOM     80  H39 A02 d          18.782   6.058  -0.671  0.00  0.00     0.033 H 
ATOM     81  H40 A02 d          18.546   4.368  -0.112  0.00  0.00     0.033 H 
BRANCH  79  82
ATOM     82  CAY A02 d          16.937   5.713   0.389  0.00  0.00    -0.057 C 
ATOM     83  H37 A02 d          16.341   5.005  -0.206  0.00  0.00     0.033 H 
ATOM     84  H38 A02 d          16.712   5.577   1.457  0.00  0.00     0.033 H 
BRANCH  82  85
ATOM     85  CBH A02 d          16.561   7.147  -0.021  0.00  0.00     0.009 C 
ATOM     86  H35 A02 d          17.029   7.852   0.681  0.00  0.00     0.047 H 
ATOM     87  H36 A02 d          16.936   7.337  -1.037  0.00  0.00     0.047 H 
BRANCH  85  88
ATOM     88  CCA A02 d          15.038   7.363  -0.002  0.00  0.00     0.218 C 
ATOM     89  OAJ A02 d          14.461   7.883  -0.962  0.00  0.00    -0.274 OA
ATOM     90  NBT A02 d          14.422   6.939   1.108  0.00  0.00    -0.348 N 
ATOM     91  H46 A02 d          14.974   6.519   1.829  0.00  0.00     0.163 HD
BRANCH  90  92
ATOM     92  CCJ A02 d          12.959   7.061   1.321  0.00  0.00     0.089 C 
ATOM     93  H47 A02 d          12.688   6.434   2.182  0.00  0.00     0.087 H 
BRANCH  92  94
ATOM     94  CBK A02 d          12.164   6.547   0.091  0.00  0.00    -0.036 C 
ATOM     95  H48 A02 d          12.817   6.610  -0.792  0.00  0.00     0.036 H 
ATOM     96  H49 A02 d          11.291   7.201  -0.052  0.00  0.00     0.036 H 
BRANCH  94  97
ATOM     97  CBB A02 d          11.663   5.098   0.216  0.00  0.00    -0.048 C 
ATOM     98  H50 A02 d          12.162   4.625   1.075  0.00  0.00     0.035 H 
ATOM     99  H51 A02 d          11.922   4.554  -0.704  0.00  0.00     0.035 H 
BRANCH  97 100
ATOM    100  CBF A02 d          10.142   5.022   0.424  0.00  0.00     0.009 C 
ATOM    101  H52 A02 d           9.802   3.983   0.301  0.00  0.00     0.064 H 
ATOM    102  H53 A02 d           9.634   5.664  -0.310  0.00  0.00     0.064 H 
BRANCH 100 103
ATOM    103  NBP A02 d           9.838   5.489   1.790  0.00  0.00    -0.227 N 
ATOM    104  CBX A02 d           8.897   6.397   2.081  0.00  0.00     0.665 C 
ATOM    105  NAB A02 d           8.131   6.955   1.146  0.00  0.00    -0.235 N 
ATOM    106  NAE A02 d           8.720   6.741   3.353  0.00  0.00    -0.235 N 
ATOM    107  H55 A02 d           7.417   7.650   1.411  0.00  0.00     0.174 HD
ATOM    108  H56 A02 d           8.251   6.692   0.157  0.00  0.00     0.174 HD
ATOM    109  H57 A02 d           9.305   6.318   4.088  0.00  0.00     0.174 HD
ATOM    110  H58 A02 d           7.998   7.431   3.605  0.00  0.00     0.174 HD
ATOM    111  H54 A02 d          10.383   5.092   2.569  0.00  0.00     0.177 HD
ENDBRANCH 100 103
ENDBRANCH  97 100
ENDBRANCH  94  97
ENDBRANCH  92  94
BRANCH  92 112
ATOM    112  CCD A02 d          12.581   8.524   1.658  0.00  0.00     0.241 C 
ATOM    113  OAM A02 d          12.011   9.238   0.833  0.00  0.00    -0.271 OA
ATOM    114  N   A02 d          12.921   8.934   2.883  0.00  0.00    -0.346 N 
ATOM    115  H59 A02 d          13.383   8.286   3.488  0.00  0.00     0.163 HD
BRANCH 114 116
ATOM    116  CA  A02 d          12.648  10.297   3.390  0.00  0.00     0.089 C 
ATOM    117  H60 A02 d          12.026  10.826   2.654  0.00  0.00     0.087 H 
BRANCH 116 118
ATOM    118  CB  A02 d          13.969  11.059   3.559  0.00  0.00    -0.036 C 
ATOM    119  H61 A02 d          14.786  10.334   3.689  0.00  0.00     0.036 H 
ATOM    120  H62 A02 d          13.902  11.699   4.452  0.00  0.00     0.036 H 
BRANCH 118 121
ATOM    121  CG  A02 d          14.270  11.935   2.341  0.00  0.00    -0.048 C 
ATOM    122  H63 A02 d          14.846  11.347   1.611  0.00  0.00     0.035 H 
ATOM    123  H64 A02 d          14.863  12.804   2.661  0.00  0.00     0.035 H 
BRANCH 121 124
ATOM    124  CD  A02 d          12.986  12.426   1.681  0.00  0.00     0.009 C 
ATOM    125  H65 A02 d          12.859  13.503   1.861  0.00  0.00     0.064 H 
ATOM    126  H66 A02 d          12.121  11.881   2.090  0.00  0.00     0.064 H 
BRANCH 124 127
ATOM    127  NE  A02 d          13.104  12.170   0.249  0.00  0.00    -0.227 N 
ATOM    128  CZ  A02 d          13.426  13.081  -0.669  0.00  0.00     0.665 C 
ATOM    129  NH1 A02 d          13.720  14.345  -0.365  0.00  0.00    -0.235 N 
ATOM    130  NH2 A02 d          13.467  12.673  -1.930  0.00  0.00    -0.235 N 
ATOM    131  H68 A02 d          13.963  15.011  -1.112  0.00  0.00     0.174 HD
ATOM    132  H69 A02 d          13.704  14.656   0.617  0.00  0.00     0.174 HD
ATOM    133  H70 A02 d          13.240  11.696  -2.163  0.00  0.00     0.174 HD
ATOM    134  H71 A02 d          13.727  13.334  -2.677  0.00  0.00     0.174 HD
ATOM    135  H67 A02 d          12.925  11.210  -0.079  0.00  0.00     0.177 HD
ENDBRANCH 124 127
ENDBRANCH 121 124
ENDBRANCH 118 121
ENDBRANCH 116 118
BRANCH 116 136
ATOM    136  C   A02 d          11.888  10.259   4.736  0.00  0.00     0.238 C 
ATOM    137  O   A02 d          12.207  10.983   5.682  0.00  0.00    -0.271 OA
ATOM    138  NAF A02 d          10.865   9.409   4.774  0.00  0.00    -0.368 N 
ATOM    139  H72 A02 d          10.318   9.321   5.607  0.00  0.00     0.159 HD
ATOM    140  H73 A02 d          10.642   8.858   3.970  0.00  0.00     0.159 HD
ENDBRANCH 116 136
ENDBRANCH 114 116
ENDBRANCH  92 112
ENDBRANCH  90  92
ENDBRANCH  85  88
ENDBRANCH  82  85
ENDBRANCH  79  82
ENDBRANCH  76  79
ENDBRANCH  73  76
ENDBRANCH   3  73
TORSDOF 36
ENDMDL
MODEL 10
REMARK VINA RESULT:      -4.0      3.001      8.794
REMARK WARNING: 32 MAX_TORS EXCEEDED!!!
REMARK  36 active torsions:
REMARK  status: ('A' for Active; 'I' for Inactive)
REMARK    1  A    between atoms: C6_6  and  N6_7 
REMARK    2  A    between atoms: CCN_19  and  N9_10 
REMARK    3  A    between atoms: CCK_16  and  OAN_12 
REMARK    4  A    between atoms: CCL_17  and  OAO_13 
REMARK    5  A    between atoms: CCC_15  and  CCM_18 
REMARK       I    between atoms: NBR_27  and  CCC_15 
REMARK    6  A    between atoms: CBZ_20  and  CBG_22 
REMARK       I    between atoms: NBS_28  and  CBZ_20 
REMARK    7  A    between atoms: CBG_22  and  CAX_23 
REMARK    8  A    between atoms: CAX_23  and  CAU_24 
REMARK    9  A    between atoms: CAU_24  and  CAW_25 
REMARK   10  A    between atoms: CAW_25  and  CBD_26 
REMARK   11  A    between atoms: CBD_26  and  NBR_27 
REMARK   12  A    between atoms: CCI_29  and  NBS_28 
REMARK   13  A    between atoms: CCB_30  and  CCI_29 
REMARK   14  A    between atoms: CCI_29  and  CBJ_32 
REMARK       I    between atoms: NBQ_44  and  CCB_30 
REMARK   15  A    between atoms: CBJ_32  and  CAZ_33 
REMARK   16  A    between atoms: CAZ_33  and  CAS_34 
REMARK   17  A    between atoms: CAS_34  and  CAR_35 
REMARK   18  A    between atoms: CAR_35  and  NAC_36 
REMARK   19  A    between atoms: CBH_39  and  CCA_37 
REMARK       I    between atoms: CCA_37  and  NBT_45 
REMARK   20  A    between atoms: CAY_40  and  CBH_39 
REMARK   21  A    between atoms: CAT_41  and  CAY_40 
REMARK   22  A    between atoms: CAV_42  and  CAT_41 
REMARK   23  A    between atoms: CBC_43  and  CAV_42 
REMARK   24  A    between atoms: CBC_43  and  NBQ_44 
REMARK   25  A    between atoms: NBT_45  and  CCJ_46 
REMARK   26  A    between atoms: CCJ_46  and  CBK_47 
REMARK   27  A    between atoms: CCJ_46  and  CCD_54 
REMARK   28  A    between atoms: CBK_47  and  CBB_48 
REMARK   29  A    between atoms: CBB_48  and  CBF_49 
REMARK   30  A    between atoms: CBF_49  and  NBP_50 
REMARK       I    between atoms: NBP_50  and  CBX_51 
REMARK       I    between atoms: CBX_51  and  NAB_52 
REMARK       I    between atoms: CBX_51  and  NAE_53 
REMARK       I    between atoms: CCD_54  and  N_56 
REMARK   31  A    between atoms: N_56  and  CA_57 
REMARK   32  A    between atoms: CA_57  and  CB_58 
REMARK   33  A    between atoms: CA_57  and  C_65 
REMARK   34  A    between atoms: CB_58  and  CG_59 
REMARK   35  A    between atoms: CG_59  and  CD_60 
REMARK   36  A    between atoms: CD_60  and  NE_61 
REMARK       I    between atoms: NE_61  and  CZ_62 
REMARK       I    between atoms: CZ_62  and  NH1_63 
REMARK       I    between atoms: C_65  and  NAF_67 
ROOT
ATOM      1  CCB A02 d          13.457  12.141   5.960  0.00  0.00     0.240 C 
ATOM      2  OAK A02 d          14.251  13.055   5.775  0.00  0.00    -0.271 OA
ATOM      3  NBQ A02 d          13.721  11.072   6.709  0.00  0.00    -0.359 N 
ATOM      4  H45 A02 d          13.021  10.363   6.801  0.00  0.00     0.162 HD
ENDROOT
BRANCH   1   5
ATOM      5  CCI A02 d          12.065  12.159   5.283  0.00  0.00     0.089 C 
ATOM      6  H23 A02 d          11.588  13.112   5.555  0.00  0.00     0.087 H 
BRANCH   5   7
ATOM      7  NBS A02 d          11.208  11.070   5.818  0.00  0.00    -0.348 N 
ATOM      8  CBZ A02 d          10.174  11.320   6.637  0.00  0.00     0.218 C 
ATOM      9  OAI A02 d           9.873  12.445   7.054  0.00  0.00    -0.274 OA
ATOM     10  H22 A02 d          11.406  10.124   5.560  0.00  0.00     0.163 HD
BRANCH   8  11
ATOM     11  CBG A02 d           9.385  10.075   7.093  0.00  0.00     0.009 C 
ATOM     12  H11 A02 d           8.612   9.851   6.344  0.00  0.00     0.047 H 
ATOM     13  H12 A02 d           8.907  10.291   8.060  0.00  0.00     0.047 H 
BRANCH  11  14
ATOM     14  CAX A02 d          10.298   8.843   7.252  0.00  0.00    -0.057 C 
ATOM     15  H13 A02 d          11.082   8.876   6.480  0.00  0.00     0.033 H 
ATOM     16  H14 A02 d           9.695   7.931   7.125  0.00  0.00     0.033 H 
BRANCH  14  17
ATOM     17  CAU A02 d          10.959   8.816   8.635  0.00  0.00    -0.063 C 
ATOM     18  H15 A02 d          10.257   9.241   9.368  0.00  0.00     0.033 H 
ATOM     19  H16 A02 d          11.870   9.431   8.601  0.00  0.00     0.033 H 
BRANCH  17  20
ATOM     20  CAW A02 d          11.339   7.403   9.085  0.00  0.00    -0.050 C 
ATOM     21  H17 A02 d          10.499   6.714   8.912  0.00  0.00     0.035 H 
ATOM     22  H18 A02 d          11.596   7.406  10.156  0.00  0.00     0.035 H 
BRANCH  20  23
ATOM     23  CBD A02 d          12.551   6.967   8.259  0.00  0.00    -0.005 C 
ATOM     24  H19 A02 d          13.449   7.457   8.665  0.00  0.00     0.064 H 
ATOM     25  H20 A02 d          12.400   7.285   7.218  0.00  0.00     0.064 H 
BRANCH  23  26
ATOM     26  NBR A02 d          12.758   5.508   8.281  0.00  0.00    -0.359 N 
ATOM     27  CCC A02 d          13.196   4.793   7.244  0.00  0.00     0.249 C 
ATOM     28  OAL A02 d          13.416   5.257   6.116  0.00  0.00    -0.271 OA
ATOM     29  H21 A02 d          12.557   5.022   9.131  0.00  0.00     0.162 HD
BRANCH  27  30
ATOM     30  CCM A02 d          13.434   3.293   7.500  0.00  0.00     0.144 C 
ATOM     31  OBV A02 d          14.545   2.781   6.691  0.00  0.00    -0.346 OA
ATOM     32  CCN A02 d          15.716   2.613   7.542  0.00  0.00     0.140 C 
ATOM     33  CCL A02 d          15.354   3.314   8.866  0.00  0.00     0.105 C 
ATOM     34  H10 A02 d          15.885   1.543   7.731  0.00  0.00     0.123 H 
ATOM     35  CCK A02 d          13.856   3.086   8.954  0.00  0.00     0.098 C 
ATOM     36  H8  A02 d          15.607   4.385   8.844  0.00  0.00     0.093 H 
ATOM     37  H7  A02 d          13.363   3.789   9.642  0.00  0.00     0.091 H 
ATOM     38  H9  A02 d          12.513   2.732   7.280  0.00  0.00     0.102 H 
BRANCH  32  39
ATOM     39  N9  A02 d          16.971   3.183   6.891  0.00  0.00    -0.294 N 
ATOM     40  C4  A02 d          18.181   3.236   7.439  0.00  0.00     0.167 A 
ATOM     41  N3  A02 d          18.665   2.855   8.632  0.00  0.00    -0.222 NA
ATOM     42  C5  A02 d          19.027   3.837   6.516  0.00  0.00     0.149 A 
ATOM     43  C2  A02 d          19.946   3.033   8.926  0.00  0.00     0.091 A 
ATOM     44  N1  A02 d          20.787   3.602   8.051  0.00  0.00    -0.222 NA
ATOM     45  H1  A02 d          20.320   2.714   9.892  0.00  0.00     0.146 H 
ATOM     46  C6  A02 d          20.359   4.017   6.848  0.00  0.00     0.155 A 
ATOM     47  N7  A02 d          18.318   4.128   5.427  0.00  0.00    -0.236 NA
ATOM     48  C8  A02 d          17.068   3.714   5.662  0.00  0.00     0.071 A 
ATOM     49  H4  A02 d          16.244   3.797   4.955  0.00  0.00     0.144 H 
BRANCH  46  50
ATOM     50  N6  A02 d          21.189   4.592   5.985  0.00  0.00    -0.382 N 
ATOM     51  H2  A02 d          22.185   4.701   6.223  0.00  0.00     0.157 HD
ATOM     52  H3  A02 d          20.837   4.930   5.078  0.00  0.00     0.157 HD
ENDBRANCH  46  50
ENDBRANCH  32  39
BRANCH  33  53
ATOM     53  OAO A02 d          16.000   2.675   9.958  0.00  0.00    -0.388 OA
ATOM     54  H6  A02 d          15.666   1.790  10.047  0.00  0.00     0.210 HD
ENDBRANCH  33  53
BRANCH  35  55
ATOM     55  OAN A02 d          13.592   1.722   9.335  0.00  0.00    -0.390 OA
ATOM     56  H5  A02 d          12.755   1.675   9.782  0.00  0.00     0.210 HD
ENDBRANCH  35  55
ENDBRANCH  27  30
ENDBRANCH  23  26
ENDBRANCH  20  23
ENDBRANCH  17  20
ENDBRANCH  14  17
ENDBRANCH  11  14
ENDBRANCH   8  11
ENDBRANCH   5   7
BRANCH   5  57
ATOM     57  CBJ A02 d          12.141  12.123   3.740  0.00  0.00    -0.038 C 
ATOM     58  H24 A02 d          12.959  12.788   3.424  0.00  0.00     0.036 H 
ATOM     59  H25 A02 d          11.187  12.501   3.344  0.00  0.00     0.036 H 
BRANCH  57  60
ATOM     60  CAZ A02 d          12.393  10.741   3.129  0.00  0.00    -0.061 C 
ATOM     61  H26 A02 d          13.410  10.708   2.710  0.00  0.00     0.033 H 
ATOM     62  H27 A02 d          11.661  10.559   2.328  0.00  0.00     0.033 H 
BRANCH  60  63
ATOM     63  CAS A02 d          12.251   9.647   4.208  0.00  0.00    -0.043 C 
ATOM     64  H28 A02 d          11.247   9.712   4.655  0.00  0.00     0.035 H 
ATOM     65  H29 A02 d          13.011   9.809   4.986  0.00  0.00     0.035 H 
BRANCH  63  66
ATOM     66  CAR A02 d          12.440   8.246   3.606  0.00  0.00     0.080 C 
ATOM     67  H30 A02 d          13.498   8.105   3.337  0.00  0.00     0.075 H 
ATOM     68  H31 A02 d          11.816   8.149   2.705  0.00  0.00     0.075 H 
BRANCH  66  69
ATOM     69  NAC A02 d          12.045   7.219   4.587  0.00  0.00    -0.079 N 
ATOM     70  H32 A02 d          12.842   6.967   5.150  0.00  0.00     0.274 HD
ATOM     71  H33 A02 d          11.705   6.403   4.101  0.00  0.00     0.274 HD
ATOM     72  H34 A02 d          11.316   7.583   5.180  0.00  0.00     0.274 HD
ENDBRANCH  66  69
ENDBRANCH  63  66
ENDBRANCH  60  63
ENDBRANCH  57  60
ENDBRANCH   5  57
ENDBRANCH   1   5
BRANCH   3  73
ATOM     73  CBC A02 d          15.013  10.892   7.411  0.00  0.00    -0.005 C 
ATOM     74  H43 A02 d          15.824  10.849   6.670  0.00  0.00     0.064 H 
ATOM     75  H44 A02 d          15.179  11.744   8.087  0.00  0.00     0.064 H 
BRANCH  73  76
ATOM     76  CAV A02 d          15.006   9.595   8.228  0.00  0.00    -0.050 C 
ATOM     77  H41 A02 d          15.470   9.782   9.208  0.00  0.00     0.035 H 
ATOM     78  H42 A02 d          13.967   9.265   8.372  0.00  0.00     0.035 H 
BRANCH  76  79
ATOM     79  CAT A02 d          15.788   8.497   7.499  0.00  0.00    -0.063 C 
ATOM     80  H39 A02 d          15.141   7.616   7.384  0.00  0.00     0.033 H 
ATOM     81  H40 A02 d          16.082   8.868   6.505  0.00  0.00     0.033 H 
BRANCH  79  82
ATOM     82  CAY A02 d          17.049   8.088   8.268  0.00  0.00    -0.057 C 
ATOM     83  H37 A02 d          17.630   8.992   8.504  0.00  0.00     0.033 H 
ATOM     84  H38 A02 d          16.750   7.589   9.201  0.00  0.00     0.033 H 
BRANCH  82  85
ATOM     85  CBH A02 d          17.930   7.130   7.449  0.00  0.00     0.009 C 
ATOM     86  H35 A02 d          18.369   6.383   8.126  0.00  0.00     0.047 H 
ATOM     87  H36 A02 d          17.304   6.622   6.700  0.00  0.00     0.047 H 
BRANCH  85  88
ATOM     88  CCA A02 d          19.065   7.876   6.728  0.00  0.00     0.218 C 
ATOM     89  OAJ A02 d          20.246   7.565   6.915  0.00  0.00    -0.274 OA
ATOM     90  NBT A02 d          18.664   8.851   5.903  0.00  0.00    -0.348 N 
ATOM     91  H46 A02 d          17.683   9.022   5.809  0.00  0.00     0.163 HD
BRANCH  90  92
ATOM     92  CCJ A02 d          19.605   9.689   5.120  0.00  0.00     0.089 C 
ATOM     93  H47 A02 d          20.529   9.798   5.706  0.00  0.00     0.087 H 
BRANCH  92  94
ATOM     94  CBK A02 d          19.028  11.109   4.875  0.00  0.00    -0.036 C 
ATOM     95  H48 A02 d          19.114  11.681   5.810  0.00  0.00     0.036 H 
ATOM     96  H49 A02 d          17.967  11.007   4.603  0.00  0.00     0.036 H 
BRANCH  94  97
ATOM     97  CBB A02 d          19.735  11.901   3.761  0.00  0.00    -0.048 C 
ATOM     98  H50 A02 d          19.262  11.655   2.798  0.00  0.00     0.035 H 
ATOM     99  H51 A02 d          20.794  11.605   3.735  0.00  0.00     0.035 H 
BRANCH  97 100
ATOM    100  CBF A02 d          19.650  13.419   3.981  0.00  0.00     0.009 C 
ATOM    101  H52 A02 d          19.747  13.645   5.054  0.00  0.00     0.064 H 
ATOM    102  H53 A02 d          18.683  13.794   3.614  0.00  0.00     0.064 H 
BRANCH 100 103
ATOM    103  NBP A02 d          20.750  14.058   3.235  0.00  0.00    -0.227 N 
ATOM    104  CBX A02 d          20.586  14.744   2.096  0.00  0.00     0.665 C 
ATOM    105  NAB A02 d          19.390  14.924   1.538  0.00  0.00    -0.235 N 
ATOM    106  NAE A02 d          21.659  15.270   1.512  0.00  0.00    -0.235 N 
ATOM    107  H55 A02 d          19.306  15.458   0.660  0.00  0.00     0.174 HD
ATOM    108  H56 A02 d          18.549  14.530   1.982  0.00  0.00     0.174 HD
ATOM    109  H57 A02 d          22.590  15.139   1.932  0.00  0.00     0.174 HD
ATOM    110  H58 A02 d          21.559  15.809   0.640  0.00  0.00     0.174 HD
ATOM    111  H54 A02 d          21.704  13.971   3.613  0.00  0.00     0.177 HD
ENDBRANCH 100 103
ENDBRANCH  97 100
ENDBRANCH  94  97
ENDBRANCH  92  94
BRANCH  92 112
ATOM    112  CCD A02 d          19.967   8.995   3.784  0.00  0.00     0.241 C 
ATOM    113  OAM A02 d          21.106   9.064   3.322  0.00  0.00    -0.271 OA
ATOM    114  N   A02 d          18.966   8.339   3.191  0.00  0.00    -0.346 N 
ATOM    115  H59 A02 d          18.071   8.336   3.638  0.00  0.00     0.163 HD
BRANCH 114 116
ATOM    116  CA  A02 d          19.113   7.616   1.908  0.00  0.00     0.089 C 
ATOM    117  H60 A02 d          19.767   8.205   1.249  0.00  0.00     0.087 H 
BRANCH 116 118
ATOM    118  CB  A02 d          17.740   7.468   1.240  0.00  0.00    -0.036 C 
ATOM    119  H61 A02 d          17.797   6.674   0.480  0.00  0.00     0.036 H 
ATOM    120  H62 A02 d          17.473   8.419   0.756  0.00  0.00     0.036 H 
BRANCH 118 121
ATOM    121  CG  A02 d          16.658   7.106   2.258  0.00  0.00    -0.048 C 
ATOM    122  H63 A02 d          15.839   7.838   2.187  0.00  0.00     0.035 H 
ATOM    123  H64 A02 d          17.091   7.138   3.269  0.00  0.00     0.035 H 
BRANCH 121 124
ATOM    124  CD  A02 d          16.100   5.710   2.001  0.00  0.00     0.009 C 
ATOM    125  H65 A02 d          15.056   5.654   2.345  0.00  0.00     0.064 H 
ATOM    126  H66 A02 d          16.703   4.960   2.535  0.00  0.00     0.064 H 
BRANCH 124 127
ATOM    127  NE  A02 d          16.164   5.470   0.563  0.00  0.00    -0.227 N 
ATOM    128  CZ  A02 d          15.138   5.098  -0.200  0.00  0.00     0.665 C 
ATOM    129  NH1 A02 d          13.902   4.939   0.274  0.00  0.00    -0.235 N 
ATOM    130  NH2 A02 d          15.386   4.906  -1.488  0.00  0.00    -0.235 N 
ATOM    131  H68 A02 d          13.142   4.650  -0.358  0.00  0.00     0.174 HD
ATOM    132  H69 A02 d          13.708   5.105   1.272  0.00  0.00     0.174 HD
ATOM    133  H70 A02 d          16.341   5.029  -1.852  0.00  0.00     0.174 HD
ATOM    134  H71 A02 d          14.623   4.634  -2.125  0.00  0.00     0.174 HD
ATOM    135  H67 A02 d          17.076   5.599   0.101  0.00  0.00     0.177 HD
ENDBRANCH 124 127
ENDBRANCH 121 124
ENDBRANCH 118 121
ENDBRANCH 116 118
BRANCH 116 136
ATOM    136  C   A02 d          19.751   6.223   2.113  0.00  0.00     0.238 C 
ATOM    137  O   A02 d          20.022   5.791   3.235  0.00  0.00    -0.271 OA
ATOM    138  NAF A02 d          19.958   5.535   0.992  0.00  0.00    -0.368 N 
ATOM    139  H72 A02 d          20.368   4.623   1.033  0.00  0.00     0.159 HD
ATOM    140  H73 A02 d          19.704   5.929   0.108  0.00  0.00     0.159 HD
ENDBRANCH 116 136
ENDBRANCH 114 116
ENDBRANCH  92 112
ENDBRANCH  90  92
ENDBRANCH  85  88
ENDBRANCH  82  85
ENDBRANCH  79  82
ENDBRANCH  76  79
ENDBRANCH  73  76
ENDBRANCH   3  73
TORSDOF 36
ENDMDL
