MODEL 1
REMARK VINA RESULT:      -7.6      0.000      0.000
REMARK  0 active torsions:
REMARK  status: ('A' for Active; 'I' for Inactive)
ROOT
ATOM      1  C1  MOL d          22.965  36.339  41.481  0.00  0.00     0.096 A 
ATOM      2  C2  MOL d          24.383  36.760  41.308  0.00  0.00    -0.012 A 
ATOM      3  C3  MOL d          22.915  36.114  42.976  0.00  0.00     0.237 A 
ATOM      4  C4  MOL d          22.016  37.458  41.137  0.00  0.00    -0.021 C 
ATOM      5  C5  MOL d          22.535  35.123  40.687  0.00  0.00     0.101 C 
ATOM      6  C6  MOL d          25.023  36.814  42.511  0.00  0.00     0.042 A 
ATOM      7  C7  MOL d          25.053  37.076  40.163  0.00  0.00    -0.073 A 
ATOM      8  N1  MOL d          24.153  36.436  43.527  0.00  0.00    -0.326 N 
ATOM      9  O1  MOL d          21.868  35.870  43.567  0.00  0.00    -0.272 OA
ATOM     10  C8  MOL d          20.801  36.803  40.518  0.00  0.00     0.083 C 
ATOM     11  N2  MOL d          21.346  35.575  39.896  0.00  0.00    -0.074 N 
ATOM     12  C9  MOL d          26.333  37.210  42.626  0.00  0.00    -0.057 A 
ATOM     13  C10 MOL d          26.374  37.473  40.250  0.00  0.00    -0.082 A 
ATOM     14  C11 MOL d          27.008  37.526  41.472  0.00  0.00    -0.081 A 
ATOM     15  H1  MOL d          22.484  38.149  40.420  0.00  0.00     0.037 H 
ATOM     16  H2  MOL d          21.731  38.009  42.045  0.00  0.00     0.037 H 
ATOM     17  H3  MOL d          22.259  34.299  41.361  0.00  0.00     0.078 H 
ATOM     18  H4  MOL d          23.342  34.794  40.015  0.00  0.00     0.078 H 
ATOM     19  H5  MOL d          24.557  37.018  39.201  0.00  0.00     0.084 H 
ATOM     20  H6  MOL d          24.380  36.400  44.500  0.00  0.00     0.169 HD
ATOM     21  H7  MOL d          20.345  37.458  39.761  0.00  0.00     0.075 H 
ATOM     22  H8  MOL d          20.054  36.556  41.286  0.00  0.00     0.075 H 
ATOM     23  H9  MOL d          20.643  34.853  39.899  0.00  0.00     0.277 HD
ATOM     24  H10 MOL d          21.624  35.770  38.947  0.00  0.00     0.277 HD
ATOM     25  H11 MOL d          26.818  37.272  43.594  0.00  0.00     0.086 H 
ATOM     26  H12 MOL d          26.914  37.744  39.351  0.00  0.00     0.083 H 
ATOM     27  H13 MOL d          28.050  37.820  41.523  0.00  0.00     0.083 H 
ENDROOT
TORSDOF 0
ENDMDL
MODEL 2
REMARK VINA RESULT:      -6.9      2.377      4.726
REMARK  0 active torsions:
REMARK  status: ('A' for Active; 'I' for Inactive)
ROOT
ATOM      1  C1  MOL d          25.636  36.663  41.919  0.00  0.00     0.096 A 
ATOM      2  C2  MOL d          24.158  36.592  42.083  0.00  0.00    -0.012 A 
ATOM      3  C3  MOL d          25.741  37.311  40.555  0.00  0.00     0.237 A 
ATOM      4  C4  MOL d          26.256  37.589  42.933  0.00  0.00    -0.021 C 
ATOM      5  C5  MOL d          26.376  35.344  42.002  0.00  0.00     0.101 C 
ATOM      6  C6  MOL d          23.524  37.150  41.014  0.00  0.00     0.042 A 
ATOM      7  C7  MOL d          23.432  36.071  43.113  0.00  0.00    -0.073 A 
ATOM      8  N1  MOL d          24.461  37.596  40.087  0.00  0.00    -0.326 N 
ATOM      9  O1  MOL d          26.814  37.671  40.082  0.00  0.00    -0.272 OA
ATOM     10  C8  MOL d          27.603  36.993  43.279  0.00  0.00     0.083 C 
ATOM     11  N2  MOL d          27.405  35.541  43.073  0.00  0.00    -0.074 N 
ATOM     12  C9  MOL d          22.155  37.241  40.939  0.00  0.00    -0.057 A 
ATOM     13  C10 MOL d          22.052  36.143  43.060  0.00  0.00    -0.082 A 
ATOM     14  C11 MOL d          21.423  36.713  41.976  0.00  0.00    -0.081 A 
ATOM     15  H1  MOL d          25.624  37.650  43.831  0.00  0.00     0.037 H 
ATOM     16  H2  MOL d          26.383  38.594  42.505  0.00  0.00     0.037 H 
ATOM     17  H3  MOL d          26.858  35.109  41.042  0.00  0.00     0.078 H 
ATOM     18  H4  MOL d          25.687  34.531  42.275  0.00  0.00     0.078 H 
ATOM     19  H5  MOL d          23.928  35.607  43.958  0.00  0.00     0.084 H 
ATOM     20  H6  MOL d          24.248  38.049  39.222  0.00  0.00     0.169 HD
ATOM     21  H7  MOL d          27.871  37.208  44.323  0.00  0.00     0.075 H 
ATOM     22  H8  MOL d          28.387  37.380  42.612  0.00  0.00     0.075 H 
ATOM     23  H9  MOL d          28.274  35.117  42.789  0.00  0.00     0.277 HD
ATOM     24  H10 MOL d          27.087  35.117  43.930  0.00  0.00     0.277 HD
ATOM     25  H11 MOL d          21.669  37.712  40.092  0.00  0.00     0.086 H 
ATOM     26  H12 MOL d          21.462  35.749  43.879  0.00  0.00     0.083 H 
ATOM     27  H13 MOL d          20.341  36.746  41.939  0.00  0.00     0.083 H 
ENDROOT
TORSDOF 0
ENDMDL
MODEL 3
REMARK VINA RESULT:      -6.6      2.099      4.235
REMARK  0 active torsions:
REMARK  status: ('A' for Active; 'I' for Inactive)
ROOT
ATOM      1  C1  MOL d          25.586  36.386  41.927  0.00  0.00     0.096 A 
ATOM      2  C2  MOL d          24.138  36.675  41.729  0.00  0.00    -0.012 A 
ATOM      3  C3  MOL d          25.523  35.378  43.054  0.00  0.00     0.237 A 
ATOM      4  C4  MOL d          26.180  35.710  40.719  0.00  0.00    -0.021 C 
ATOM      5  C5  MOL d          26.461  37.579  42.251  0.00  0.00     0.101 C 
ATOM      6  C6  MOL d          23.374  35.922  42.568  0.00  0.00     0.042 A 
ATOM      7  C7  MOL d          23.547  37.544  40.859  0.00  0.00    -0.073 A 
ATOM      8  N1  MOL d          24.189  35.129  43.369  0.00  0.00    -0.326 N 
ATOM      9  O1  MOL d          26.515  34.776  43.450  0.00  0.00    -0.272 OA
ATOM     10  C8  MOL d          27.603  36.213  40.612  0.00  0.00     0.083 C 
ATOM     11  N2  MOL d          27.540  37.565  41.213  0.00  0.00    -0.074 N 
ATOM     12  C9  MOL d          22.001  35.978  42.558  0.00  0.00    -0.057 A 
ATOM     13  C10 MOL d          22.167  37.624  40.832  0.00  0.00    -0.082 A 
ATOM     14  C11 MOL d          21.405  36.855  41.683  0.00  0.00    -0.081 A 
ATOM     15  H1  MOL d          25.612  35.976  39.815  0.00  0.00     0.037 H 
ATOM     16  H2  MOL d          26.171  34.618  40.849  0.00  0.00     0.037 H 
ATOM     17  H3  MOL d          26.893  37.479  43.258  0.00  0.00     0.078 H 
ATOM     18  H4  MOL d          25.881  38.512  42.192  0.00  0.00     0.078 H 
ATOM     19  H5  MOL d          24.149  38.160  40.201  0.00  0.00     0.084 H 
ATOM     20  H6  MOL d          23.869  34.483  44.061  0.00  0.00     0.169 HD
ATOM     21  H7  MOL d          27.923  36.265  39.561  0.00  0.00     0.075 H 
ATOM     22  H8  MOL d          28.291  35.566  41.174  0.00  0.00     0.075 H 
ATOM     23  H9  MOL d          28.424  37.787  41.640  0.00  0.00     0.277 HD
ATOM     24  H10 MOL d          27.331  38.244  40.498  0.00  0.00     0.277 HD
ATOM     25  H11 MOL d          21.408  35.352  43.216  0.00  0.00     0.086 H 
ATOM     26  H12 MOL d          21.682  38.297  40.134  0.00  0.00     0.083 H 
ATOM     27  H13 MOL d          20.325  36.943  41.664  0.00  0.00     0.083 H 
ENDROOT
TORSDOF 0
ENDMDL
MODEL 4
REMARK VINA RESULT:      -6.1      1.808      2.538
REMARK  0 active torsions:
REMARK  status: ('A' for Active; 'I' for Inactive)
ROOT
ATOM      1  C1  MOL d          23.530  36.203  41.850  0.00  0.00     0.096 A 
ATOM      2  C2  MOL d          24.999  36.229  41.605  0.00  0.00    -0.012 A 
ATOM      3  C3  MOL d          23.090  37.429  41.080  0.00  0.00     0.237 A 
ATOM      4  C4  MOL d          22.892  34.992  41.219  0.00  0.00    -0.021 C 
ATOM      5  C5  MOL d          23.101  36.233  43.302  0.00  0.00     0.101 C 
ATOM      6  C6  MOL d          25.336  37.269  40.791  0.00  0.00     0.042 A 
ATOM      7  C7  MOL d          25.963  35.386  42.071  0.00  0.00    -0.073 A 
ATOM      8  N1  MOL d          24.199  37.998  40.458  0.00  0.00    -0.326 N 
ATOM      9  O1  MOL d          21.908  37.710  40.916  0.00  0.00    -0.272 OA
ATOM     10  C8  MOL d          21.764  34.583  42.141  0.00  0.00     0.083 C 
ATOM     11  N2  MOL d          22.226  35.030  43.475  0.00  0.00    -0.074 N 
ATOM     12  C9  MOL d          26.629  37.493  40.385  0.00  0.00    -0.057 A 
ATOM     13  C10 MOL d          27.274  35.591  41.683  0.00  0.00    -0.082 A 
ATOM     14  C11 MOL d          27.601  36.643  40.857  0.00  0.00    -0.081 A 
ATOM     15  H1  MOL d          23.625  34.178  41.128  0.00  0.00     0.037 H 
ATOM     16  H2  MOL d          22.497  35.243  40.223  0.00  0.00     0.037 H 
ATOM     17  H3  MOL d          22.539  37.154  43.519  0.00  0.00     0.078 H 
ATOM     18  H4  MOL d          23.976  36.172  43.965  0.00  0.00     0.078 H 
ATOM     19  H5  MOL d          25.706  34.568  42.735  0.00  0.00     0.084 H 
ATOM     20  H6  MOL d          24.181  38.803  39.865  0.00  0.00     0.169 HD
ATOM     21  H7  MOL d          21.618  33.493  42.122  0.00  0.00     0.075 H 
ATOM     22  H8  MOL d          20.826  35.084  41.862  0.00  0.00     0.075 H 
ATOM     23  H9  MOL d          21.431  35.269  44.046  0.00  0.00     0.277 HD
ATOM     24  H10 MOL d          22.749  34.292  43.918  0.00  0.00     0.277 HD
ATOM     25  H11 MOL d          26.875  38.310  39.716  0.00  0.00     0.086 H 
ATOM     26  H12 MOL d          28.049  34.919  42.031  0.00  0.00     0.083 H 
ATOM     27  H13 MOL d          28.636  36.804  40.576  0.00  0.00     0.083 H 
ENDROOT
TORSDOF 0
ENDMDL
MODEL 5
REMARK VINA RESULT:      -5.9      1.342      1.390
REMARK  0 active torsions:
REMARK  status: ('A' for Active; 'I' for Inactive)
ROOT
ATOM      1  C1  MOL d          22.673  35.965  41.738  0.00  0.00     0.096 A 
ATOM      2  C2  MOL d          24.135  35.682  41.731  0.00  0.00    -0.012 A 
ATOM      3  C3  MOL d          22.332  35.674  43.183  0.00  0.00     0.237 A 
ATOM      4  C4  MOL d          22.396  37.422  41.470  0.00  0.00    -0.021 C 
ATOM      5  C5  MOL d          21.839  35.162  40.762  0.00  0.00     0.101 C 
ATOM      6  C6  MOL d          24.567  35.334  42.976  0.00  0.00     0.042 A 
ATOM      7  C7  MOL d          25.016  35.735  40.692  0.00  0.00    -0.073 A 
ATOM      8  N1  MOL d          23.497  35.331  43.865  0.00  0.00    -0.326 N 
ATOM      9  O1  MOL d          21.224  35.905  43.654  0.00  0.00    -0.272 OA
ATOM     10  C8  MOL d          21.107  37.467  40.679  0.00  0.00     0.083 C 
ATOM     11  N2  MOL d          21.103  36.180  39.947  0.00  0.00    -0.074 N 
ATOM     12  C9  MOL d          25.886  35.057  43.243  0.00  0.00    -0.057 A 
ATOM     13  C10 MOL d          26.349  35.456  40.932  0.00  0.00    -0.082 A 
ATOM     14  C11 MOL d          26.773  35.108  42.195  0.00  0.00    -0.081 A 
ATOM     15  H1  MOL d          23.217  37.866  40.887  0.00  0.00     0.037 H 
ATOM     16  H2  MOL d          22.282  37.970  42.417  0.00  0.00     0.037 H 
ATOM     17  H3  MOL d          21.132  34.514  41.300  0.00  0.00     0.078 H 
ATOM     18  H4  MOL d          22.484  34.546  40.118  0.00  0.00     0.078 H 
ATOM     19  H5  MOL d          24.677  35.993  39.695  0.00  0.00     0.084 H 
ATOM     20  H6  MOL d          23.555  35.117  44.840  0.00  0.00     0.169 HD
ATOM     21  H7  MOL d          21.105  38.316  39.980  0.00  0.00     0.075 H 
ATOM     22  H8  MOL d          20.238  37.540  41.348  0.00  0.00     0.075 H 
ATOM     23  H9  MOL d          20.154  35.876  39.801  0.00  0.00     0.277 HD
ATOM     24  H10 MOL d          21.560  36.295  39.056  0.00  0.00     0.277 HD
ATOM     25  H11 MOL d          26.215  34.807  44.246  0.00  0.00     0.086 H 
ATOM     26  H12 MOL d          27.064  35.511  40.120  0.00  0.00     0.083 H 
ATOM     27  H13 MOL d          27.817  34.873  42.365  0.00  0.00     0.083 H 
ENDROOT
TORSDOF 0
ENDMDL
