MODEL 1
REMARK VINA RESULT:      -6.1      0.000      0.000
REMARK  11 active torsions:
REMARK  status: ('A' for Active; 'I' for Inactive)
REMARK    1  A    between atoms: C1_3  and  C2_4 
REMARK    2  A    between atoms: C2_4  and  C3_5 
REMARK    3  A    between atoms: C3_5  and  C4_6 
REMARK    4  A    between atoms: C4_6  and  C5_7 
REMARK    5  A    between atoms: C5_7  and  C6_8 
REMARK    6  A    between atoms: C6_8  and  C7_9 
REMARK    7  A    between atoms: C7_9  and  C8_10 
REMARK    8  A    between atoms: C8_10  and  C9_11 
REMARK    9  A    between atoms: C9_11  and  C10_12 
REMARK   10  A    between atoms: C10_12  and  C11_13 
REMARK   11  A    between atoms: C11_13  and  C12_14 
ROOT
ATOM      1  C7  DAO d          -1.922  13.530  18.424  0.00  0.00    -0.065 C 
ATOM      2  H11 DAO d          -1.148  12.885  17.982  0.00  0.00     0.033 H 
ATOM      3  H12 DAO d          -1.988  13.335  19.504  0.00  0.00     0.033 H 
ENDROOT
BRANCH   1   4
ATOM      4  C6  DAO d          -3.269  13.189  17.780  0.00  0.00    -0.065 C 
ATOM      5  H9  DAO d          -4.084  13.606  18.390  0.00  0.00     0.033 H 
ATOM      6  H10 DAO d          -3.312  13.619  16.769  0.00  0.00     0.033 H 
BRANCH   4   7
ATOM      7  C5  DAO d          -3.420  11.677  17.697  0.00  0.00    -0.065 C 
ATOM      8  H7  DAO d          -3.868  11.425  16.725  0.00  0.00     0.033 H 
ATOM      9  H8  DAO d          -2.421  11.224  17.769  0.00  0.00     0.033 H 
BRANCH   7  10
ATOM     10  C4  DAO d          -4.297  11.093  18.800  0.00  0.00    -0.065 C 
ATOM     11  H5  DAO d          -4.879  11.906  19.260  0.00  0.00     0.033 H 
ATOM     12  H6  DAO d          -4.984  10.358  18.356  0.00  0.00     0.033 H 
BRANCH  10  13
ATOM     13  C3  DAO d          -3.467  10.399  19.890  0.00  0.00    -0.056 C 
ATOM     14  H3  DAO d          -3.282  11.116  20.705  0.00  0.00     0.033 H 
ATOM     15  H4  DAO d          -4.038   9.543  20.279  0.00  0.00     0.033 H 
BRANCH  13  16
ATOM     16  C2  DAO d          -2.121   9.896  19.361  0.00  0.00     0.016 C 
ATOM     17  H1  DAO d          -1.876  10.453  18.445  0.00  0.00     0.049 H 
ATOM     18  H2  DAO d          -1.351  10.089  20.124  0.00  0.00     0.049 H 
BRANCH  16  19
ATOM     19  C1  DAO d          -2.115   8.406  19.037  0.00  0.00     0.172 C 
ATOM     20  O1  DAO d          -2.485   8.017  17.900  0.00  0.00    -0.648 OA
ATOM     21  O2  DAO d          -1.732   7.578  19.895  0.00  0.00    -0.648 OA
ENDBRANCH  16  19
ENDBRANCH  13  16
ENDBRANCH  10  13
ENDBRANCH   7  10
ENDBRANCH   4   7
ENDBRANCH   1   4
BRANCH   1  22
ATOM     22  C8  DAO d          -1.523  14.987  18.214  0.00  0.00    -0.065 C 
ATOM     23  H13 DAO d          -0.470  15.024  17.898  0.00  0.00     0.033 H 
ATOM     24  H14 DAO d          -1.639  15.527  19.164  0.00  0.00     0.033 H 
BRANCH  22  25
ATOM     25  C9  DAO d          -2.375  15.663  17.159  0.00  0.00    -0.065 C 
ATOM     26  H15 DAO d          -3.198  14.985  16.887  0.00  0.00     0.033 H 
ATOM     27  H16 DAO d          -1.749  15.853  16.275  0.00  0.00     0.033 H 
BRANCH  25  28
ATOM     28  C10 DAO d          -2.974  16.991  17.624  0.00  0.00    -0.065 C 
ATOM     29  H17 DAO d          -2.202  17.772  17.572  0.00  0.00     0.033 H 
ATOM     30  H18 DAO d          -3.318  16.885  18.664  0.00  0.00     0.033 H 
BRANCH  28  31
ATOM     31  C11 DAO d          -4.147  17.395  16.755  0.00  0.00    -0.069 C 
ATOM     32  H19 DAO d          -4.995  17.677  17.397  0.00  0.00     0.032 H 
ATOM     33  H20 DAO d          -4.435  16.547  16.117  0.00  0.00     0.032 H 
BRANCH  31  34
ATOM     34  C12 DAO d          -3.767  18.567  15.885  0.00  0.00    -0.077 C 
ATOM     35  H21 DAO d          -3.121  19.253  16.453  0.00  0.00     0.027 H 
ATOM     36  H22 DAO d          -4.677  19.100  15.569  0.00  0.00     0.027 H 
ATOM     37  H23 DAO d          -3.228  18.206  14.997  0.00  0.00     0.027 H 
ENDBRANCH  31  34
ENDBRANCH  28  31
ENDBRANCH  25  28
ENDBRANCH  22  25
ENDBRANCH   1  22
TORSDOF 11
ENDMDL
MODEL 2
REMARK VINA RESULT:      -5.9      3.991      7.741
REMARK  11 active torsions:
REMARK  status: ('A' for Active; 'I' for Inactive)
REMARK    1  A    between atoms: C1_3  and  C2_4 
REMARK    2  A    between atoms: C2_4  and  C3_5 
REMARK    3  A    between atoms: C3_5  and  C4_6 
REMARK    4  A    between atoms: C4_6  and  C5_7 
REMARK    5  A    between atoms: C5_7  and  C6_8 
REMARK    6  A    between atoms: C6_8  and  C7_9 
REMARK    7  A    between atoms: C7_9  and  C8_10 
REMARK    8  A    between atoms: C8_10  and  C9_11 
REMARK    9  A    between atoms: C9_11  and  C10_12 
REMARK   10  A    between atoms: C10_12  and  C11_13 
REMARK   11  A    between atoms: C11_13  and  C12_14 
ROOT
ATOM      1  C7  DAO d          -3.431  11.699  17.977  0.00  0.00    -0.065 C 
ATOM      2  H11 DAO d          -3.709  11.241  17.016  0.00  0.00     0.033 H 
ATOM      3  H12 DAO d          -4.238  11.537  18.707  0.00  0.00     0.033 H 
ENDROOT
BRANCH   1   4
ATOM      4  C6  DAO d          -3.253  13.206  17.768  0.00  0.00    -0.065 C 
ATOM      5  H9  DAO d          -3.169  13.421  16.692  0.00  0.00     0.033 H 
ATOM      6  H10 DAO d          -4.121  13.739  18.182  0.00  0.00     0.033 H 
BRANCH   4   7
ATOM      7  C5  DAO d          -1.988  13.666  18.477  0.00  0.00    -0.065 C 
ATOM      8  H7  DAO d          -2.143  13.570  19.562  0.00  0.00     0.033 H 
ATOM      9  H8  DAO d          -1.158  13.014  18.166  0.00  0.00     0.033 H 
BRANCH   7  10
ATOM     10  C4  DAO d          -1.610  15.112  18.168  0.00  0.00    -0.065 C 
ATOM     11  H5  DAO d          -1.786  15.724  19.065  0.00  0.00     0.033 H 
ATOM     12  H6  DAO d          -0.543  15.151  17.902  0.00  0.00     0.033 H 
BRANCH  10  13
ATOM     13  C3  DAO d          -2.432  15.686  17.005  0.00  0.00    -0.056 C 
ATOM     14  H3  DAO d          -1.750  15.936  16.178  0.00  0.00     0.033 H 
ATOM     15  H4  DAO d          -3.152  14.925  16.670  0.00  0.00     0.033 H 
BRANCH  13  16
ATOM     16  C2  DAO d          -3.201  16.949  17.408  0.00  0.00     0.016 C 
ATOM     17  H1  DAO d          -3.941  16.676  18.175  0.00  0.00     0.049 H 
ATOM     18  H2  DAO d          -2.487  17.673  17.829  0.00  0.00     0.049 H 
BRANCH  16  19
ATOM     19  C1  DAO d          -3.931  17.612  16.245  0.00  0.00     0.172 C 
ATOM     20  O1  DAO d          -3.647  18.795  15.927  0.00  0.00    -0.648 OA
ATOM     21  O2  DAO d          -4.798  16.975  15.604  0.00  0.00    -0.648 OA
ENDBRANCH  16  19
ENDBRANCH  13  16
ENDBRANCH  10  13
ENDBRANCH   7  10
ENDBRANCH   4   7
ENDBRANCH   1   4
BRANCH   1  22
ATOM     22  C8  DAO d          -2.164  11.023  18.492  0.00  0.00    -0.065 C 
ATOM     23  H13 DAO d          -2.353  10.640  19.504  0.00  0.00     0.033 H 
ATOM     24  H14 DAO d          -1.355  11.767  18.526  0.00  0.00     0.033 H 
BRANCH  22  25
ATOM     25  C9  DAO d          -1.733   9.873  17.605  0.00  0.00    -0.065 C 
ATOM     26  H15 DAO d          -0.638   9.780  17.661  0.00  0.00     0.033 H 
ATOM     27  H16 DAO d          -2.029  10.100  16.570  0.00  0.00     0.033 H 
BRANCH  25  28
ATOM     28  C10 DAO d          -2.355   8.534  18.005  0.00  0.00    -0.065 C 
ATOM     29  H17 DAO d          -2.024   7.759  17.298  0.00  0.00     0.033 H 
ATOM     30  H18 DAO d          -3.451   8.621  17.968  0.00  0.00     0.033 H 
BRANCH  28  31
ATOM     31  C11 DAO d          -1.938   8.135  19.406  0.00  0.00    -0.069 C 
ATOM     32  H19 DAO d          -2.830   8.079  20.048  0.00  0.00     0.032 H 
ATOM     33  H20 DAO d          -1.244   8.889  19.806  0.00  0.00     0.032 H 
BRANCH  31  34
ATOM     34  C12 DAO d          -1.255   6.790  19.381  0.00  0.00    -0.077 C 
ATOM     35  H21 DAO d          -1.615   6.212  18.517  0.00  0.00     0.027 H 
ATOM     36  H22 DAO d          -1.485   6.245  20.309  0.00  0.00     0.027 H 
ATOM     37  H23 DAO d          -0.167   6.933  19.299  0.00  0.00     0.027 H 
ENDBRANCH  31  34
ENDBRANCH  28  31
ENDBRANCH  25  28
ENDBRANCH  22  25
ENDBRANCH   1  22
TORSDOF 11
ENDMDL
MODEL 3
REMARK VINA RESULT:      -5.9      1.440      2.103
REMARK  11 active torsions:
REMARK  status: ('A' for Active; 'I' for Inactive)
REMARK    1  A    between atoms: C1_3  and  C2_4 
REMARK    2  A    between atoms: C2_4  and  C3_5 
REMARK    3  A    between atoms: C3_5  and  C4_6 
REMARK    4  A    between atoms: C4_6  and  C5_7 
REMARK    5  A    between atoms: C5_7  and  C6_8 
REMARK    6  A    between atoms: C6_8  and  C7_9 
REMARK    7  A    between atoms: C7_9  and  C8_10 
REMARK    8  A    between atoms: C8_10  and  C9_11 
REMARK    9  A    between atoms: C9_11  and  C10_12 
REMARK   10  A    between atoms: C10_12  and  C11_13 
REMARK   11  A    between atoms: C11_13  and  C12_14 
ROOT
ATOM      1  C7  DAO d          -1.779  13.257  18.474  0.00  0.00    -0.065 C 
ATOM      2  H11 DAO d          -0.999  13.536  17.750  0.00  0.00     0.033 H 
ATOM      3  H12 DAO d          -1.736  13.934  19.339  0.00  0.00     0.033 H 
ENDROOT
BRANCH   1   4
ATOM      4  C6  DAO d          -1.512  11.827  18.956  0.00  0.00    -0.065 C 
ATOM      5  H9  DAO d          -0.461  11.565  18.764  0.00  0.00     0.033 H 
ATOM      6  H10 DAO d          -1.716  11.759  20.034  0.00  0.00     0.033 H 
BRANCH   4   7
ATOM      7  C5  DAO d          -2.420  10.865  18.205  0.00  0.00    -0.065 C 
ATOM      8  H7  DAO d          -3.025  10.313  18.939  0.00  0.00     0.033 H 
ATOM      9  H8  DAO d          -3.082  11.450  17.550  0.00  0.00     0.033 H 
BRANCH   7  10
ATOM     10  C4  DAO d          -1.660   9.856  17.348  0.00  0.00    -0.065 C 
ATOM     11  H5  DAO d          -1.963   9.982  16.298  0.00  0.00     0.033 H 
ATOM     12  H6  DAO d          -0.582  10.050  17.444  0.00  0.00     0.033 H 
BRANCH  10  13
ATOM     13  C3  DAO d          -1.944   8.408  17.775  0.00  0.00    -0.056 C 
ATOM     14  H3  DAO d          -2.784   8.021  17.179  0.00  0.00     0.033 H 
ATOM     15  H4  DAO d          -1.047   7.800  17.583  0.00  0.00     0.033 H 
BRANCH  13  16
ATOM     16  C2  DAO d          -2.302   8.302  19.261  0.00  0.00     0.016 C 
ATOM     17  H1  DAO d          -1.837   9.144  19.793  0.00  0.00     0.049 H 
ATOM     18  H2  DAO d          -3.396   8.365  19.361  0.00  0.00     0.049 H 
BRANCH  16  19
ATOM     19  C1  DAO d          -1.833   7.003  19.907  0.00  0.00     0.172 C 
ATOM     20  O1  DAO d          -2.560   6.437  20.763  0.00  0.00    -0.648 OA
ATOM     21  O2  DAO d          -0.736   6.499  19.576  0.00  0.00    -0.648 OA
ENDBRANCH  16  19
ENDBRANCH  13  16
ENDBRANCH  10  13
ENDBRANCH   7  10
ENDBRANCH   4   7
ENDBRANCH   1   4
BRANCH   1  22
ATOM     22  C8  DAO d          -3.142  13.405  17.804  0.00  0.00    -0.065 C 
ATOM     23  H13 DAO d          -3.926  13.247  18.558  0.00  0.00     0.033 H 
ATOM     24  H14 DAO d          -3.234  12.646  17.014  0.00  0.00     0.033 H 
BRANCH  22  25
ATOM     25  C9  DAO d          -3.326  14.777  17.187  0.00  0.00    -0.065 C 
ATOM     26  H15 DAO d          -4.386  15.059  17.273  0.00  0.00     0.033 H 
ATOM     27  H16 DAO d          -3.046  14.722  16.125  0.00  0.00     0.033 H 
BRANCH  25  28
ATOM     28  C10 DAO d          -2.479  15.861  17.857  0.00  0.00    -0.065 C 
ATOM     29  H17 DAO d          -1.445  15.786  17.491  0.00  0.00     0.033 H 
ATOM     30  H18 DAO d          -2.495  15.707  18.946  0.00  0.00     0.033 H 
BRANCH  28  31
ATOM     31  C11 DAO d          -3.016  17.242  17.546  0.00  0.00    -0.069 C 
ATOM     32  H19 DAO d          -2.321  17.758  16.866  0.00  0.00     0.032 H 
ATOM     33  H20 DAO d          -3.108  17.815  18.480  0.00  0.00     0.032 H 
BRANCH  31  34
ATOM     34  C12 DAO d          -4.370  17.137  16.890  0.00  0.00    -0.077 C 
ATOM     35  H21 DAO d          -4.318  17.552  15.872  0.00  0.00     0.027 H 
ATOM     36  H22 DAO d          -5.108  17.703  17.478  0.00  0.00     0.027 H 
ATOM     37  H23 DAO d          -4.673  16.081  16.840  0.00  0.00     0.027 H 
ENDBRANCH  31  34
ENDBRANCH  28  31
ENDBRANCH  25  28
ENDBRANCH  22  25
ENDBRANCH   1  22
TORSDOF 11
ENDMDL
MODEL 4
REMARK VINA RESULT:      -5.4      1.951      2.901
REMARK  11 active torsions:
REMARK  status: ('A' for Active; 'I' for Inactive)
REMARK    1  A    between atoms: C1_3  and  C2_4 
REMARK    2  A    between atoms: C2_4  and  C3_5 
REMARK    3  A    between atoms: C3_5  and  C4_6 
REMARK    4  A    between atoms: C4_6  and  C5_7 
REMARK    5  A    between atoms: C5_7  and  C6_8 
REMARK    6  A    between atoms: C6_8  and  C7_9 
REMARK    7  A    between atoms: C7_9  and  C8_10 
REMARK    8  A    between atoms: C8_10  and  C9_11 
REMARK    9  A    between atoms: C9_11  and  C10_12 
REMARK   10  A    between atoms: C10_12  and  C11_13 
REMARK   11  A    between atoms: C11_13  and  C12_14 
ROOT
ATOM      1  C7  DAO d          -3.264  12.078  18.041  0.00  0.00    -0.065 C 
ATOM      2  H11 DAO d          -3.959  12.005  18.890  0.00  0.00     0.033 H 
ATOM      3  H12 DAO d          -3.833  12.245  17.114  0.00  0.00     0.033 H 
ENDROOT
BRANCH   1   4
ATOM      4  C6  DAO d          -2.501  10.756  17.916  0.00  0.00    -0.065 C 
ATOM      5  H9  DAO d          -2.590  10.375  16.888  0.00  0.00     0.033 H 
ATOM      6  H10 DAO d          -1.440  10.920  18.156  0.00  0.00     0.033 H 
BRANCH   4   7
ATOM      7  C5  DAO d          -3.090   9.742  18.886  0.00  0.00    -0.065 C 
ATOM      8  H7  DAO d          -3.175  10.216  19.875  0.00  0.00     0.033 H 
ATOM      9  H8  DAO d          -4.090   9.458  18.528  0.00  0.00     0.033 H 
BRANCH   7  10
ATOM     10  C4  DAO d          -2.248   8.477  19.027  0.00  0.00    -0.065 C 
ATOM     11  H5  DAO d          -1.344   8.715  19.608  0.00  0.00     0.033 H 
ATOM     12  H6  DAO d          -2.837   7.717  19.561  0.00  0.00     0.033 H 
BRANCH  10  13
ATOM     13  C3  DAO d          -1.826   7.910  17.664  0.00  0.00    -0.056 C 
ATOM     14  H3  DAO d          -1.892   8.711  16.912  0.00  0.00     0.033 H 
ATOM     15  H4  DAO d          -0.787   7.557  17.733  0.00  0.00     0.033 H 
BRANCH  13  16
ATOM     16  C2  DAO d          -2.715   6.744  17.221  0.00  0.00     0.016 C 
ATOM     17  H1  DAO d          -3.483   6.578  17.992  0.00  0.00     0.049 H 
ATOM     18  H2  DAO d          -3.202   7.016  16.273  0.00  0.00     0.049 H 
BRANCH  16  19
ATOM     19  C1  DAO d          -1.949   5.441  17.014  0.00  0.00     0.172 C 
ATOM     20  O1  DAO d          -1.105   5.076  17.871  0.00  0.00    -0.648 OA
ATOM     21  O2  DAO d          -2.170   4.737  16.003  0.00  0.00    -0.648 OA
ENDBRANCH  16  19
ENDBRANCH  13  16
ENDBRANCH  10  13
ENDBRANCH   7  10
ENDBRANCH   4   7
ENDBRANCH   1   4
BRANCH   1  22
ATOM     22  C8  DAO d          -2.339  13.270  18.268  0.00  0.00    -0.065 C 
ATOM     23  H13 DAO d          -1.382  13.077  17.764  0.00  0.00     0.033 H 
ATOM     24  H14 DAO d          -2.168  13.386  19.348  0.00  0.00     0.033 H 
BRANCH  22  25
ATOM     25  C9  DAO d          -2.927  14.557  17.725  0.00  0.00    -0.065 C 
ATOM     26  H15 DAO d          -3.924  14.700  18.169  0.00  0.00     0.033 H 
ATOM     27  H16 DAO d          -3.021  14.465  16.634  0.00  0.00     0.033 H 
BRANCH  25  28
ATOM     28  C10 DAO d          -2.077  15.790  18.037  0.00  0.00    -0.065 C 
ATOM     29  H17 DAO d          -1.171  15.769  17.413  0.00  0.00     0.033 H 
ATOM     30  H18 DAO d          -1.790  15.770  19.099  0.00  0.00     0.033 H 
BRANCH  28  31
ATOM     31  C11 DAO d          -2.842  17.066  17.755  0.00  0.00    -0.069 C 
ATOM     32  H19 DAO d          -2.207  17.750  17.172  0.00  0.00     0.032 H 
ATOM     33  H20 DAO d          -3.117  17.543  18.707  0.00  0.00     0.032 H 
BRANCH  31  34
ATOM     34  C12 DAO d          -4.094  16.758  16.972  0.00  0.00    -0.077 C 
ATOM     35  H21 DAO d          -4.820  17.574  17.104  0.00  0.00     0.027 H 
ATOM     36  H22 DAO d          -4.532  15.816  17.335  0.00  0.00     0.027 H 
ATOM     37  H23 DAO d          -3.844  16.659  15.905  0.00  0.00     0.027 H 
ENDBRANCH  31  34
ENDBRANCH  28  31
ENDBRANCH  25  28
ENDBRANCH  22  25
ENDBRANCH   1  22
TORSDOF 11
ENDMDL
MODEL 5
REMARK VINA RESULT:      -5.2      3.870      7.941
REMARK  11 active torsions:
REMARK  status: ('A' for Active; 'I' for Inactive)
REMARK    1  A    between atoms: C1_3  and  C2_4 
REMARK    2  A    between atoms: C2_4  and  C3_5 
REMARK    3  A    between atoms: C3_5  and  C4_6 
REMARK    4  A    between atoms: C4_6  and  C5_7 
REMARK    5  A    between atoms: C5_7  and  C6_8 
REMARK    6  A    between atoms: C6_8  and  C7_9 
REMARK    7  A    between atoms: C7_9  and  C8_10 
REMARK    8  A    between atoms: C8_10  and  C9_11 
REMARK    9  A    between atoms: C9_11  and  C10_12 
REMARK   10  A    between atoms: C10_12  and  C11_13 
REMARK   11  A    between atoms: C11_13  and  C12_14 
ROOT
ATOM      1  C7  DAO d          -3.068   9.899  18.548  0.00  0.00    -0.065 C 
ATOM      2  H11 DAO d          -2.642  10.028  17.543  0.00  0.00     0.033 H 
ATOM      3  H12 DAO d          -4.098   9.521  18.465  0.00  0.00     0.033 H 
ENDROOT
BRANCH   1   4
ATOM      4  C6  DAO d          -3.100  11.262  19.246  0.00  0.00    -0.065 C 
ATOM      5  H9  DAO d          -4.067  11.392  19.754  0.00  0.00     0.033 H 
ATOM      6  H10 DAO d          -2.288  11.315  19.986  0.00  0.00     0.033 H 
BRANCH   4   7
ATOM      7  C5  DAO d          -2.918  12.362  18.212  0.00  0.00    -0.065 C 
ATOM      8  H7  DAO d          -2.658  11.895  17.250  0.00  0.00     0.033 H 
ATOM      9  H8  DAO d          -3.868  12.906  18.110  0.00  0.00     0.033 H 
BRANCH   7  10
ATOM     10  C4  DAO d          -1.824  13.362  18.575  0.00  0.00    -0.065 C 
ATOM     11  H5  DAO d          -1.916  13.618  19.641  0.00  0.00     0.033 H 
ATOM     12  H6  DAO d          -0.843  12.897  18.394  0.00  0.00     0.033 H 
BRANCH  10  13
ATOM     13  C3  DAO d          -1.922  14.651  17.745  0.00  0.00    -0.056 C 
ATOM     14  H3  DAO d          -1.457  15.472  18.311  0.00  0.00     0.033 H 
ATOM     15  H4  DAO d          -1.380  14.505  16.799  0.00  0.00     0.033 H 
BRANCH  13  16
ATOM     16  C2  DAO d          -3.373  15.027  17.430  0.00  0.00     0.016 C 
ATOM     17  H1  DAO d          -3.642  14.594  16.455  0.00  0.00     0.049 H 
ATOM     18  H2  DAO d          -4.022  14.603  18.211  0.00  0.00     0.049 H 
BRANCH  16  19
ATOM     19  C1  DAO d          -3.610  16.533  17.371  0.00  0.00     0.172 C 
ATOM     20  O1  DAO d          -2.755  17.315  17.860  0.00  0.00    -0.648 OA
ATOM     21  O2  DAO d          -4.643  16.984  16.828  0.00  0.00    -0.648 OA
ENDBRANCH  16  19
ENDBRANCH  13  16
ENDBRANCH  10  13
ENDBRANCH   7  10
ENDBRANCH   4   7
ENDBRANCH   1   4
BRANCH   1  22
ATOM     22  C8  DAO d          -2.231   8.872  19.305  0.00  0.00    -0.065 C 
ATOM     23  H13 DAO d          -2.843   8.440  20.110  0.00  0.00     0.033 H 
ATOM     24  H14 DAO d          -1.357   9.377  19.739  0.00  0.00     0.033 H 
BRANCH  22  25
ATOM     25  C9  DAO d          -1.751   7.754  18.402  0.00  0.00    -0.065 C 
ATOM     26  H15 DAO d          -1.223   7.010  19.017  0.00  0.00     0.033 H 
ATOM     27  H16 DAO d          -1.057   8.177  17.661  0.00  0.00     0.033 H 
BRANCH  25  28
ATOM     28  C10 DAO d          -2.886   7.048  17.656  0.00  0.00    -0.065 C 
ATOM     29  H17 DAO d          -3.372   7.766  16.980  0.00  0.00     0.033 H 
ATOM     30  H18 DAO d          -3.619   6.677  18.386  0.00  0.00     0.033 H 
BRANCH  28  31
ATOM     31  C11 DAO d          -2.362   5.881  16.845  0.00  0.00    -0.069 C 
ATOM     32  H19 DAO d          -1.832   6.262  15.960  0.00  0.00     0.032 H 
ATOM     33  H20 DAO d          -3.207   5.253  16.525  0.00  0.00     0.032 H 
BRANCH  31  34
ATOM     34  C12 DAO d          -1.413   5.055  17.678  0.00  0.00    -0.077 C 
ATOM     35  H21 DAO d          -1.571   3.987  17.464  0.00  0.00     0.027 H 
ATOM     36  H22 DAO d          -1.600   5.245  18.746  0.00  0.00     0.027 H 
ATOM     37  H23 DAO d          -0.377   5.328  17.433  0.00  0.00     0.027 H 
ENDBRANCH  31  34
ENDBRANCH  28  31
ENDBRANCH  25  28
ENDBRANCH  22  25
ENDBRANCH   1  22
TORSDOF 11
ENDMDL
MODEL 6
REMARK VINA RESULT:      -4.9      2.108      3.572
REMARK  11 active torsions:
REMARK  status: ('A' for Active; 'I' for Inactive)
REMARK    1  A    between atoms: C1_3  and  C2_4 
REMARK    2  A    between atoms: C2_4  and  C3_5 
REMARK    3  A    between atoms: C3_5  and  C4_6 
REMARK    4  A    between atoms: C4_6  and  C5_7 
REMARK    5  A    between atoms: C5_7  and  C6_8 
REMARK    6  A    between atoms: C6_8  and  C7_9 
REMARK    7  A    between atoms: C7_9  and  C8_10 
REMARK    8  A    between atoms: C8_10  and  C9_11 
REMARK    9  A    between atoms: C9_11  and  C10_12 
REMARK   10  A    between atoms: C10_12  and  C11_13 
REMARK   11  A    between atoms: C11_13  and  C12_14 
ROOT
ATOM      1  C7  DAO d          -2.140  10.964  17.945  0.00  0.00    -0.065 C 
ATOM      2  H11 DAO d          -2.948  10.996  17.200  0.00  0.00     0.033 H 
ATOM      3  H12 DAO d          -1.175  11.137  17.447  0.00  0.00     0.033 H 
ENDROOT
BRANCH   1   4
ATOM      4  C6  DAO d          -2.118   9.573  18.587  0.00  0.00    -0.065 C 
ATOM      5  H9  DAO d          -1.312   9.525  19.333  0.00  0.00     0.033 H 
ATOM      6  H10 DAO d          -3.084   9.380  19.077  0.00  0.00     0.033 H 
BRANCH   4   7
ATOM      7  C5  DAO d          -1.877   8.526  17.510  0.00  0.00    -0.065 C 
ATOM      8  H7  DAO d          -2.060   8.987  16.529  0.00  0.00     0.033 H 
ATOM      9  H8  DAO d          -0.830   8.197  17.572  0.00  0.00     0.033 H 
BRANCH   7  10
ATOM     10  C4  DAO d          -2.777   7.300  17.643  0.00  0.00    -0.065 C 
ATOM     11  H5  DAO d          -3.046   7.170  18.702  0.00  0.00     0.033 H 
ATOM     12  H6  DAO d          -3.689   7.463  17.051  0.00  0.00     0.033 H 
BRANCH  10  13
ATOM     13  C3  DAO d          -2.086   6.021  17.147  0.00  0.00    -0.056 C 
ATOM     14  H3  DAO d          -2.487   5.764  16.155  0.00  0.00     0.033 H 
ATOM     15  H4  DAO d          -1.005   6.211  17.068  0.00  0.00     0.033 H 
BRANCH  13  16
ATOM     16  C2  DAO d          -2.312   4.837  18.092  0.00  0.00     0.016 C 
ATOM     17  H1  DAO d          -3.391   4.626  18.135  0.00  0.00     0.049 H 
ATOM     18  H2  DAO d          -1.784   3.961  17.686  0.00  0.00     0.049 H 
BRANCH  16  19
ATOM     19  C1  DAO d          -1.811   5.088  19.510  0.00  0.00     0.172 C 
ATOM     20  O1  DAO d          -2.593   4.928  20.482  0.00  0.00    -0.648 OA
ATOM     21  O2  DAO d          -0.625   5.439  19.704  0.00  0.00    -0.648 OA
ENDBRANCH  16  19
ENDBRANCH  13  16
ENDBRANCH  10  13
ENDBRANCH   7  10
ENDBRANCH   4   7
ENDBRANCH   1   4
BRANCH   1  22
ATOM     22  C8  DAO d          -2.370  12.076  18.963  0.00  0.00    -0.065 C 
ATOM     23  H13 DAO d          -1.900  11.789  19.915  0.00  0.00     0.033 H 
ATOM     24  H14 DAO d          -3.452  12.202  19.113  0.00  0.00     0.033 H 
BRANCH  22  25
ATOM     25  C9  DAO d          -1.783  13.396  18.506  0.00  0.00    -0.065 C 
ATOM     26  H15 DAO d          -0.996  13.190  17.765  0.00  0.00     0.033 H 
ATOM     27  H16 DAO d          -1.343  13.903  19.377  0.00  0.00     0.033 H 
BRANCH  25  28
ATOM     28  C10 DAO d          -2.815  14.330  17.870  0.00  0.00    -0.065 C 
ATOM     29  H17 DAO d          -3.760  14.253  18.427  0.00  0.00     0.033 H 
ATOM     30  H18 DAO d          -2.979  14.027  16.826  0.00  0.00     0.033 H 
BRANCH  28  31
ATOM     31  C11 DAO d          -2.339  15.768  17.898  0.00  0.00    -0.069 C 
ATOM     32  H19 DAO d          -1.396  15.850  17.337  0.00  0.00     0.032 H 
ATOM     33  H20 DAO d          -2.174  16.076  18.940  0.00  0.00     0.032 H 
BRANCH  31  34
ATOM     34  C12 DAO d          -3.374  16.668  17.269  0.00  0.00    -0.077 C 
ATOM     35  H21 DAO d          -4.281  16.676  17.892  0.00  0.00     0.027 H 
ATOM     36  H22 DAO d          -3.624  16.295  16.264  0.00  0.00     0.027 H 
ATOM     37  H23 DAO d          -2.973  17.689  17.192  0.00  0.00     0.027 H 
ENDBRANCH  31  34
ENDBRANCH  28  31
ENDBRANCH  25  28
ENDBRANCH  22  25
ENDBRANCH   1  22
TORSDOF 11
ENDMDL
MODEL 7
REMARK VINA RESULT:      -4.6      3.557      7.933
REMARK  11 active torsions:
REMARK  status: ('A' for Active; 'I' for Inactive)
REMARK    1  A    between atoms: C1_3  and  C2_4 
REMARK    2  A    between atoms: C2_4  and  C3_5 
REMARK    3  A    between atoms: C3_5  and  C4_6 
REMARK    4  A    between atoms: C4_6  and  C5_7 
REMARK    5  A    between atoms: C5_7  and  C6_8 
REMARK    6  A    between atoms: C6_8  and  C7_9 
REMARK    7  A    between atoms: C7_9  and  C8_10 
REMARK    8  A    between atoms: C8_10  and  C9_11 
REMARK    9  A    between atoms: C9_11  and  C10_12 
REMARK   10  A    between atoms: C10_12  and  C11_13 
REMARK   11  A    between atoms: C11_13  and  C12_14 
ROOT
ATOM      1  C7  DAO d          -3.162   8.115  19.833  0.00  0.00    -0.065 C 
ATOM      2  H11 DAO d          -3.628   7.996  18.844  0.00  0.00     0.033 H 
ATOM      3  H12 DAO d          -3.658   7.451  20.555  0.00  0.00     0.033 H 
ENDROOT
BRANCH   1   4
ATOM      4  C6  DAO d          -3.347   9.565  20.291  0.00  0.00    -0.065 C 
ATOM      5  H9  DAO d          -4.285   9.654  20.859  0.00  0.00     0.033 H 
ATOM      6  H10 DAO d          -2.503   9.859  20.931  0.00  0.00     0.033 H 
BRANCH   4   7
ATOM      7  C5  DAO d          -3.402  10.475  19.074  0.00  0.00    -0.065 C 
ATOM      8  H7  DAO d          -3.095   9.894  18.192  0.00  0.00     0.033 H 
ATOM      9  H8  DAO d          -4.438  10.820  18.943  0.00  0.00     0.033 H 
BRANCH   7  10
ATOM     10  C4  DAO d          -2.496  11.698  19.187  0.00  0.00    -0.065 C 
ATOM     11  H5  DAO d          -2.629  12.146  20.183  0.00  0.00     0.033 H 
ATOM     12  H6  DAO d          -1.451  11.378  19.066  0.00  0.00     0.033 H 
BRANCH  10  13
ATOM     13  C3  DAO d          -2.818  12.755  18.121  0.00  0.00    -0.056 C 
ATOM     14  H3  DAO d          -2.733  12.291  17.126  0.00  0.00     0.033 H 
ATOM     15  H4  DAO d          -3.848  13.110  18.273  0.00  0.00     0.033 H 
BRANCH  13  16
ATOM     16  C2  DAO d          -1.867  13.954  18.189  0.00  0.00     0.016 C 
ATOM     17  H1  DAO d          -1.408  13.978  19.188  0.00  0.00     0.049 H 
ATOM     18  H2  DAO d          -1.083  13.822  17.429  0.00  0.00     0.049 H 
BRANCH  16  19
ATOM     19  C1  DAO d          -2.559  15.291  17.943  0.00  0.00     0.172 C 
ATOM     20  O1  DAO d          -3.755  15.308  17.555  0.00  0.00    -0.648 OA
ATOM     21  O2  DAO d          -1.942  16.362  18.138  0.00  0.00    -0.648 OA
ENDBRANCH  16  19
ENDBRANCH  13  16
ENDBRANCH  10  13
ENDBRANCH   7  10
ENDBRANCH   4   7
ENDBRANCH   1   4
BRANCH   1  22
ATOM     22  C8  DAO d          -1.693   7.715  19.731  0.00  0.00    -0.065 C 
ATOM     23  H13 DAO d          -1.478   6.958  20.499  0.00  0.00     0.033 H 
ATOM     24  H14 DAO d          -1.070   8.604  19.908  0.00  0.00     0.033 H 
BRANCH  22  25
ATOM     25  C9  DAO d          -1.353   7.143  18.370  0.00  0.00    -0.065 C 
ATOM     26  H15 DAO d          -0.696   7.853  17.847  0.00  0.00     0.033 H 
ATOM     27  H16 DAO d          -2.286   7.018  17.801  0.00  0.00     0.033 H 
BRANCH  25  28
ATOM     28  C10 DAO d          -0.644   5.789  18.443  0.00  0.00    -0.065 C 
ATOM     29  H17 DAO d          -0.471   5.531  19.497  0.00  0.00     0.033 H 
ATOM     30  H18 DAO d           0.321   5.860  17.919  0.00  0.00     0.033 H 
BRANCH  28  31
ATOM     31  C11 DAO d          -1.477   4.702  17.797  0.00  0.00    -0.069 C 
ATOM     32  H19 DAO d          -2.158   4.272  18.547  0.00  0.00     0.032 H 
ATOM     33  H20 DAO d          -0.812   3.915  17.411  0.00  0.00     0.032 H 
BRANCH  31  34
ATOM     34  C12 DAO d          -2.285   5.274  16.659  0.00  0.00    -0.077 C 
ATOM     35  H21 DAO d          -2.293   6.372  16.730  0.00  0.00     0.027 H 
ATOM     36  H22 DAO d          -3.317   4.897  16.715  0.00  0.00     0.027 H 
ATOM     37  H23 DAO d          -1.836   4.972  15.701  0.00  0.00     0.027 H 
ENDBRANCH  31  34
ENDBRANCH  28  31
ENDBRANCH  25  28
ENDBRANCH  22  25
ENDBRANCH   1  22
TORSDOF 11
ENDMDL
MODEL 8
REMARK VINA RESULT:      -4.5      2.354      4.379
REMARK  11 active torsions:
REMARK  status: ('A' for Active; 'I' for Inactive)
REMARK    1  A    between atoms: C1_3  and  C2_4 
REMARK    2  A    between atoms: C2_4  and  C3_5 
REMARK    3  A    between atoms: C3_5  and  C4_6 
REMARK    4  A    between atoms: C4_6  and  C5_7 
REMARK    5  A    between atoms: C5_7  and  C6_8 
REMARK    6  A    between atoms: C6_8  and  C7_9 
REMARK    7  A    between atoms: C7_9  and  C8_10 
REMARK    8  A    between atoms: C8_10  and  C9_11 
REMARK    9  A    between atoms: C9_11  and  C10_12 
REMARK   10  A    between atoms: C10_12  and  C11_13 
REMARK   11  A    between atoms: C11_13  and  C12_14 
ROOT
ATOM      1  C7  DAO d          -3.198   9.912  18.463  0.00  0.00    -0.065 C 
ATOM      2  H11 DAO d          -3.834   9.484  17.674  0.00  0.00     0.033 H 
ATOM      3  H12 DAO d          -2.194  10.109  18.060  0.00  0.00     0.033 H 
ENDROOT
BRANCH   1   4
ATOM      4  C6  DAO d          -3.079   8.893  19.602  0.00  0.00    -0.065 C 
ATOM      5  H9  DAO d          -3.106   9.418  20.568  0.00  0.00     0.033 H 
ATOM      6  H10 DAO d          -3.916   8.182  19.547  0.00  0.00     0.033 H 
BRANCH   4   7
ATOM      7  C5  DAO d          -1.764   8.141  19.469  0.00  0.00    -0.065 C 
ATOM      8  H7  DAO d          -0.946   8.875  19.428  0.00  0.00     0.033 H 
ATOM      9  H8  DAO d          -1.638   7.500  20.353  0.00  0.00     0.033 H 
BRANCH   7  10
ATOM     10  C4  DAO d          -1.689   7.265  18.221  0.00  0.00    -0.065 C 
ATOM     11  H5  DAO d          -2.708   6.954  17.945  0.00  0.00     0.033 H 
ATOM     12  H6  DAO d          -1.250   7.851  17.401  0.00  0.00     0.033 H 
BRANCH  10  13
ATOM     13  C3  DAO d          -0.833   6.011  18.449  0.00  0.00    -0.056 C 
ATOM     14  H3  DAO d          -0.044   5.976  17.682  0.00  0.00     0.033 H 
ATOM     15  H4  DAO d          -0.371   6.072  19.446  0.00  0.00     0.033 H 
BRANCH  13  16
ATOM     16  C2  DAO d          -1.658   4.722  18.366  0.00  0.00     0.016 C 
ATOM     17  H1  DAO d          -0.967   3.866  18.350  0.00  0.00     0.049 H 
ATOM     18  H2  DAO d          -2.297   4.660  19.260  0.00  0.00     0.049 H 
BRANCH  16  19
ATOM     19  C1  DAO d          -2.547   4.650  17.129  0.00  0.00     0.172 C 
ATOM     20  O1  DAO d          -3.796   4.728  17.258  0.00  0.00    -0.648 OA
ATOM     21  O2  DAO d          -2.034   4.527  15.994  0.00  0.00    -0.648 OA
ENDBRANCH  16  19
ENDBRANCH  13  16
ENDBRANCH  10  13
ENDBRANCH   7  10
ENDBRANCH   4   7
ENDBRANCH   1   4
BRANCH   1  22
ATOM     22  C8  DAO d          -3.809  11.233  18.919  0.00  0.00    -0.065 C 
ATOM     23  H13 DAO d          -3.364  11.515  19.884  0.00  0.00     0.033 H 
ATOM     24  H14 DAO d          -4.894  11.099  19.041  0.00  0.00     0.033 H 
BRANCH  22  25
ATOM     25  C9  DAO d          -3.563  12.347  17.923  0.00  0.00    -0.065 C 
ATOM     26  H15 DAO d          -4.448  13.001  17.903  0.00  0.00     0.033 H 
ATOM     27  H16 DAO d          -3.415  11.900  16.929  0.00  0.00     0.033 H 
BRANCH  25  28
ATOM     28  C10 DAO d          -2.338  13.200  18.258  0.00  0.00    -0.065 C 
ATOM     29  H17 DAO d          -1.440  12.716  17.847  0.00  0.00     0.033 H 
ATOM     30  H18 DAO d          -2.244  13.280  19.351  0.00  0.00     0.033 H 
BRANCH  28  31
ATOM     31  C11 DAO d          -2.463  14.590  17.670  0.00  0.00    -0.069 C 
ATOM     32  H19 DAO d          -3.494  14.950  17.805  0.00  0.00     0.032 H 
ATOM     33  H20 DAO d          -2.225  14.554  16.597  0.00  0.00     0.032 H 
BRANCH  31  34
ATOM     34  C12 DAO d          -1.511  15.534  18.362  0.00  0.00    -0.077 C 
ATOM     35  H21 DAO d          -2.065  16.408  18.734  0.00  0.00     0.027 H 
ATOM     36  H22 DAO d          -0.740  15.865  17.649  0.00  0.00     0.027 H 
ATOM     37  H23 DAO d          -1.031  15.017  19.206  0.00  0.00     0.027 H 
ENDBRANCH  31  34
ENDBRANCH  28  31
ENDBRANCH  25  28
ENDBRANCH  22  25
ENDBRANCH   1  22
TORSDOF 11
ENDMDL
