MODEL 1
REMARK VINA RESULT:      -8.4      0.000      0.000
REMARK  4 active torsions:
REMARK  status: ('A' for Active; 'I' for Inactive)
REMARK    1  A    between atoms: S5_2  and  N21_4 
REMARK    2  A    between atoms: S5_2  and  C5_12 
REMARK    3  A    between atoms: C22_5  and  C2M_6 
REMARK    4  A    between atoms: C4_14  and  CM_15 
ROOT
ATOM      1  N21 H52 d          10.173   9.416   3.674  0.00  0.00    -0.301 N 
ATOM      2  C22 H52 d          10.502   7.945   3.888  0.00  0.00     0.042 C 
ATOM      3  C23 H52 d          11.960   7.530   3.656  0.00  0.00     0.100 C 
ATOM      4  N24 H52 d          12.811   8.192   4.721  0.00  0.00    -0.073 N 
ATOM      5  C25 H52 d          13.358   9.500   4.172  0.00  0.00     0.083 C 
ATOM      6  C26 H52 d          12.314  10.629   4.109  0.00  0.00    -0.027 C 
ATOM      7  C27 H52 d          11.213  10.312   3.105  0.00  0.00     0.007 C 
ATOM      8  H1  H52 d          10.313   7.770   4.958  0.00  0.00     0.075 H 
ATOM      9  H5  H52 d          12.287   7.859   2.658  0.00  0.00     0.078 H 
ATOM     10  H6  H52 d          12.052   6.436   3.730  0.00  0.00     0.078 H 
ATOM     11  H7  H52 d          13.575   7.583   4.969  0.00  0.00     0.277 HD
ATOM     12  H8  H52 d          12.249   8.376   5.537  0.00  0.00     0.277 HD
ATOM     13  H9  H52 d          13.736   9.318   3.155  0.00  0.00     0.075 H 
ATOM     14  H10 H52 d          14.186   9.828   4.817  0.00  0.00     0.075 H 
ATOM     15  H11 H52 d          12.814  11.563   3.809  0.00  0.00     0.037 H 
ATOM     16  H12 H52 d          11.864  10.757   5.105  0.00  0.00     0.037 H 
ATOM     17  H13 H52 d          10.737  11.254   2.793  0.00  0.00     0.065 H 
ATOM     18  H14 H52 d          11.664   9.821   2.229  0.00  0.00     0.065 H 
ENDROOT
BRANCH   1  19
ATOM     19  S5  H52 d           8.785  10.012   4.482  0.00  0.00     0.262 S 
ATOM     20  O1  H52 d           8.918  11.409   4.975  0.00  0.00    -0.200 OA
ATOM     21  O2  H52 d           8.469   8.970   5.467  0.00  0.00    -0.200 OA
BRANCH  19  22
ATOM     22  C5  H52 d           7.443   9.942   3.309  0.00  0.00     0.091 A 
ATOM     23  C10 H52 d           6.004   9.954   3.619  0.00  0.00     0.006 A 
ATOM     24  C4  H52 d           5.312  10.095   4.890  0.00  0.00    -0.032 A 
ATOM     25  C9  H52 d           5.117   9.796   2.512  0.00  0.00    -0.006 A 
ATOM     26  C3  H52 d           3.938  10.046   4.979  0.00  0.00     0.008 A 
ATOM     27  N2  H52 d           3.162   9.859   3.892  0.00  0.00    -0.272 NA
ATOM     28  H22 H52 d           3.467  10.160   5.949  0.00  0.00     0.115 H 
ATOM     29  C1  H52 d           3.702   9.771   2.701  0.00  0.00     0.013 A 
ATOM     30  H21 H52 d           3.056   9.677   1.835  0.00  0.00     0.116 H 
ATOM     31  C8  H52 d           5.615   9.648   1.188  0.00  0.00    -0.071 A 
ATOM     32  C7  H52 d           6.959   9.640   0.941  0.00  0.00    -0.081 A 
ATOM     33  H18 H52 d           4.920   9.541   0.364  0.00  0.00     0.084 H 
ATOM     34  C6  H52 d           7.878   9.759   2.013  0.00  0.00    -0.059 A 
ATOM     35  H19 H52 d           7.323   9.542  -0.076  0.00  0.00     0.083 H 
ATOM     36  H20 H52 d           8.941   9.707   1.810  0.00  0.00     0.085 H 
BRANCH  24  37
ATOM     37  CM  H52 d           5.929  10.324   6.236  0.00  0.00    -0.049 C 
ATOM     38  H15 H52 d           6.272   9.365   6.651  0.00  0.00     0.033 H 
ATOM     39  H16 H52 d           5.183  10.770   6.911  0.00  0.00     0.033 H 
ATOM     40  H17 H52 d           6.786  11.007   6.135  0.00  0.00     0.033 H 
ENDBRANCH  24  37
ENDBRANCH  19  22
ENDBRANCH   1  19
BRANCH   2  41
ATOM     41  C2M H52 d           9.580   6.999   3.138  0.00  0.00    -0.055 C 
ATOM     42  H2  H52 d           9.055   6.352   3.857  0.00  0.00     0.030 H 
ATOM     43  H3  H52 d          10.173   6.377   2.452  0.00  0.00     0.030 H 
ATOM     44  H4  H52 d           8.845   7.581   2.564  0.00  0.00     0.030 H 
ENDBRANCH   2  41
TORSDOF 4
ENDMDL
MODEL 2
REMARK VINA RESULT:      -7.9      2.395      3.148
REMARK  4 active torsions:
REMARK  status: ('A' for Active; 'I' for Inactive)
REMARK    1  A    between atoms: S5_2  and  N21_4 
REMARK    2  A    between atoms: S5_2  and  C5_12 
REMARK    3  A    between atoms: C22_5  and  C2M_6 
REMARK    4  A    between atoms: C4_14  and  CM_15 
ROOT
ATOM      1  N21 H52 d          11.101   9.105   2.097  0.00  0.00    -0.301 N 
ATOM      2  C22 H52 d          11.749   9.724   0.868  0.00  0.00     0.042 C 
ATOM      3  C23 H52 d          13.218  10.143   1.007  0.00  0.00     0.100 C 
ATOM      4  N24 H52 d          14.048   8.888   1.191  0.00  0.00    -0.073 N 
ATOM      5  C25 H52 d          14.239   8.637   2.678  0.00  0.00     0.083 C 
ATOM      6  C26 H52 d          12.986   8.078   3.377  0.00  0.00    -0.027 C 
ATOM      7  C27 H52 d          11.852   9.094   3.381  0.00  0.00     0.007 C 
ATOM      8  H1  H52 d          11.742   8.922   0.114  0.00  0.00     0.075 H 
ATOM      9  H5  H52 d          13.338  10.801   1.880  0.00  0.00     0.078 H 
ATOM     10  H6  H52 d          13.541  10.675   0.100  0.00  0.00     0.078 H 
ATOM     11  H7  H52 d          14.946   9.010   0.750  0.00  0.00     0.277 HD
ATOM     12  H8  H52 d          13.572   8.104   0.774  0.00  0.00     0.277 HD
ATOM     13  H9  H52 d          14.509   9.589   3.159  0.00  0.00     0.075 H 
ATOM     14  H10 H52 d          15.060   7.916   2.806  0.00  0.00     0.075 H 
ATOM     15  H11 H52 d          13.241   7.821   4.416  0.00  0.00     0.037 H 
ATOM     16  H12 H52 d          12.655   7.173   2.846  0.00  0.00     0.037 H 
ATOM     17  H13 H52 d          11.156   8.845   4.195  0.00  0.00     0.065 H 
ATOM     18  H14 H52 d          12.274  10.095   3.552  0.00  0.00     0.065 H 
ENDROOT
BRANCH   1  19
ATOM     19  S5  H52 d           9.739   8.104   1.818  0.00  0.00     0.262 S 
ATOM     20  O1  H52 d           9.637   6.941   2.740  0.00  0.00    -0.200 OA
ATOM     21  O2  H52 d           9.786   7.828   0.377  0.00  0.00    -0.200 OA
BRANCH  19  22
ATOM     22  C5  H52 d           8.298   9.134   2.031  0.00  0.00     0.091 A 
ATOM     23  C10 H52 d           7.630   9.457   3.303  0.00  0.00     0.006 A 
ATOM     24  C4  H52 d           7.982   9.109   4.670  0.00  0.00    -0.032 A 
ATOM     25  C9  H52 d           6.435  10.232   3.211  0.00  0.00    -0.006 A 
ATOM     26  C3  H52 d           7.198   9.484   5.740  0.00  0.00     0.008 A 
ATOM     27  N2  H52 d           6.060  10.187   5.575  0.00  0.00    -0.272 NA
ATOM     28  H22 H52 d           7.504   9.204   6.742  0.00  0.00     0.115 H 
ATOM     29  C1  H52 d           5.695  10.583   4.380  0.00  0.00     0.013 A 
ATOM     30  H21 H52 d           4.806  11.195   4.276  0.00  0.00     0.116 H 
ATOM     31  C8  H52 d           5.939  10.667   1.951  0.00  0.00    -0.071 A 
ATOM     32  C7  H52 d           6.586  10.345   0.791  0.00  0.00    -0.081 A 
ATOM     33  H18 H52 d           5.035  11.263   1.909  0.00  0.00     0.084 H 
ATOM     34  C6  H52 d           7.758   9.549   0.832  0.00  0.00    -0.059 A 
ATOM     35  H19 H52 d           6.203  10.697  -0.159  0.00  0.00     0.083 H 
ATOM     36  H20 H52 d           8.239   9.262  -0.096  0.00  0.00     0.085 H 
BRANCH  24  37
ATOM     37  CM  H52 d           9.190   8.352   5.129  0.00  0.00    -0.049 C 
ATOM     38  H15 H52 d           9.859   9.028   5.683  0.00  0.00     0.033 H 
ATOM     39  H16 H52 d           9.722   7.945   4.257  0.00  0.00     0.033 H 
ATOM     40  H17 H52 d           8.878   7.526   5.786  0.00  0.00     0.033 H 
ENDBRANCH  24  37
ENDBRANCH  19  22
ENDBRANCH   1  19
BRANCH   2  41
ATOM     41  C2M H52 d          10.951  10.869   0.268  0.00  0.00    -0.055 C 
ATOM     42  H2  H52 d          10.361  11.357   1.057  0.00  0.00     0.030 H 
ATOM     43  H3  H52 d          10.274  10.478  -0.506  0.00  0.00     0.030 H 
ATOM     44  H4  H52 d          11.638  11.600  -0.181  0.00  0.00     0.030 H 
ENDBRANCH   2  41
TORSDOF 4
ENDMDL
MODEL 3
REMARK VINA RESULT:      -7.8      1.431      1.480
REMARK  4 active torsions:
REMARK  status: ('A' for Active; 'I' for Inactive)
REMARK    1  A    between atoms: S5_2  and  N21_4 
REMARK    2  A    between atoms: S5_2  and  C5_12 
REMARK    3  A    between atoms: C22_5  and  C2M_6 
REMARK    4  A    between atoms: C4_14  and  CM_15 
ROOT
ATOM      1  N21 H52 d          10.703   9.567   2.399  0.00  0.00    -0.301 N 
ATOM      2  C22 H52 d          11.408   8.220   2.467  0.00  0.00     0.042 C 
ATOM      3  C23 H52 d          12.730   8.102   1.699  0.00  0.00     0.100 C 
ATOM      4  N24 H52 d          13.743   9.011   2.367  0.00  0.00    -0.073 N 
ATOM      5  C25 H52 d          13.741  10.355   1.658  0.00  0.00     0.083 C 
ATOM      6  C26 H52 d          12.523  11.233   1.999  0.00  0.00    -0.027 C 
ATOM      7  C27 H52 d          11.230  10.613   1.484  0.00  0.00     0.007 C 
ATOM      8  H1  H52 d          11.672   8.095   3.528  0.00  0.00     0.075 H 
ATOM      9  H5  H52 d          12.584   8.410   0.653  0.00  0.00     0.078 H 
ATOM     10  H6  H52 d          13.086   7.061   1.728  0.00  0.00     0.078 H 
ATOM     11  H7  H52 d          14.660   8.597   2.305  0.00  0.00     0.277 HD
ATOM     12  H8  H52 d          13.496   9.138   3.335  0.00  0.00     0.277 HD
ATOM     13  H9  H52 d          13.747  10.176   0.573  0.00  0.00     0.075 H 
ATOM     14  H10 H52 d          14.653  10.900   1.944  0.00  0.00     0.075 H 
ATOM     15  H11 H52 d          12.654  12.223   1.537  0.00  0.00     0.037 H 
ATOM     16  H12 H52 d          12.456  11.343   3.091  0.00  0.00     0.037 H 
ATOM     17  H13 H52 d          10.475  11.405   1.379  0.00  0.00     0.065 H 
ATOM     18  H14 H52 d          11.423  10.158   0.501  0.00  0.00     0.065 H 
ENDROOT
BRANCH   1  19
ATOM     19  S5  H52 d           9.616   9.923   3.675  0.00  0.00     0.262 S 
ATOM     20  O1  H52 d           9.864  11.229   4.343  0.00  0.00    -0.200 OA
ATOM     21  O2  H52 d           9.638   8.716   4.512  0.00  0.00    -0.200 OA
BRANCH  19  22
ATOM     22  C5  H52 d           7.982   9.944   2.960  0.00  0.00     0.091 A 
ATOM     23  C10 H52 d           6.706  10.030   3.690  0.00  0.00     0.006 A 
ATOM     24  C4  H52 d           6.437  10.191   5.110  0.00  0.00    -0.032 A 
ATOM     25  C9  H52 d           5.519   9.938   2.902  0.00  0.00    -0.006 A 
ATOM     26  C3  H52 d           5.153  10.216   5.609  0.00  0.00     0.008 A 
ATOM     27  N2  H52 d           4.077  10.088   4.806  0.00  0.00    -0.272 NA
ATOM     28  H22 H52 d           5.003  10.342   6.675  0.00  0.00     0.115 H 
ATOM     29  C1  H52 d           4.228   9.988   3.508  0.00  0.00     0.013 A 
ATOM     30  H21 H52 d           3.347   9.942   2.877  0.00  0.00     0.116 H 
ATOM     31  C8  H52 d           5.587   9.783   1.489  0.00  0.00    -0.071 A 
ATOM     32  C7  H52 d           6.792   9.704   0.849  0.00  0.00    -0.081 A 
ATOM     33  H18 H52 d           4.671   9.726   0.913  0.00  0.00     0.084 H 
ATOM     34  C6  H52 d           7.995   9.757   1.594  0.00  0.00    -0.059 A 
ATOM     35  H19 H52 d           6.826   9.600  -0.230  0.00  0.00     0.083 H 
ATOM     36  H20 H52 d           8.944   9.649   1.081  0.00  0.00     0.085 H 
BRANCH  24  37
ATOM     37  CM  H52 d           7.443  10.366   6.207  0.00  0.00    -0.049 C 
ATOM     38  H15 H52 d           7.731   9.380   6.601  0.00  0.00     0.033 H 
ATOM     39  H16 H52 d           7.003  10.970   7.015  0.00  0.00     0.033 H 
ATOM     40  H17 H52 d           8.333  10.877   5.810  0.00  0.00     0.033 H 
ENDBRANCH  24  37
ENDBRANCH  19  22
ENDBRANCH   1  19
BRANCH   2  41
ATOM     41  C2M H52 d          10.512   7.045   2.117  0.00  0.00    -0.055 C 
ATOM     42  H2  H52 d          10.887   6.137   2.613  0.00  0.00     0.030 H 
ATOM     43  H3  H52 d          10.515   6.893   1.027  0.00  0.00     0.030 H 
ATOM     44  H4  H52 d           9.487   7.251   2.456  0.00  0.00     0.030 H 
ENDBRANCH   2  41
TORSDOF 4
ENDMDL
MODEL 4
REMARK VINA RESULT:      -7.7      0.967      2.160
REMARK  4 active torsions:
REMARK  status: ('A' for Active; 'I' for Inactive)
REMARK    1  A    between atoms: S5_2  and  N21_4 
REMARK    2  A    between atoms: S5_2  and  C5_12 
REMARK    3  A    between atoms: C22_5  and  C2M_6 
REMARK    4  A    between atoms: C4_14  and  CM_15 
ROOT
ATOM      1  N21 H52 d          10.333   9.446   3.797  0.00  0.00    -0.301 N 
ATOM      2  C22 H52 d          10.995  10.348   2.765  0.00  0.00     0.042 C 
ATOM      3  C23 H52 d          11.875   9.656   1.716  0.00  0.00     0.100 C 
ATOM      4  N24 H52 d          10.979   8.800   0.843  0.00  0.00    -0.073 N 
ATOM      5  C25 H52 d          10.959   7.385   1.396  0.00  0.00     0.083 C 
ATOM      6  C26 H52 d          10.104   7.228   2.666  0.00  0.00    -0.027 C 
ATOM      7  C27 H52 d          10.697   8.005   3.835  0.00  0.00     0.007 C 
ATOM      8  H1  H52 d          10.159  10.790   2.202  0.00  0.00     0.075 H 
ATOM      9  H5  H52 d          12.624   9.024   2.215  0.00  0.00     0.078 H 
ATOM     10  H6  H52 d          12.385  10.412   1.100  0.00  0.00     0.078 H 
ATOM     11  H7  H52 d          11.335   8.791  -0.099  0.00  0.00     0.277 HD
ATOM     12  H8  H52 d          10.044   9.177   0.846  0.00  0.00     0.277 HD
ATOM     13  H9  H52 d          11.992   7.090   1.634  0.00  0.00     0.075 H 
ATOM     14  H10 H52 d          10.557   6.715   0.622  0.00  0.00     0.075 H 
ATOM     15  H11 H52 d          10.052   6.162   2.934  0.00  0.00     0.037 H 
ATOM     16  H12 H52 d           9.090   7.605   2.464  0.00  0.00     0.037 H 
ATOM     17  H13 H52 d          10.325   7.570   4.774  0.00  0.00     0.065 H 
ATOM     18  H14 H52 d          11.793   7.916   3.799  0.00  0.00     0.065 H 
ENDROOT
BRANCH   1  19
ATOM     19  S5  H52 d           8.925  10.061   4.554  0.00  0.00     0.262 S 
ATOM     20  O1  H52 d           9.049  11.467   5.024  0.00  0.00    -0.200 OA
ATOM     21  O2  H52 d           8.577   9.038   5.549  0.00  0.00    -0.200 OA
BRANCH  19  22
ATOM     22  C5  H52 d           7.617   9.972   3.344  0.00  0.00     0.091 A 
ATOM     23  C10 H52 d           6.170   9.972   3.614  0.00  0.00     0.006 A 
ATOM     24  C4  H52 d           5.441  10.113   4.865  0.00  0.00    -0.032 A 
ATOM     25  C9  H52 d           5.315   9.801   2.484  0.00  0.00    -0.006 A 
ATOM     26  C3  H52 d           4.065  10.051   4.916  0.00  0.00     0.008 A 
ATOM     27  N2  H52 d           3.322   9.852   3.809  0.00  0.00    -0.272 NA
ATOM     28  H22 H52 d           3.567  10.165   5.872  0.00  0.00     0.115 H 
ATOM     29  C1  H52 d           3.896   9.763   2.634  0.00  0.00     0.013 A 
ATOM     30  H21 H52 d           3.275   9.658   1.751  0.00  0.00     0.116 H 
ATOM     31  C8  H52 d           5.852   9.652   1.175  0.00  0.00    -0.071 A 
ATOM     32  C7  H52 d           7.202   9.655   0.965  0.00  0.00    -0.081 A 
ATOM     33  H18 H52 d           5.180   9.534   0.332  0.00  0.00     0.084 H 
ATOM     34  C6  H52 d           8.089   9.788   2.061  0.00  0.00    -0.059 A 
ATOM     35  H19 H52 d           7.594   9.555  -0.040  0.00  0.00     0.083 H 
ATOM     36  H20 H52 d           9.158   9.745   1.889  0.00  0.00     0.085 H 
BRANCH  24  37
ATOM     37  CM  H52 d           6.019  10.354   6.227  0.00  0.00    -0.049 C 
ATOM     38  H15 H52 d           7.116  10.389   6.158  0.00  0.00     0.033 H 
ATOM     39  H16 H52 d           5.719   9.540   6.902  0.00  0.00     0.033 H 
ATOM     40  H17 H52 d           5.645  11.312   6.619  0.00  0.00     0.033 H 
ENDBRANCH  24  37
ENDBRANCH  19  22
ENDBRANCH   1  19
BRANCH   2  41
ATOM     41  C2M H52 d          11.755  11.514   3.373  0.00  0.00    -0.055 C 
ATOM     42  H2  H52 d          12.500  11.882   2.653  0.00  0.00     0.030 H 
ATOM     43  H3  H52 d          12.264  11.182   4.289  0.00  0.00     0.030 H 
ATOM     44  H4  H52 d          11.050  12.323   3.617  0.00  0.00     0.030 H 
ENDBRANCH   2  41
TORSDOF 4
ENDMDL
MODEL 5
REMARK VINA RESULT:      -7.4      2.388      3.829
REMARK  4 active torsions:
REMARK  status: ('A' for Active; 'I' for Inactive)
REMARK    1  A    between atoms: S5_2  and  N21_4 
REMARK    2  A    between atoms: S5_2  and  C5_12 
REMARK    3  A    between atoms: C22_5  and  C2M_6 
REMARK    4  A    between atoms: C4_14  and  CM_15 
ROOT
ATOM      1  N21 H52 d          11.857   9.200   2.593  0.00  0.00    -0.301 N 
ATOM      2  C22 H52 d          12.603  10.300   1.851  0.00  0.00     0.042 C 
ATOM      3  C23 H52 d          14.124  10.140   1.740  0.00  0.00     0.100 C 
ATOM      4  N24 H52 d          14.407   8.934   0.866  0.00  0.00    -0.073 N 
ATOM      5  C25 H52 d          14.595   7.715   1.754  0.00  0.00     0.083 C 
ATOM      6  C26 H52 d          13.279   7.161   2.330  0.00  0.00    -0.027 C 
ATOM      7  C27 H52 d          12.638   8.148   3.297  0.00  0.00     0.007 C 
ATOM      8  H1  H52 d          12.226  10.245   0.818  0.00  0.00     0.075 H 
ATOM      9  H5  H52 d          14.557   9.986   2.740  0.00  0.00     0.078 H 
ATOM     10  H6  H52 d          14.562  11.042   1.286  0.00  0.00     0.078 H 
ATOM     11  H7  H52 d          15.246   9.095   0.330  0.00  0.00     0.277 HD
ATOM     12  H8  H52 d          13.632   8.781   0.240  0.00  0.00     0.277 HD
ATOM     13  H9  H52 d          15.252   7.993   2.591  0.00  0.00     0.075 H 
ATOM     14  H10 H52 d          15.074   6.923   1.159  0.00  0.00     0.075 H 
ATOM     15  H11 H52 d          13.489   6.222   2.864  0.00  0.00     0.037 H 
ATOM     16  H12 H52 d          12.581   6.965   1.503  0.00  0.00     0.037 H 
ATOM     17  H13 H52 d          11.963   7.598   3.969  0.00  0.00     0.065 H 
ATOM     18  H14 H52 d          13.430   8.631   3.888  0.00  0.00     0.065 H 
ENDROOT
BRANCH   1  19
ATOM     19  S5  H52 d          10.195   9.020   2.219  0.00  0.00     0.262 S 
ATOM     20  O1  H52 d           9.809   7.645   1.803  0.00  0.00    -0.200 OA
ATOM     21  O2  H52 d           9.917  10.118   1.285  0.00  0.00    -0.200 OA
BRANCH  19  22
ATOM     22  C5  H52 d           9.292   9.448   3.697  0.00  0.00     0.091 A 
ATOM     23  C10 H52 d           7.859   9.772   3.787  0.00  0.00     0.006 A 
ATOM     24  C4  H52 d           6.821   9.762   2.768  0.00  0.00    -0.032 A 
ATOM     25  C9  H52 d           7.380  10.173   5.070  0.00  0.00    -0.006 A 
ATOM     26  C3  H52 d           5.525  10.137   3.047  0.00  0.00     0.008 A 
ATOM     27  N2  H52 d           5.151  10.539   4.278  0.00  0.00    -0.272 NA
ATOM     28  H22 H52 d           4.786  10.109   2.255  0.00  0.00     0.115 H 
ATOM     29  C1  H52 d           6.013  10.532   5.266  0.00  0.00     0.013 A 
ATOM     30  H21 H52 d           5.677  10.806   6.260  0.00  0.00     0.116 H 
ATOM     31  C8  H52 d           8.254  10.238   6.191  0.00  0.00    -0.071 A 
ATOM     32  C7  H52 d           9.580   9.931   6.067  0.00  0.00    -0.081 A 
ATOM     33  H18 H52 d           7.863  10.535   7.157  0.00  0.00     0.084 H 
ATOM     34  C6  H52 d          10.106   9.561   4.805  0.00  0.00    -0.059 A 
ATOM     35  H19 H52 d          10.229   9.971   6.934  0.00  0.00     0.083 H 
ATOM     36  H20 H52 d          11.167   9.362   4.708  0.00  0.00     0.085 H 
BRANCH  24  37
ATOM     37  CM  H52 d           6.965   9.348   1.335  0.00  0.00    -0.049 C 
ATOM     38  H15 H52 d           8.011   9.072   1.136  0.00  0.00     0.033 H 
ATOM     39  H16 H52 d           6.675  10.184   0.681  0.00  0.00     0.033 H 
ATOM     40  H17 H52 d           6.313   8.484   1.135  0.00  0.00     0.033 H 
ENDBRANCH  24  37
ENDBRANCH  19  22
ENDBRANCH   1  19
BRANCH   2  41
ATOM     41  C2M H52 d          12.275  11.699   2.343  0.00  0.00    -0.055 C 
ATOM     42  H2  H52 d          11.269  11.705   2.786  0.00  0.00     0.030 H 
ATOM     43  H3  H52 d          12.307  12.401   1.497  0.00  0.00     0.030 H 
ATOM     44  H4  H52 d          13.011  12.003   3.101  0.00  0.00     0.030 H 
ENDBRANCH   2  41
TORSDOF 4
ENDMDL
MODEL 6
REMARK VINA RESULT:      -7.2      2.717      6.826
REMARK  4 active torsions:
REMARK  status: ('A' for Active; 'I' for Inactive)
REMARK    1  A    between atoms: S5_2  and  N21_4 
REMARK    2  A    between atoms: S5_2  and  C5_12 
REMARK    3  A    between atoms: C22_5  and  C2M_6 
REMARK    4  A    between atoms: C4_14  and  CM_15 
ROOT
ATOM      1  N21 H52 d           8.854   9.671   2.709  0.00  0.00    -0.301 N 
ATOM      2  C22 H52 d           9.105   9.889   4.194  0.00  0.00     0.042 C 
ATOM      3  C23 H52 d           8.067  10.730   4.947  0.00  0.00     0.100 C 
ATOM      4  N24 H52 d           6.763   9.958   4.967  0.00  0.00    -0.073 N 
ATOM      5  C25 H52 d           5.907  10.405   3.793  0.00  0.00     0.083 C 
ATOM      6  C26 H52 d           6.376   9.848   2.437  0.00  0.00    -0.027 C 
ATOM      7  C27 H52 d           7.740  10.404   2.050  0.00  0.00     0.007 C 
ATOM      8  H1  H52 d           9.047   8.884   4.638  0.00  0.00     0.075 H 
ATOM      9  H5  H52 d           7.923  11.693   4.433  0.00  0.00     0.078 H 
ATOM     10  H6  H52 d           8.410  10.912   5.976  0.00  0.00     0.078 H 
ATOM     11  H7  H52 d           6.276  10.140   5.830  0.00  0.00     0.277 HD
ATOM     12  H8  H52 d           6.953   8.971   4.890  0.00  0.00     0.277 HD
ATOM     13  H9  H52 d           5.931  11.504   3.745  0.00  0.00     0.075 H 
ATOM     14  H10 H52 d           4.874  10.069   3.968  0.00  0.00     0.075 H 
ATOM     15  H11 H52 d           5.644  10.125   1.663  0.00  0.00     0.037 H 
ATOM     16  H12 H52 d           6.442   8.752   2.504  0.00  0.00     0.037 H 
ATOM     17  H13 H52 d           7.860  10.322   0.960  0.00  0.00     0.065 H 
ATOM     18  H14 H52 d           7.789  11.462   2.347  0.00  0.00     0.065 H 
ENDROOT
BRANCH   1  19
ATOM     19  S5  H52 d           9.599   8.299   2.004  0.00  0.00     0.262 S 
ATOM     20  O1  H52 d           9.356   8.155   0.543  0.00  0.00    -0.200 OA
ATOM     21  O2  H52 d           9.199   7.187   2.874  0.00  0.00    -0.200 OA
BRANCH  19  22
ATOM     22  C5  H52 d          11.353   8.475   2.279  0.00  0.00     0.091 A 
ATOM     23  C10 H52 d          12.264   9.394   1.575  0.00  0.00     0.006 A 
ATOM     24  C4  H52 d          11.993  10.410   0.571  0.00  0.00    -0.032 A 
ATOM     25  C9  H52 d          13.648   9.289   1.907  0.00  0.00    -0.006 A 
ATOM     26  C3  H52 d          13.002  11.155  -0.000  0.00  0.00     0.008 A 
ATOM     27  N2  H52 d          14.295  10.977   0.338  0.00  0.00    -0.272 NA
ATOM     28  H22 H52 d          12.749  11.904  -0.742  0.00  0.00     0.115 H 
ATOM     29  C1  H52 d          14.622  10.116   1.270  0.00  0.00     0.013 A 
ATOM     30  H21 H52 d          15.662  10.028   1.565  0.00  0.00     0.116 H 
ATOM     31  C8  H52 d          14.101   8.350   2.875  0.00  0.00    -0.071 A 
ATOM     32  C7  H52 d          13.225   7.512   3.505  0.00  0.00    -0.081 A 
ATOM     33  H18 H52 d          15.157   8.298   3.117  0.00  0.00     0.084 H 
ATOM     34  C6  H52 d          11.846   7.558   3.183  0.00  0.00    -0.059 A 
ATOM     35  H19 H52 d          13.584   6.813   4.251  0.00  0.00     0.083 H 
ATOM     36  H20 H52 d          11.166   6.859   3.656  0.00  0.00     0.085 H 
BRANCH  24  37
ATOM     37  CM  H52 d          10.655  10.814   0.032  0.00  0.00    -0.049 C 
ATOM     38  H15 H52 d          10.355  10.117  -0.764  0.00  0.00     0.033 H 
ATOM     39  H16 H52 d          10.717  11.833  -0.378  0.00  0.00     0.033 H 
ATOM     40  H17 H52 d           9.910  10.790   0.841  0.00  0.00     0.033 H 
ENDBRANCH  24  37
ENDBRANCH  19  22
ENDBRANCH   1  19
BRANCH   2  41
ATOM     41  C2M H52 d          10.499  10.405   4.508  0.00  0.00    -0.055 C 
ATOM     42  H2  H52 d          10.575  10.627   5.582  0.00  0.00     0.030 H 
ATOM     43  H3  H52 d          10.689  11.322   3.931  0.00  0.00     0.030 H 
ATOM     44  H4  H52 d          11.242   9.641   4.238  0.00  0.00     0.030 H 
ENDBRANCH   2  41
TORSDOF 4
ENDMDL
MODEL 7
REMARK VINA RESULT:      -7.0      2.213      3.508
REMARK  4 active torsions:
REMARK  status: ('A' for Active; 'I' for Inactive)
REMARK    1  A    between atoms: S5_2  and  N21_4 
REMARK    2  A    between atoms: S5_2  and  C5_12 
REMARK    3  A    between atoms: C22_5  and  C2M_6 
REMARK    4  A    between atoms: C4_14  and  CM_15 
ROOT
ATOM      1  N21 H52 d          11.794   8.962   2.618  0.00  0.00    -0.301 N 
ATOM      2  C22 H52 d          11.772   8.018   3.811  0.00  0.00     0.042 C 
ATOM      3  C23 H52 d          12.694   6.795   3.733  0.00  0.00     0.100 C 
ATOM      4  N24 H52 d          14.128   7.286   3.758  0.00  0.00    -0.073 N 
ATOM      5  C25 H52 d          14.622   7.438   2.329  0.00  0.00     0.083 C 
ATOM      6  C26 H52 d          14.064   8.679   1.610  0.00  0.00    -0.027 C 
ATOM      7  C27 H52 d          12.559   8.572   1.403  0.00  0.00     0.007 C 
ATOM      8  H1  H52 d          12.152   8.620   4.651  0.00  0.00     0.075 H 
ATOM      9  H5  H52 d          12.504   6.244   2.800  0.00  0.00     0.078 H 
ATOM     10  H6  H52 d          12.510   6.134   4.593  0.00  0.00     0.078 H 
ATOM     11  H7  H52 d          14.704   6.619   4.246  0.00  0.00     0.277 HD
ATOM     12  H8  H52 d          14.172   8.176   4.228  0.00  0.00     0.277 HD
ATOM     13  H9  H52 d          14.323   6.544   1.761  0.00  0.00     0.075 H 
ATOM     14  H10 H52 d          15.719   7.510   2.346  0.00  0.00     0.075 H 
ATOM     15  H11 H52 d          14.554   8.776   0.629  0.00  0.00     0.037 H 
ATOM     16  H12 H52 d          14.280   9.571   2.217  0.00  0.00     0.037 H 
ATOM     17  H13 H52 d          12.267   9.234   0.574  0.00  0.00     0.065 H 
ATOM     18  H14 H52 d          12.310   7.532   1.148  0.00  0.00     0.065 H 
ENDROOT
BRANCH   1  19
ATOM     19  S5  H52 d          11.290  10.573   2.911  0.00  0.00     0.262 S 
ATOM     20  O1  H52 d          11.322  11.451   1.711  0.00  0.00    -0.200 OA
ATOM     21  O2  H52 d          12.076  10.988   4.080  0.00  0.00    -0.200 OA
BRANCH  19  22
ATOM     22  C5  H52 d           9.612  10.479   3.510  0.00  0.00     0.091 A 
ATOM     23  C10 H52 d           8.412  10.174   2.713  0.00  0.00     0.006 A 
ATOM     24  C4  H52 d           8.274   9.809   1.312  0.00  0.00    -0.032 A 
ATOM     25  C9  H52 d           7.162  10.245   3.399  0.00  0.00    -0.006 A 
ATOM     26  C3  H52 d           7.042   9.592   0.735  0.00  0.00     0.008 A 
ATOM     27  N2  H52 d           5.897   9.712   1.438  0.00  0.00    -0.272 NA
ATOM     28  H22 H52 d           6.991   9.318  -0.313  0.00  0.00     0.115 H 
ATOM     29  C1  H52 d           5.933   9.990   2.718  0.00  0.00     0.013 A 
ATOM     30  H21 H52 d           5.005  10.028   3.276  0.00  0.00     0.116 H 
ATOM     31  C8  H52 d           7.102  10.585   4.779  0.00  0.00    -0.071 A 
ATOM     32  C7  H52 d           8.239  10.864   5.484  0.00  0.00    -0.081 A 
ATOM     33  H18 H52 d           6.141  10.622   5.279  0.00  0.00     0.084 H 
ATOM     34  C6  H52 d           9.498  10.838   4.836  0.00  0.00    -0.059 A 
ATOM     35  H19 H52 d           8.177  11.106   6.539  0.00  0.00     0.083 H 
ATOM     36  H20 H52 d          10.389  11.105   5.394  0.00  0.00     0.085 H 
BRANCH  24  37
ATOM     37  CM  H52 d           9.377   9.597   0.320  0.00  0.00    -0.049 C 
ATOM     38  H15 H52 d          10.102   8.877   0.726  0.00  0.00     0.033 H 
ATOM     39  H16 H52 d           9.881  10.554   0.122  0.00  0.00     0.033 H 
ATOM     40  H17 H52 d           8.956   9.204  -0.618  0.00  0.00     0.033 H 
ENDBRANCH  24  37
ENDBRANCH  19  22
ENDBRANCH   1  19
BRANCH   2  41
ATOM     41  C2M H52 d          10.376   7.575   4.212  0.00  0.00    -0.055 C 
ATOM     42  H2  H52 d          10.186   7.862   5.257  0.00  0.00     0.030 H 
ATOM     43  H3  H52 d          10.295   6.483   4.112  0.00  0.00     0.030 H 
ATOM     44  H4  H52 d           9.635   8.060   3.559  0.00  0.00     0.030 H 
ENDBRANCH   2  41
TORSDOF 4
ENDMDL
MODEL 8
REMARK VINA RESULT:      -6.9      2.069      6.368
REMARK  4 active torsions:
REMARK  status: ('A' for Active; 'I' for Inactive)
REMARK    1  A    between atoms: S5_2  and  N21_4 
REMARK    2  A    between atoms: S5_2  and  C5_12 
REMARK    3  A    between atoms: C22_5  and  C2M_6 
REMARK    4  A    between atoms: C4_14  and  CM_15 
ROOT
ATOM      1  N21 H52 d           7.013   9.865   3.774  0.00  0.00    -0.301 N 
ATOM      2  C22 H52 d           6.337  10.043   5.126  0.00  0.00     0.042 C 
ATOM      3  C23 H52 d           4.927  10.648   5.111  0.00  0.00     0.100 C 
ATOM      4  N24 H52 d           4.000   9.658   4.433  0.00  0.00    -0.073 N 
ATOM      5  C25 H52 d           3.896  10.011   2.958  0.00  0.00     0.083 C 
ATOM      6  C26 H52 d           5.138   9.618   2.139  0.00  0.00    -0.027 C 
ATOM      7  C27 H52 d           6.360  10.425   2.561  0.00  0.00     0.007 C 
ATOM      8  H1  H52 d           6.214   9.021   5.514  0.00  0.00     0.075 H 
ATOM      9  H5  H52 d           4.933  11.596   4.553  0.00  0.00     0.078 H 
ATOM     10  H6  H52 d           4.589  10.831   6.142  0.00  0.00     0.078 H 
ATOM     11  H7  H52 d           3.087   9.706   4.858  0.00  0.00     0.277 HD
ATOM     12  H8  H52 d           4.369   8.726   4.533  0.00  0.00     0.277 HD
ATOM     13  H9  H52 d           3.751  11.098   2.871  0.00  0.00     0.075 H 
ATOM     14  H10 H52 d           3.023   9.490   2.537  0.00  0.00     0.075 H 
ATOM     15  H11 H52 d           4.938   9.804   1.073  0.00  0.00     0.037 H 
ATOM     16  H12 H52 d           5.345   8.549   2.293  0.00  0.00     0.037 H 
ATOM     17  H13 H52 d           7.087  10.424   1.736  0.00  0.00     0.065 H 
ATOM     18  H14 H52 d           6.046  11.458   2.773  0.00  0.00     0.065 H 
ENDROOT
BRANCH   1  19
ATOM     19  S5  H52 d           8.252   8.684   3.692  0.00  0.00     0.262 S 
ATOM     20  O1  H52 d           8.100   7.717   2.572  0.00  0.00    -0.200 OA
ATOM     21  O2  H52 d           8.322   8.143   5.055  0.00  0.00    -0.200 OA
BRANCH  19  22
ATOM     22  C5  H52 d           9.786   9.571   3.482  0.00  0.00     0.091 A 
ATOM     23  C10 H52 d          10.370  10.023   2.208  0.00  0.00     0.006 A 
ATOM     24  C4  H52 d           9.855   9.947   0.851  0.00  0.00    -0.032 A 
ATOM     25  C9  H52 d          11.657  10.636   2.285  0.00  0.00    -0.006 A 
ATOM     26  C3  H52 d          10.579  10.403  -0.229  0.00  0.00     0.008 A 
ATOM     27  N2  H52 d          11.807  10.941  -0.084  0.00  0.00    -0.272 NA
ATOM     28  H22 H52 d          10.150  10.328  -1.222  0.00  0.00     0.115 H 
ATOM     29  C1  H52 d          12.327  11.092   1.110  0.00  0.00     0.013 A 
ATOM     30  H21 H52 d          13.291  11.577   1.208  0.00  0.00     0.116 H 
ATOM     31  C8  H52 d          12.317  10.801   3.535  0.00  0.00    -0.071 A 
ATOM     32  C7  H52 d          11.742  10.365   4.696  0.00  0.00    -0.081 A 
ATOM     33  H18 H52 d          13.289  11.280   3.567  0.00  0.00     0.084 H 
ATOM     34  C6  H52 d          10.481   9.721   4.663  0.00  0.00    -0.059 A 
ATOM     35  H19 H52 d          12.251  10.512   5.641  0.00  0.00     0.083 H 
ATOM     36  H20 H52 d          10.054   9.340   5.584  0.00  0.00     0.085 H 
BRANCH  24  37
ATOM     37  CM  H52 d           8.524   9.412   0.417  0.00  0.00    -0.049 C 
ATOM     38  H15 H52 d           8.664   8.447  -0.091  0.00  0.00     0.033 H 
ATOM     39  H16 H52 d           8.049  10.125  -0.274  0.00  0.00     0.033 H 
ATOM     40  H17 H52 d           7.880   9.273   1.298  0.00  0.00     0.033 H 
ENDBRANCH  24  37
ENDBRANCH  19  22
ENDBRANCH   1  19
BRANCH   2  41
ATOM     41  C2M H52 d           7.192  10.778   6.143  0.00  0.00    -0.055 C 
ATOM     42  H2  H52 d           8.077  11.198   5.644  0.00  0.00     0.030 H 
ATOM     43  H3  H52 d           7.513  10.076   6.927  0.00  0.00     0.030 H 
ATOM     44  H4  H52 d           6.606  11.591   6.596  0.00  0.00     0.030 H 
ENDBRANCH   2  41
TORSDOF 4
ENDMDL
MODEL 9
REMARK VINA RESULT:      -6.1      1.655      2.746
REMARK  4 active torsions:
REMARK  status: ('A' for Active; 'I' for Inactive)
REMARK    1  A    between atoms: S5_2  and  N21_4 
REMARK    2  A    between atoms: S5_2  and  C5_12 
REMARK    3  A    between atoms: C22_5  and  C2M_6 
REMARK    4  A    between atoms: C4_14  and  CM_15 
ROOT
ATOM      1  N21 H52 d          11.594   8.619   4.285  0.00  0.00    -0.301 N 
ATOM      2  C22 H52 d          12.737   9.618   4.394  0.00  0.00     0.042 C 
ATOM      3  C23 H52 d          14.002   9.300   3.588  0.00  0.00     0.100 C 
ATOM      4  N24 H52 d          13.655   9.393   2.115  0.00  0.00    -0.073 N 
ATOM      5  C25 H52 d          13.287   8.008   1.608  0.00  0.00     0.083 C 
ATOM      6  C26 H52 d          11.888   7.539   2.050  0.00  0.00    -0.027 C 
ATOM      7  C27 H52 d          11.820   7.341   3.559  0.00  0.00     0.007 C 
ATOM      8  H1  H52 d          12.338  10.547   3.961  0.00  0.00     0.075 H 
ATOM      9  H5  H52 d          14.352   8.285   3.826  0.00  0.00     0.078 H 
ATOM     10  H6  H52 d          14.792  10.026   3.832  0.00  0.00     0.078 H 
ATOM     11  H7  H52 d          14.450   9.740   1.602  0.00  0.00     0.277 HD
ATOM     12  H8  H52 d          12.875  10.018   1.990  0.00  0.00     0.277 HD
ATOM     13  H9  H52 d          14.029   7.290   1.987  0.00  0.00     0.075 H 
ATOM     14  H10 H52 d          13.317   8.021   0.509  0.00  0.00     0.075 H 
ATOM     15  H11 H52 d          11.657   6.585   1.552  0.00  0.00     0.037 H 
ATOM     16  H12 H52 d          11.147   8.297   1.754  0.00  0.00     0.037 H 
ATOM     17  H13 H52 d          10.993   6.653   3.788  0.00  0.00     0.065 H 
ATOM     18  H14 H52 d          12.769   6.902   3.901  0.00  0.00     0.065 H 
ENDROOT
BRANCH   1  19
ATOM     19  S5  H52 d          10.027   9.212   4.641  0.00  0.00     0.262 S 
ATOM     20  O1  H52 d          10.006  10.329   5.623  0.00  0.00    -0.200 OA
ATOM     21  O2  H52 d           9.252   8.007   4.963  0.00  0.00    -0.200 OA
BRANCH  19  22
ATOM     22  C5  H52 d           9.340   9.790   3.099  0.00  0.00     0.091 A 
ATOM     23  C10 H52 d           7.917  10.034   2.809  0.00  0.00     0.006 A 
ATOM     24  C4  H52 d           6.749   9.950   3.670  0.00  0.00    -0.032 A 
ATOM     25  C9  H52 d           7.600  10.409   1.469  0.00  0.00    -0.006 A 
ATOM     26  C3  H52 d           5.477  10.187   3.195  0.00  0.00     0.008 A 
ATOM     27  N2  H52 d           5.248  10.504   1.905  0.00  0.00    -0.272 NA
ATOM     28  H22 H52 d           4.637  10.116   3.877  0.00  0.00     0.115 H 
ATOM     29  C1  H52 d           6.250  10.648   1.071  0.00  0.00     0.013 A 
ATOM     30  H21 H52 d           6.048  10.957   0.052  0.00  0.00     0.116 H 
ATOM     31  C8  H52 d           8.619  10.545   0.485  0.00  0.00    -0.071 A 
ATOM     32  C7  H52 d           9.929  10.308   0.793  0.00  0.00    -0.081 A 
ATOM     33  H18 H52 d           8.353  10.842  -0.523  0.00  0.00     0.084 H 
ATOM     34  C6  H52 d          10.286   9.900   2.102  0.00  0.00    -0.059 A 
ATOM     35  H19 H52 d          10.695  10.431   0.036  0.00  0.00     0.083 H 
ATOM     36  H20 H52 d          11.322   9.672   2.324  0.00  0.00     0.085 H 
BRANCH  24  37
ATOM     37  CM  H52 d           6.724   9.633   5.135  0.00  0.00    -0.049 C 
ATOM     38  H15 H52 d           6.734   8.542   5.274  0.00  0.00     0.033 H 
ATOM     39  H16 H52 d           5.813  10.052   5.586  0.00  0.00     0.033 H 
ATOM     40  H17 H52 d           7.609  10.072   5.620  0.00  0.00     0.033 H 
ENDBRANCH  24  37
ENDBRANCH  19  22
ENDBRANCH   1  19
BRANCH   2  41
ATOM     41  C2M H52 d          13.120   9.953   5.825  0.00  0.00    -0.055 C 
ATOM     42  H2  H52 d          13.679   9.113   6.262  0.00  0.00     0.030 H 
ATOM     43  H3  H52 d          12.209  10.132   6.415  0.00  0.00     0.030 H 
ATOM     44  H4  H52 d          13.747  10.856   5.836  0.00  0.00     0.030 H 
ENDBRANCH   2  41
TORSDOF 4
ENDMDL
MODEL 10
REMARK VINA RESULT:      -6.0      2.192      3.270
REMARK  4 active torsions:
REMARK  status: ('A' for Active; 'I' for Inactive)
REMARK    1  A    between atoms: S5_2  and  N21_4 
REMARK    2  A    between atoms: S5_2  and  C5_12 
REMARK    3  A    between atoms: C22_5  and  C2M_6 
REMARK    4  A    between atoms: C4_14  and  CM_15 
ROOT
ATOM      1  N21 H52 d          12.067   9.195   3.716  0.00  0.00    -0.301 N 
ATOM      2  C22 H52 d          13.180   9.284   4.750  0.00  0.00     0.042 C 
ATOM      3  C23 H52 d          13.869   7.967   5.129  0.00  0.00     0.100 C 
ATOM      4  N24 H52 d          14.621   7.464   3.913  0.00  0.00    -0.073 N 
ATOM      5  C25 H52 d          13.734   6.491   3.153  0.00  0.00     0.083 C 
ATOM      6  C26 H52 d          12.613   7.175   2.348  0.00  0.00    -0.027 C 
ATOM      7  C27 H52 d          11.606   7.854   3.267  0.00  0.00     0.007 C 
ATOM      8  H1  H52 d          13.959   9.895   4.270  0.00  0.00     0.075 H 
ATOM      9  H5  H52 d          13.115   7.226   5.435  0.00  0.00     0.078 H 
ATOM     10  H6  H52 d          14.571   8.138   5.959  0.00  0.00     0.078 H 
ATOM     11  H7  H52 d          15.463   6.995   4.207  0.00  0.00     0.277 HD
ATOM     12  H8  H52 d          14.859   8.241   3.318  0.00  0.00     0.277 HD
ATOM     13  H9  H52 d          13.272   5.804   3.877  0.00  0.00     0.075 H 
ATOM     14  H10 H52 d          14.363   5.920   2.455  0.00  0.00     0.075 H 
ATOM     15  H11 H52 d          12.093   6.417   1.744  0.00  0.00     0.037 H 
ATOM     16  H12 H52 d          13.059   7.931   1.685  0.00  0.00     0.037 H 
ATOM     17  H13 H52 d          10.655   7.971   2.725  0.00  0.00     0.065 H 
ATOM     18  H14 H52 d          11.448   7.219   4.151  0.00  0.00     0.065 H 
ENDROOT
BRANCH   1  19
ATOM     19  S5  H52 d          11.719  10.629   2.846  0.00  0.00     0.262 S 
ATOM     20  O1  H52 d          12.758  11.007   1.851  0.00  0.00    -0.200 OA
ATOM     21  O2  H52 d          11.385  11.608   3.888  0.00  0.00    -0.200 OA
BRANCH  19  22
ATOM     22  C5  H52 d          10.180  10.343   1.989  0.00  0.00     0.091 A 
ATOM     23  C10 H52 d           8.844  10.232   2.598  0.00  0.00     0.006 A 
ATOM     24  C4  H52 d           8.418  10.392   3.979  0.00  0.00    -0.032 A 
ATOM     25  C9  H52 d           7.771   9.910   1.714  0.00  0.00    -0.006 A 
ATOM     26  C3  H52 d           7.106  10.212   4.360  0.00  0.00     0.008 A 
ATOM     27  N2  H52 d           6.149   9.872   3.473  0.00  0.00    -0.272 NA
ATOM     28  H22 H52 d           6.836  10.346   5.401  0.00  0.00     0.115 H 
ATOM     29  C1  H52 d           6.438   9.756   2.200  0.00  0.00     0.013 A 
ATOM     30  H21 H52 d           5.642   9.537   1.497  0.00  0.00     0.116 H 
ATOM     31  C8  H52 d           7.999   9.720   0.322  0.00  0.00    -0.071 A 
ATOM     32  C7  H52 d           9.256   9.829  -0.205  0.00  0.00    -0.081 A 
ATOM     33  H18 H52 d           7.165   9.487  -0.330  0.00  0.00     0.084 H 
ATOM     34  C6  H52 d          10.356  10.115   0.640  0.00  0.00    -0.059 A 
ATOM     35  H19 H52 d           9.410   9.697  -1.269  0.00  0.00     0.083 H 
ATOM     36  H20 H52 d          11.354  10.155   0.219  0.00  0.00     0.085 H 
BRANCH  24  37
ATOM     37  CM  H52 d           9.270  10.776   5.150  0.00  0.00    -0.049 C 
ATOM     38  H15 H52 d          10.262  11.092   4.794  0.00  0.00     0.033 H 
ATOM     39  H16 H52 d           9.380   9.912   5.823  0.00  0.00     0.033 H 
ATOM     40  H17 H52 d           8.794  11.605   5.694  0.00  0.00     0.033 H 
ENDBRANCH  24  37
ENDBRANCH  19  22
ENDBRANCH   1  19
BRANCH   2  41
ATOM     41  C2M H52 d          12.782  10.029   6.012  0.00  0.00    -0.055 C 
ATOM     42  H2  H52 d          12.371  11.013   5.743  0.00  0.00     0.030 H 
ATOM     43  H3  H52 d          13.665  10.163   6.653  0.00  0.00     0.030 H 
ATOM     44  H4  H52 d          12.020   9.450   6.554  0.00  0.00     0.030 H 
ENDBRANCH   2  41
TORSDOF 4
ENDMDL
