REMARK  5 active torsions:
REMARK  status: ('A' for Active; 'I' for Inactive)
REMARK    1  A    between atoms: C22_2  and  C31_3 
REMARK       I    between atoms: C22_2  and  N21_12 
REMARK    2  A    between atoms: C34_6  and  C41_9 
REMARK    3  A    between atoms: C41_9  and  C42_10 
REMARK    4  A    between atoms: C41_9  and  N43_11 
REMARK    5  A    between atoms: N21_12  and  C14_13 
ROOT
ATOM      1  C31 Y27 d           9.390   9.033   3.122  0.00  0.00     0.024 C 
ATOM      2  C36 Y27 d           9.802   7.926   2.147  0.00  0.00    -0.053 C 
ATOM      3  C35 Y27 d          11.177   7.372   2.533  0.00  0.00    -0.059 C 
ATOM      4  C34 Y27 d          12.191   8.500   2.307  0.00  0.00    -0.027 C 
ATOM      5  C33 Y27 d          11.885   9.672   3.277  0.00  0.00    -0.059 C 
ATOM      6  C32 Y27 d          10.410  10.189   3.138  0.00  0.00    -0.053 C 
ATOM      7  H1  Y27 d           9.379   8.601   4.133  0.00  0.00     0.054 H 
ATOM      8  H2  Y27 d           9.848   8.337   1.128  0.00  0.00     0.034 H 
ATOM      9  H3  Y27 d           9.060   7.115   2.182  0.00  0.00     0.034 H 
ATOM     10  H4  Y27 d          11.427   6.507   1.902  0.00  0.00     0.033 H 
ATOM     11  H5  Y27 d          11.179   7.068   3.590  0.00  0.00     0.033 H 
ATOM     12  H6  Y27 d          12.052   8.886   1.287  0.00  0.00     0.043 H 
ATOM     13  H7  Y27 d          12.573  10.502   3.058  0.00  0.00     0.033 H 
ATOM     14  H8  Y27 d          12.043   9.327   4.310  0.00  0.00     0.033 H 
ATOM     15  H9  Y27 d          10.184  10.850   3.988  0.00  0.00     0.034 H 
ATOM     16  H10 Y27 d          10.319  10.755   2.199  0.00  0.00     0.034 H 
ENDROOT
BRANCH   1  17
ATOM     17  C22 Y27 d           7.985   9.482   2.808  0.00  0.00     0.226 C 
ATOM     18  O23 Y27 d           7.567   9.649   1.659  0.00  0.00    -0.273 OA
ATOM     19  N21 Y27 d           7.175   9.668   3.963  0.00  0.00    -0.327 N 
ATOM     20  H18 Y27 d           7.655   9.757   4.836  0.00  0.00     0.169 HD
BRANCH  19  21
ATOM     21  C14 Y27 d           5.735   9.742   4.010  0.00  0.00     0.037 A 
ATOM     22  C15 Y27 d           5.165   9.693   5.293  0.00  0.00    -0.040 A 
ATOM     23  C16 Y27 d           3.770   9.746   5.348  0.00  0.00     0.004 A 
ATOM     24  H19 Y27 d           5.772   9.618   6.188  0.00  0.00     0.089 H 
ATOM     25  N11 Y27 d           3.010   9.854   4.238  0.00  0.00    -0.273 NA
ATOM     26  H20 Y27 d           3.282   9.699   6.315  0.00  0.00     0.114 H 
ATOM     27  C12 Y27 d           3.541   9.901   3.006  0.00  0.00     0.004 A 
ATOM     28  C13 Y27 d           4.918   9.844   2.847  0.00  0.00    -0.040 A 
ATOM     29  H21 Y27 d           2.896   9.983   2.139  0.00  0.00     0.114 H 
ATOM     30  H22 Y27 d           5.363   9.876   1.859  0.00  0.00     0.089 H 
ENDBRANCH  19  21
ENDBRANCH   1  17
BRANCH   4  31
ATOM     31  C41 Y27 d          13.635   7.916   2.377  0.00  0.00     0.100 C 
ATOM     32  H11 Y27 d          13.663   7.164   3.179  0.00  0.00     0.083 H 
BRANCH  31  33
ATOM     33  C42 Y27 d          14.009   7.234   1.048  0.00  0.00    -0.049 C 
ATOM     34  H12 Y27 d          15.030   6.829   1.118  0.00  0.00     0.030 H 
ATOM     35  H13 Y27 d          13.962   7.970   0.232  0.00  0.00     0.030 H 
ATOM     36  H14 Y27 d          13.303   6.415   0.845  0.00  0.00     0.030 H 
ENDBRANCH  31  33
BRANCH  31  37
ATOM     37  N43 Y27 d          14.651   8.984   2.688  0.00  0.00    -0.075 N 
ATOM     38  H15 Y27 d          14.410   9.434   3.558  0.00  0.00     0.274 HD
ATOM     39  H16 Y27 d          14.658   9.667   1.947  0.00  0.00     0.274 HD
ATOM     40  H17 Y27 d          15.565   8.566   2.768  0.00  0.00     0.274 HD
ENDBRANCH  31  37
ENDBRANCH   4  31
TORSDOF 5
