MODEL 1
REMARK VINA RESULT:      -7.7      0.000      0.000
REMARK  5 active torsions:
REMARK  status: ('A' for Active; 'I' for Inactive)
REMARK    1  A    between atoms: C22_2  and  C31_3 
REMARK       I    between atoms: C22_2  and  N21_12 
REMARK    2  A    between atoms: C34_6  and  C41_9 
REMARK    3  A    between atoms: C41_9  and  C42_10 
REMARK    4  A    between atoms: C41_9  and  N43_11 
REMARK    5  A    between atoms: N21_12  and  C14_13 
ROOT
ATOM      1  C31 Y27 d           8.488   9.025   4.053  0.00  0.00     0.024 C 
ATOM      2  C36 Y27 d           7.866  10.035   5.022  0.00  0.00    -0.053 C 
ATOM      3  C35 Y27 d           6.387   9.704   5.246  0.00  0.00    -0.059 C 
ATOM      4  C34 Y27 d           5.670   9.938   3.911  0.00  0.00    -0.027 C 
ATOM      5  C33 Y27 d           6.205   8.935   2.855  0.00  0.00    -0.059 C 
ATOM      6  C32 Y27 d           7.764   9.016   2.693  0.00  0.00    -0.053 C 
ATOM      7  H1  Y27 d           8.363   8.023   4.489  0.00  0.00     0.054 H 
ATOM      8  H2  Y27 d           7.952  11.046   4.598  0.00  0.00     0.034 H 
ATOM      9  H3  Y27 d           8.398   9.994   5.983  0.00  0.00     0.034 H 
ATOM     10  H4  Y27 d           5.966  10.361   6.021  0.00  0.00     0.033 H 
ATOM     11  H5  Y27 d           6.277   8.654   5.556  0.00  0.00     0.033 H 
ATOM     12  H6  Y27 d           5.931  10.945   3.555  0.00  0.00     0.043 H 
ATOM     13  H7  Y27 d           5.736   9.158   1.885  0.00  0.00     0.033 H 
ATOM     14  H8  Y27 d           5.935   7.915   3.167  0.00  0.00     0.033 H 
ATOM     15  H9  Y27 d           8.106   8.146   2.113  0.00  0.00     0.034 H 
ATOM     16  H10 Y27 d           8.016   9.940   2.151  0.00  0.00     0.034 H 
ENDROOT
BRANCH   1  17
ATOM     17  C22 Y27 d           9.969   9.285   3.939  0.00  0.00     0.226 C 
ATOM     18  O23 Y27 d          10.504  10.335   4.306  0.00  0.00    -0.273 OA
ATOM     19  N21 Y27 d          10.699   8.192   3.392  0.00  0.00    -0.327 N 
ATOM     20  H18 Y27 d          10.168   7.502   2.899  0.00  0.00     0.169 HD
BRANCH  19  21
ATOM     21  C14 Y27 d          12.122   7.972   3.474  0.00  0.00     0.037 A 
ATOM     22  C15 Y27 d          12.857   8.312   2.325  0.00  0.00    -0.040 A 
ATOM     23  C16 Y27 d          14.234   8.086   2.388  0.00  0.00     0.004 A 
ATOM     24  H19 Y27 d          12.382   8.725   1.442  0.00  0.00     0.089 H 
ATOM     25  N11 Y27 d          14.832   7.586   3.489  0.00  0.00    -0.273 NA
ATOM     26  H20 Y27 d          14.843   8.321   1.522  0.00  0.00     0.114 H 
ATOM     27  C12 Y27 d          14.142   7.256   4.593  0.00  0.00     0.004 A 
ATOM     28  C13 Y27 d          12.767   7.434   4.625  0.00  0.00    -0.040 A 
ATOM     29  H21 Y27 d          14.659   6.853   5.456  0.00  0.00     0.114 H 
ATOM     30  H22 Y27 d          12.194   7.169   5.506  0.00  0.00     0.089 H 
ENDBRANCH  19  21
ENDBRANCH   1  17
BRANCH   4  31
ATOM     31  C41 Y27 d           4.129   9.926   4.145  0.00  0.00     0.100 C 
ATOM     32  H11 Y27 d           3.757  10.955   4.036  0.00  0.00     0.083 H 
BRANCH  31  33
ATOM     33  C42 Y27 d           3.429   9.035   3.101  0.00  0.00    -0.049 C 
ATOM     34  H12 Y27 d           3.651   9.412   2.091  0.00  0.00     0.030 H 
ATOM     35  H13 Y27 d           2.343   9.057   3.270  0.00  0.00     0.030 H 
ATOM     36  H14 Y27 d           3.796   8.002   3.196  0.00  0.00     0.030 H 
ENDBRANCH  31  33
BRANCH  31  37
ATOM     37  N43 Y27 d           3.781   9.435   5.526  0.00  0.00    -0.075 N 
ATOM     38  H15 Y27 d           2.906   8.935   5.495  0.00  0.00     0.274 HD
ATOM     39  H16 Y27 d           3.697  10.221   6.151  0.00  0.00     0.274 HD
ATOM     40  H17 Y27 d           4.508   8.819   5.857  0.00  0.00     0.274 HD
ENDBRANCH  31  37
ENDBRANCH   4  31
TORSDOF 5
ENDMDL
MODEL 2
REMARK VINA RESULT:      -7.7      1.106      1.819
REMARK  5 active torsions:
REMARK  status: ('A' for Active; 'I' for Inactive)
REMARK    1  A    between atoms: C22_2  and  C31_3 
REMARK       I    between atoms: C22_2  and  N21_12 
REMARK    2  A    between atoms: C34_6  and  C41_9 
REMARK    3  A    between atoms: C41_9  and  C42_10 
REMARK    4  A    between atoms: C41_9  and  N43_11 
REMARK    5  A    between atoms: N21_12  and  C14_13 
ROOT
ATOM      1  C31 Y27 d           8.646   9.981   3.455  0.00  0.00     0.024 C 
ATOM      2  C36 Y27 d           7.670   9.335   2.467  0.00  0.00    -0.053 C 
ATOM      3  C35 Y27 d           6.265   9.913   2.665  0.00  0.00    -0.059 C 
ATOM      4  C34 Y27 d           5.788   9.461   4.050  0.00  0.00    -0.027 C 
ATOM      5  C33 Y27 d           6.696  10.091   5.140  0.00  0.00    -0.059 C 
ATOM      6  C32 Y27 d           8.212   9.756   4.917  0.00  0.00    -0.053 C 
ATOM      7  H1  Y27 d           8.631  11.066   3.279  0.00  0.00     0.054 H 
ATOM      8  H2  Y27 d           7.644   8.249   2.638  0.00  0.00     0.034 H 
ATOM      9  H3  Y27 d           8.005   9.537   1.439  0.00  0.00     0.034 H 
ATOM     10  H4  Y27 d           5.586   9.532   1.888  0.00  0.00     0.033 H 
ATOM     11  H5  Y27 d           6.298  11.012   2.616  0.00  0.00     0.033 H 
ATOM     12  H6  Y27 d           5.918   8.372   4.118  0.00  0.00     0.043 H 
ATOM     13  H7  Y27 d           6.389   9.705   6.123  0.00  0.00     0.033 H 
ATOM     14  H8  Y27 d           6.568  11.184   5.119  0.00  0.00     0.033 H 
ATOM     15  H9  Y27 d           8.818  10.402   5.570  0.00  0.00     0.034 H 
ATOM     16  H10 Y27 d           8.386   8.702   5.180  0.00  0.00     0.034 H 
ENDROOT
BRANCH   1  17
ATOM     17  C22 Y27 d          10.045   9.498   3.167  0.00  0.00     0.226 C 
ATOM     18  O23 Y27 d          10.654   9.763   2.127  0.00  0.00    -0.273 OA
ATOM     19  N21 Y27 d          10.611   8.729   4.222  0.00  0.00    -0.327 N 
ATOM     20  H18 Y27 d           9.972   8.358   4.897  0.00  0.00     0.169 HD
BRANCH  19  21
ATOM     21  C14 Y27 d          12.007   8.426   4.424  0.00  0.00     0.037 A 
ATOM     22  C15 Y27 d          12.687   9.263   5.324  0.00  0.00    -0.040 A 
ATOM     23  C16 Y27 d          14.044   8.990   5.513  0.00  0.00     0.004 A 
ATOM     24  H19 Y27 d          12.188  10.074   5.842  0.00  0.00     0.089 H 
ATOM     25  N11 Y27 d          14.667   7.972   4.881  0.00  0.00    -0.273 NA
ATOM     26  H20 Y27 d          14.615   9.616   6.189  0.00  0.00     0.114 H 
ATOM     27  C12 Y27 d          14.030   7.165   4.018  0.00  0.00     0.004 A 
ATOM     28  C13 Y27 d          12.682   7.364   3.756  0.00  0.00    -0.040 A 
ATOM     29  H21 Y27 d          14.567   6.362   3.527  0.00  0.00     0.114 H 
ATOM     30  H22 Y27 d          12.154   6.725   3.058  0.00  0.00     0.089 H 
ENDBRANCH  19  21
ENDBRANCH   1  17
BRANCH   4  31
ATOM     31  C41 Y27 d           4.261   9.744   4.187  0.00  0.00     0.100 C 
ATOM     32  H11 Y27 d           4.096  10.821   4.035  0.00  0.00     0.083 H 
BRANCH  31  33
ATOM     33  C42 Y27 d           3.468   8.969   3.119  0.00  0.00    -0.049 C 
ATOM     34  H12 Y27 d           3.248   7.956   3.490  0.00  0.00     0.030 H 
ATOM     35  H13 Y27 d           4.064   8.900   2.198  0.00  0.00     0.030 H 
ATOM     36  H14 Y27 d           2.525   9.495   2.909  0.00  0.00     0.030 H 
ENDBRANCH  31  33
BRANCH  31  37
ATOM     37  N43 Y27 d           3.748   9.371   5.553  0.00  0.00    -0.075 N 
ATOM     38  H15 Y27 d           2.749   9.510   5.587  0.00  0.00     0.274 HD
ATOM     39  H16 Y27 d           4.191   9.950   6.249  0.00  0.00     0.274 HD
ATOM     40  H17 Y27 d           3.958   8.402   5.739  0.00  0.00     0.274 HD
ENDBRANCH  31  37
ENDBRANCH   4  31
TORSDOF 5
ENDMDL
MODEL 3
REMARK VINA RESULT:      -7.7      1.364      1.709
REMARK  5 active torsions:
REMARK  status: ('A' for Active; 'I' for Inactive)
REMARK    1  A    between atoms: C22_2  and  C31_3 
REMARK       I    between atoms: C22_2  and  N21_12 
REMARK    2  A    between atoms: C34_6  and  C41_9 
REMARK    3  A    between atoms: C41_9  and  C42_10 
REMARK    4  A    between atoms: C41_9  and  N43_11 
REMARK    5  A    between atoms: N21_12  and  C14_13 
ROOT
ATOM      1  C31 Y27 d           8.475   9.314   3.797  0.00  0.00     0.024 C 
ATOM      2  C36 Y27 d           7.800  10.196   4.853  0.00  0.00    -0.053 C 
ATOM      3  C35 Y27 d           6.361   9.726   5.087  0.00  0.00    -0.059 C 
ATOM      4  C34 Y27 d           5.588   9.995   3.790  0.00  0.00    -0.027 C 
ATOM      5  C33 Y27 d           6.172   9.120   2.650  0.00  0.00    -0.059 C 
ATOM      6  C32 Y27 d           7.713   9.344   2.457  0.00  0.00    -0.053 C 
ATOM      7  H1  Y27 d           8.445   8.277   4.160  0.00  0.00     0.054 H 
ATOM      8  H2  Y27 d           7.791  11.239   4.504  0.00  0.00     0.034 H 
ATOM      9  H3  Y27 d           8.363  10.130   5.796  0.00  0.00     0.034 H 
ATOM     10  H4  Y27 d           5.911  10.287   5.919  0.00  0.00     0.033 H 
ATOM     11  H5  Y27 d           6.348   8.651   5.319  0.00  0.00     0.033 H 
ATOM     12  H6  Y27 d           5.755  11.044   3.504  0.00  0.00     0.043 H 
ATOM     13  H7  Y27 d           5.658   9.372   1.711  0.00  0.00     0.033 H 
ATOM     14  H8  Y27 d           5.996   8.061   2.891  0.00  0.00     0.033 H 
ATOM     15  H9  Y27 d           8.109   8.550   1.806  0.00  0.00     0.034 H 
ATOM     16  H10 Y27 d           7.873  10.322   1.980  0.00  0.00     0.034 H 
ENDROOT
BRANCH   1  17
ATOM     17  C22 Y27 d           9.925   9.706   3.667  0.00  0.00     0.226 C 
ATOM     18  O23 Y27 d          10.623  10.051   4.625  0.00  0.00    -0.273 OA
ATOM     19  N21 Y27 d          10.424   9.612   2.338  0.00  0.00    -0.327 N 
ATOM     20  H18 Y27 d           9.742   9.573   1.607  0.00  0.00     0.169 HD
BRANCH  19  21
ATOM     21  C14 Y27 d          11.807   9.566   1.931  0.00  0.00     0.037 A 
ATOM     22  C15 Y27 d          12.274  10.694   1.235  0.00  0.00    -0.040 A 
ATOM     23  C16 Y27 d          13.608  10.652   0.822  0.00  0.00     0.004 A 
ATOM     24  H19 Y27 d          11.636  11.547   1.031  0.00  0.00     0.089 H 
ATOM     25  N11 Y27 d          14.410   9.599   1.086  0.00  0.00    -0.273 NA
ATOM     26  H20 Y27 d          14.011  11.493   0.270  0.00  0.00     0.114 H 
ATOM     27  C12 Y27 d          13.977   8.515   1.749  0.00  0.00     0.004 A 
ATOM     28  C13 Y27 d          12.664   8.458   2.192  0.00  0.00    -0.040 A 
ATOM     29  H21 Y27 d          14.651   7.688   1.937  0.00  0.00     0.114 H 
ATOM     30  H22 Y27 d          12.296   7.588   2.725  0.00  0.00     0.089 H 
ENDBRANCH  19  21
ENDBRANCH   1  17
BRANCH   4  31
ATOM     31  C41 Y27 d           4.061   9.836   4.059  0.00  0.00     0.100 C 
ATOM     32  H11 Y27 d           3.588  10.823   3.946  0.00  0.00     0.083 H 
BRANCH  31  33
ATOM     33  C42 Y27 d           3.430   8.867   3.042  0.00  0.00    -0.049 C 
ATOM     34  H12 Y27 d           3.181   9.414   2.120  0.00  0.00     0.030 H 
ATOM     35  H13 Y27 d           2.513   8.433   3.469  0.00  0.00     0.030 H 
ATOM     36  H14 Y27 d           4.144   8.063   2.810  0.00  0.00     0.030 H 
ENDBRANCH  31  33
BRANCH  31  37
ATOM     37  N43 Y27 d           3.792   9.334   5.453  0.00  0.00    -0.075 N 
ATOM     38  H15 Y27 d           3.751   8.326   5.446  0.00  0.00     0.274 HD
ATOM     39  H16 Y27 d           2.913   9.704   5.780  0.00  0.00     0.274 HD
ATOM     40  H17 Y27 d           4.532   9.635   6.068  0.00  0.00     0.274 HD
ENDBRANCH  31  37
ENDBRANCH   4  31
TORSDOF 5
ENDMDL
MODEL 4
REMARK VINA RESULT:      -7.6      1.045      1.561
REMARK  5 active torsions:
REMARK  status: ('A' for Active; 'I' for Inactive)
REMARK    1  A    between atoms: C22_2  and  C31_3 
REMARK       I    between atoms: C22_2  and  N21_12 
REMARK    2  A    between atoms: C34_6  and  C41_9 
REMARK    3  A    between atoms: C41_9  and  C42_10 
REMARK    4  A    between atoms: C41_9  and  N43_11 
REMARK    5  A    between atoms: N21_12  and  C14_13 
ROOT
ATOM      1  C31 Y27 d           8.640   8.993   3.712  0.00  0.00     0.024 C 
ATOM      2  C36 Y27 d           7.571   8.649   2.671  0.00  0.00    -0.053 C 
ATOM      3  C35 Y27 d           6.367   9.584   2.827  0.00  0.00    -0.059 C 
ATOM      4  C34 Y27 d           5.724   9.260   4.181  0.00  0.00    -0.027 C 
ATOM      5  C33 Y27 d           6.719   9.606   5.321  0.00  0.00    -0.059 C 
ATOM      6  C32 Y27 d           8.097   8.875   5.150  0.00  0.00    -0.053 C 
ATOM      7  H1  Y27 d           8.927  10.044   3.563  0.00  0.00     0.054 H 
ATOM      8  H2  Y27 d           7.244   7.609   2.814  0.00  0.00     0.034 H 
ATOM      9  H3  Y27 d           7.993   8.765   1.662  0.00  0.00     0.034 H 
ATOM     10  H4  Y27 d           5.646   9.411   2.015  0.00  0.00     0.033 H 
ATOM     11  H5  Y27 d           6.698  10.633   2.807  0.00  0.00     0.033 H 
ATOM     12  H6  Y27 d           5.551   8.176   4.227  0.00  0.00     0.043 H 
ATOM     13  H7  Y27 d           6.275   9.304   6.282  0.00  0.00     0.033 H 
ATOM     14  H8  Y27 d           6.893  10.692   5.322  0.00  0.00     0.033 H 
ATOM     15  H9  Y27 d           8.825   9.323   5.842  0.00  0.00     0.034 H 
ATOM     16  H10 Y27 d           7.967   7.810   5.394  0.00  0.00     0.034 H 
ENDROOT
BRANCH   1  17
ATOM     17  C22 Y27 d           9.868   8.151   3.468  0.00  0.00     0.226 C 
ATOM     18  O23 Y27 d           9.914   7.245   2.631  0.00  0.00    -0.273 OA
ATOM     19  N21 Y27 d          10.981   8.520   4.274  0.00  0.00    -0.327 N 
ATOM     20  H18 Y27 d          10.783   9.077   5.081  0.00  0.00     0.169 HD
BRANCH  19  21
ATOM     21  C14 Y27 d          12.364   8.176   4.053  0.00  0.00     0.037 A 
ATOM     22  C15 Y27 d          12.924   8.649   2.855  0.00  0.00    -0.040 A 
ATOM     23  C16 Y27 d          14.259   8.305   2.623  0.00  0.00     0.004 A 
ATOM     24  H19 Y27 d          12.355   9.244   2.151  0.00  0.00     0.089 H 
ATOM     25  N11 Y27 d          14.977   7.577   3.503  0.00  0.00    -0.273 NA
ATOM     26  H20 Y27 d          14.733   8.636   1.706  0.00  0.00     0.114 H 
ATOM     27  C12 Y27 d          14.455   7.118   4.651  0.00  0.00     0.004 A 
ATOM     28  C13 Y27 d          13.133   7.397   4.966  0.00  0.00    -0.040 A 
ATOM     29  H21 Y27 d          15.063   6.531   5.329  0.00  0.00     0.114 H 
ATOM     30  H22 Y27 d          12.694   7.031   5.887  0.00  0.00     0.089 H 
ENDBRANCH  19  21
ENDBRANCH   1  17
BRANCH   4  31
ATOM     31  C41 Y27 d           4.326   9.946   4.265  0.00  0.00     0.100 C 
ATOM     32  H11 Y27 d           4.456  11.017   4.052  0.00  0.00     0.083 H 
BRANCH  31  33
ATOM     33  C42 Y27 d           3.366   9.347   3.220  0.00  0.00    -0.049 C 
ATOM     34  H12 Y27 d           2.990   8.378   3.581  0.00  0.00     0.030 H 
ATOM     35  H13 Y27 d           3.902   9.202   2.270  0.00  0.00     0.030 H 
ATOM     36  H14 Y27 d           2.521  10.034   3.064  0.00  0.00     0.030 H 
ENDBRANCH  31  33
BRANCH  31  37
ATOM     37  N43 Y27 d           3.719   9.801   5.636  0.00  0.00    -0.075 N 
ATOM     38  H15 Y27 d           4.410  10.023   6.335  0.00  0.00     0.274 HD
ATOM     39  H16 Y27 d           3.402   8.853   5.765  0.00  0.00     0.274 HD
ATOM     40  H17 Y27 d           2.936  10.431   5.725  0.00  0.00     0.274 HD
ENDBRANCH  31  37
ENDBRANCH   4  31
TORSDOF 5
ENDMDL
MODEL 5
REMARK VINA RESULT:      -7.4      1.792      7.493
REMARK  5 active torsions:
REMARK  status: ('A' for Active; 'I' for Inactive)
REMARK    1  A    between atoms: C22_2  and  C31_3 
REMARK       I    between atoms: C22_2  and  N21_12 
REMARK    2  A    between atoms: C34_6  and  C41_9 
REMARK    3  A    between atoms: C41_9  and  C42_10 
REMARK    4  A    between atoms: C41_9  and  N43_11 
REMARK    5  A    between atoms: N21_12  and  C14_13 
ROOT
ATOM      1  C31 Y27 d           9.570   9.368   2.415  0.00  0.00     0.024 C 
ATOM      2  C36 Y27 d           9.980   9.936   3.777  0.00  0.00    -0.053 C 
ATOM      3  C35 Y27 d          11.507   9.977   3.890  0.00  0.00    -0.059 C 
ATOM      4  C34 Y27 d          11.992   8.522   3.902  0.00  0.00    -0.027 C 
ATOM      5  C33 Y27 d          11.655   7.854   2.543  0.00  0.00    -0.059 C 
ATOM      6  C32 Y27 d          10.128   7.947   2.197  0.00  0.00    -0.053 C 
ATOM      7  H1  Y27 d          10.013  10.009   1.639  0.00  0.00     0.054 H 
ATOM      8  H2  Y27 d           9.573   9.297   4.575  0.00  0.00     0.034 H 
ATOM      9  H3  Y27 d           9.580  10.954   3.883  0.00  0.00     0.034 H 
ATOM     10  H4  Y27 d          11.804  10.482   4.821  0.00  0.00     0.033 H 
ATOM     11  H5  Y27 d          11.936  10.511   3.030  0.00  0.00     0.033 H 
ATOM     12  H6  Y27 d          11.427   7.979   4.673  0.00  0.00     0.043 H 
ATOM     13  H7  Y27 d          11.944   6.793   2.588  0.00  0.00     0.033 H 
ATOM     14  H8  Y27 d          12.229   8.357   1.749  0.00  0.00     0.033 H 
ATOM     15  H9  Y27 d           9.985   7.668   1.142  0.00  0.00     0.034 H 
ATOM     16  H10 Y27 d           9.574   7.247   2.840  0.00  0.00     0.034 H 
ENDROOT
BRANCH   1  17
ATOM     17  C22 Y27 d           8.072   9.450   2.267  0.00  0.00     0.226 C 
ATOM     18  O23 Y27 d           7.480   9.206   1.212  0.00  0.00    -0.273 OA
ATOM     19  N21 Y27 d           7.399   9.807   3.469  0.00  0.00    -0.327 N 
ATOM     20  H18 Y27 d           7.957  10.224   4.187  0.00  0.00     0.169 HD
BRANCH  19  21
ATOM     21  C14 Y27 d           5.998   9.631   3.765  0.00  0.00     0.037 A 
ATOM     22  C15 Y27 d           5.577  10.106   5.018  0.00  0.00    -0.040 A 
ATOM     23  C16 Y27 d           4.225   9.924   5.321  0.00  0.00     0.004 A 
ATOM     24  H19 Y27 d           6.260  10.584   5.710  0.00  0.00     0.089 H 
ATOM     25  N11 Y27 d           3.366   9.342   4.458  0.00  0.00    -0.273 NA
ATOM     26  H20 Y27 d           3.853  10.262   6.282  0.00  0.00     0.114 H 
ATOM     27  C12 Y27 d           3.755   8.883   3.257  0.00  0.00     0.004 A 
ATOM     28  C13 Y27 d           5.081   9.008   2.869  0.00  0.00    -0.040 A 
ATOM     29  H21 Y27 d           3.036   8.417   2.594  0.00  0.00     0.114 H 
ATOM     30  H22 Y27 d           5.413   8.638   1.906  0.00  0.00     0.089 H 
ENDBRANCH  19  21
ENDBRANCH   1  17
BRANCH   4  31
ATOM     31  C41 Y27 d          13.492   8.483   4.328  0.00  0.00     0.100 C 
ATOM     32  H11 Y27 d          13.670   9.307   5.034  0.00  0.00     0.083 H 
BRANCH  31  33
ATOM     33  C42 Y27 d          13.821   7.152   5.031  0.00  0.00    -0.049 C 
ATOM     34  H12 Y27 d          13.157   7.023   5.900  0.00  0.00     0.030 H 
ATOM     35  H13 Y27 d          14.868   7.165   5.368  0.00  0.00     0.030 H 
ATOM     36  H14 Y27 d          13.671   6.320   4.328  0.00  0.00     0.030 H 
ENDBRANCH  31  33
BRANCH  31  37
ATOM     37  N43 Y27 d          14.409   8.658   3.147  0.00  0.00    -0.075 N 
ATOM     38  H15 Y27 d          15.268   9.092   3.449  0.00  0.00     0.274 HD
ATOM     39  H16 Y27 d          13.962   9.242   2.458  0.00  0.00     0.274 HD
ATOM     40  H17 Y27 d          14.613   7.757   2.742  0.00  0.00     0.274 HD
ENDBRANCH  31  37
ENDBRANCH   4  31
TORSDOF 5
ENDMDL
MODEL 6
REMARK VINA RESULT:      -7.3      1.951      7.604
REMARK  5 active torsions:
REMARK  status: ('A' for Active; 'I' for Inactive)
REMARK    1  A    between atoms: C22_2  and  C31_3 
REMARK       I    between atoms: C22_2  and  N21_12 
REMARK    2  A    between atoms: C34_6  and  C41_9 
REMARK    3  A    between atoms: C41_9  and  C42_10 
REMARK    4  A    between atoms: C41_9  and  N43_11 
REMARK    5  A    between atoms: N21_12  and  C14_13 
ROOT
ATOM      1  C31 Y27 d           9.796   9.472   3.284  0.00  0.00     0.024 C 
ATOM      2  C36 Y27 d          10.958   8.692   3.906  0.00  0.00    -0.053 C 
ATOM      3  C35 Y27 d          12.293   9.311   3.478  0.00  0.00    -0.059 C 
ATOM      4  C34 Y27 d          12.424   9.085   1.967  0.00  0.00    -0.027 C 
ATOM      5  C33 Y27 d          11.304   9.865   1.228  0.00  0.00    -0.059 C 
ATOM      6  C32 Y27 d           9.873   9.482   1.744  0.00  0.00    -0.053 C 
ATOM      7  H1  Y27 d           9.878  10.517   3.616  0.00  0.00     0.054 H 
ATOM      8  H2  Y27 d          10.917   7.646   3.568  0.00  0.00     0.034 H 
ATOM      9  H3  Y27 d          10.876   8.728   5.002  0.00  0.00     0.034 H 
ATOM     10  H4  Y27 d          13.123   8.821   4.007  0.00  0.00     0.033 H 
ATOM     11  H5  Y27 d          12.299  10.388   3.701  0.00  0.00     0.033 H 
ATOM     12  H6  Y27 d          12.255   8.017   1.764  0.00  0.00     0.043 H 
ATOM     13  H7  Y27 d          11.365   9.639   0.153  0.00  0.00     0.033 H 
ATOM     14  H8  Y27 d          11.461  10.943   1.386  0.00  0.00     0.033 H 
ATOM     15  H9  Y27 d           9.148  10.213   1.357  0.00  0.00     0.034 H 
ATOM     16  H10 Y27 d           9.617   8.479   1.370  0.00  0.00     0.034 H 
ENDROOT
BRANCH   1  17
ATOM     17  C22 Y27 d           8.490   8.933   3.812  0.00  0.00     0.226 C 
ATOM     18  O23 Y27 d           8.417   8.109   4.728  0.00  0.00    -0.273 OA
ATOM     19  N21 Y27 d           7.345   9.486   3.173  0.00  0.00    -0.327 N 
ATOM     20  H18 Y27 d           7.499   9.939   2.294  0.00  0.00     0.169 HD
BRANCH  19  21
ATOM     21  C14 Y27 d           5.986   9.464   3.656  0.00  0.00     0.037 A 
ATOM     22  C15 Y27 d           5.031   8.949   2.764  0.00  0.00    -0.040 A 
ATOM     23  C16 Y27 d           3.710   8.940   3.216  0.00  0.00     0.004 A 
ATOM     24  H19 Y27 d           5.304   8.580   1.781  0.00  0.00     0.089 H 
ATOM     25  N11 Y27 d           3.366   9.384   4.443  0.00  0.00    -0.273 NA
ATOM     26  H20 Y27 d           2.934   8.563   2.559  0.00  0.00     0.114 H 
ATOM     27  C12 Y27 d           4.267   9.880   5.305  0.00  0.00     0.004 A 
ATOM     28  C13 Y27 d           5.605   9.941   4.944  0.00  0.00    -0.040 A 
ATOM     29  H21 Y27 d           3.951  10.232   6.280  0.00  0.00     0.114 H 
ATOM     30  H22 Y27 d           6.346  10.343   5.626  0.00  0.00     0.089 H 
ENDBRANCH  19  21
ENDBRANCH   1  17
BRANCH   4  31
ATOM     31  C41 Y27 d          13.884   9.404   1.523  0.00  0.00     0.100 C 
ATOM     32  H11 Y27 d          14.324  10.093   2.259  0.00  0.00     0.083 H 
BRANCH  31  33
ATOM     33  C42 Y27 d          14.732   8.119   1.484  0.00  0.00    -0.049 C 
ATOM     34  H12 Y27 d          15.542   8.236   0.747  0.00  0.00     0.030 H 
ATOM     35  H13 Y27 d          14.096   7.269   1.196  0.00  0.00     0.030 H 
ATOM     36  H14 Y27 d          15.165   7.935   2.478  0.00  0.00     0.030 H 
ENDBRANCH  31  33
BRANCH  31  37
ATOM     37  N43 Y27 d          13.921  10.063   0.169  0.00  0.00    -0.075 N 
ATOM     38  H15 Y27 d          14.825   9.911  -0.254  0.00  0.00     0.274 HD
ATOM     39  H16 Y27 d          13.761  11.052   0.272  0.00  0.00     0.274 HD
ATOM     40  H17 Y27 d          13.204   9.666  -0.418  0.00  0.00     0.274 HD
ENDBRANCH  31  37
ENDBRANCH   4  31
TORSDOF 5
ENDMDL
MODEL 7
REMARK VINA RESULT:      -7.1      0.860      1.504
REMARK  5 active torsions:
REMARK  status: ('A' for Active; 'I' for Inactive)
REMARK    1  A    between atoms: C22_2  and  C31_3 
REMARK       I    between atoms: C22_2  and  N21_12 
REMARK    2  A    between atoms: C34_6  and  C41_9 
REMARK    3  A    between atoms: C41_9  and  C42_10 
REMARK    4  A    between atoms: C41_9  and  N43_11 
REMARK    5  A    between atoms: N21_12  and  C14_13 
ROOT
ATOM      1  C31 Y27 d           8.622   8.901   3.597  0.00  0.00     0.024 C 
ATOM      2  C36 Y27 d           7.984   9.525   4.842  0.00  0.00    -0.053 C 
ATOM      3  C35 Y27 d           6.556   8.998   5.018  0.00  0.00    -0.059 C 
ATOM      4  C34 Y27 d           5.735   9.533   3.839  0.00  0.00    -0.027 C 
ATOM      5  C33 Y27 d           6.280   8.933   2.516  0.00  0.00    -0.059 C 
ATOM      6  C32 Y27 d           7.812   9.212   2.323  0.00  0.00    -0.053 C 
ATOM      7  H1  Y27 d           8.610   7.809   3.726  0.00  0.00     0.054 H 
ATOM      8  H2  Y27 d           7.957  10.618   4.728  0.00  0.00     0.034 H 
ATOM      9  H3  Y27 d           8.580   9.262   5.727  0.00  0.00     0.034 H 
ATOM     10  H4  Y27 d           6.134   9.360   5.967  0.00  0.00     0.033 H 
ATOM     11  H5  Y27 d           6.555   7.898   5.012  0.00  0.00     0.033 H 
ATOM     12  H6  Y27 d           5.886  10.620   3.782  0.00  0.00     0.043 H 
ATOM     13  H7  Y27 d           5.730   9.377   1.672  0.00  0.00     0.033 H 
ATOM     14  H8  Y27 d           6.117   7.845   2.527  0.00  0.00     0.033 H 
ATOM     15  H9  Y27 d           8.186   8.583   1.502  0.00  0.00     0.034 H 
ATOM     16  H10 Y27 d           7.950  10.272   2.065  0.00  0.00     0.034 H 
ENDROOT
BRANCH   1  17
ATOM     17  C22 Y27 d          10.065   9.329   3.505  0.00  0.00     0.226 C 
ATOM     18  O23 Y27 d          10.465  10.446   3.844  0.00  0.00    -0.273 OA
ATOM     19  N21 Y27 d          10.931   8.311   3.015  0.00  0.00    -0.327 N 
ATOM     20  H18 Y27 d          10.497   7.548   2.536  0.00  0.00     0.169 HD
BRANCH  19  21
ATOM     21  C14 Y27 d          12.368   8.262   3.135  0.00  0.00     0.037 A 
ATOM     22  C15 Y27 d          12.862   8.009   4.425  0.00  0.00    -0.040 A 
ATOM     23  C16 Y27 d          14.253   7.978   4.555  0.00  0.00     0.004 A 
ATOM     24  H19 Y27 d          12.203   7.848   5.270  0.00  0.00     0.089 H 
ATOM     25  N11 Y27 d          15.078   8.163   3.503  0.00  0.00    -0.273 NA
ATOM     26  H20 Y27 d          14.683   7.798   5.533  0.00  0.00     0.114 H 
ATOM     27  C12 Y27 d          14.619   8.407   2.265  0.00  0.00     0.004 A 
ATOM     28  C13 Y27 d          13.252   8.468   2.037  0.00  0.00    -0.040 A 
ATOM     29  H21 Y27 d          15.315   8.555   1.447  0.00  0.00     0.114 H 
ATOM     30  H22 Y27 d          12.865   8.668   1.044  0.00  0.00     0.089 H 
ENDBRANCH  19  21
ENDBRANCH   1  17
BRANCH   4  31
ATOM     31  C41 Y27 d           4.219   9.301   4.120  0.00  0.00     0.100 C 
ATOM     32  H11 Y27 d           4.060   8.225   4.283  0.00  0.00     0.083 H 
BRANCH  31  33
ATOM     33  C42 Y27 d           3.779  10.062   5.384  0.00  0.00    -0.049 C 
ATOM     34  H12 Y27 d           4.488  10.880   5.586  0.00  0.00     0.030 H 
ATOM     35  H13 Y27 d           3.763   9.372   6.241  0.00  0.00     0.030 H 
ATOM     36  H14 Y27 d           2.773  10.479   5.230  0.00  0.00     0.030 H 
ENDBRANCH  31  33
BRANCH  31  37
ATOM     37  N43 Y27 d           3.366   9.739   2.958  0.00  0.00    -0.075 N 
ATOM     38  H15 Y27 d           3.761  10.571   2.546  0.00  0.00     0.274 HD
ATOM     39  H16 Y27 d           2.432   9.935   3.281  0.00  0.00     0.274 HD
ATOM     40  H17 Y27 d           3.335   9.005   2.267  0.00  0.00     0.274 HD
ENDBRANCH  31  37
ENDBRANCH   4  31
TORSDOF 5
ENDMDL
MODEL 8
REMARK VINA RESULT:      -7.0      1.549      2.457
REMARK  5 active torsions:
REMARK  status: ('A' for Active; 'I' for Inactive)
REMARK    1  A    between atoms: C22_2  and  C31_3 
REMARK       I    between atoms: C22_2  and  N21_12 
REMARK    2  A    between atoms: C34_6  and  C41_9 
REMARK    3  A    between atoms: C41_9  and  C42_10 
REMARK    4  A    between atoms: C41_9  and  N43_11 
REMARK    5  A    between atoms: N21_12  and  C14_13 
ROOT
ATOM      1  C31 Y27 d           9.928  10.098   3.457  0.00  0.00     0.024 C 
ATOM      2  C36 Y27 d           9.257   8.978   2.657  0.00  0.00    -0.053 C 
ATOM      3  C35 Y27 d           7.763   9.272   2.493  0.00  0.00    -0.059 C 
ATOM      4  C34 Y27 d           7.138   9.193   3.891  0.00  0.00    -0.027 C 
ATOM      5  C33 Y27 d           7.726  10.317   4.785  0.00  0.00    -0.059 C 
ATOM      6  C32 Y27 d           9.293  10.263   4.853  0.00  0.00    -0.053 C 
ATOM      7  H1  Y27 d           9.762  11.041   2.916  0.00  0.00     0.054 H 
ATOM      8  H2  Y27 d           9.384   8.024   3.190  0.00  0.00     0.034 H 
ATOM      9  H3  Y27 d           9.726   8.908   1.665  0.00  0.00     0.034 H 
ATOM     10  H4  Y27 d           7.301   8.526   1.830  0.00  0.00     0.033 H 
ATOM     11  H5  Y27 d           7.620  10.277   2.071  0.00  0.00     0.033 H 
ATOM     12  H6  Y27 d           7.434   8.237   4.346  0.00  0.00     0.043 H 
ATOM     13  H7  Y27 d           7.324  10.208   5.803  0.00  0.00     0.033 H 
ATOM     14  H8  Y27 d           7.423  11.292   4.373  0.00  0.00     0.033 H 
ATOM     15  H9  Y27 d           9.661  11.198   5.302  0.00  0.00     0.034 H 
ATOM     16  H10 Y27 d           9.592   9.411   5.481  0.00  0.00     0.034 H 
ENDROOT
BRANCH   1  17
ATOM     17  C22 Y27 d          11.416   9.861   3.504  0.00  0.00     0.226 C 
ATOM     18  O23 Y27 d          12.123  10.174   4.466  0.00  0.00    -0.273 OA
ATOM     19  N21 Y27 d          11.927   9.215   2.343  0.00  0.00    -0.327 N 
ATOM     20  H18 Y27 d          11.344   9.231   1.530  0.00  0.00     0.169 HD
BRANCH  19  21
ATOM     21  C14 Y27 d          13.195   8.540   2.213  0.00  0.00     0.037 A 
ATOM     22  C15 Y27 d          13.366   7.405   3.024  0.00  0.00    -0.040 A 
ATOM     23  C16 Y27 d          14.597   6.754   2.919  0.00  0.00     0.004 A 
ATOM     24  H19 Y27 d          12.587   7.056   3.693  0.00  0.00     0.089 H 
ATOM     25  N11 Y27 d          15.564   7.177   2.077  0.00  0.00    -0.273 NA
ATOM     26  H20 Y27 d          14.782   5.881   3.533  0.00  0.00     0.114 H 
ATOM     27  C12 Y27 d          15.415   8.259   1.298  0.00  0.00     0.004 A 
ATOM     28  C13 Y27 d          14.230   8.980   1.339  0.00  0.00    -0.040 A 
ATOM     29  H21 Y27 d          16.218   8.569   0.639  0.00  0.00     0.114 H 
ATOM     30  H22 Y27 d          14.095   9.859   0.719  0.00  0.00     0.089 H 
ENDBRANCH  19  21
ENDBRANCH   1  17
BRANCH   4  31
ATOM     31  C41 Y27 d           5.584   9.170   3.760  0.00  0.00     0.100 C 
ATOM     32  H11 Y27 d           5.261   8.121   3.690  0.00  0.00     0.083 H 
BRANCH  31  33
ATOM     33  C42 Y27 d           4.926   9.807   4.998  0.00  0.00    -0.049 C 
ATOM     34  H12 Y27 d           3.875  10.045   4.772  0.00  0.00     0.030 H 
ATOM     35  H13 Y27 d           5.462  10.729   5.264  0.00  0.00     0.030 H 
ATOM     36  H14 Y27 d           4.969   9.100   5.840  0.00  0.00     0.030 H 
ENDBRANCH  31  33
BRANCH  31  37
ATOM     37  N43 Y27 d           5.121   9.896   2.524  0.00  0.00    -0.075 N 
ATOM     38  H15 Y27 d           5.321   9.336   1.710  0.00  0.00     0.274 HD
ATOM     39  H16 Y27 d           5.603  10.778   2.452  0.00  0.00     0.274 HD
ATOM     40  H17 Y27 d           4.128  10.061   2.583  0.00  0.00     0.274 HD
ENDBRANCH  31  37
ENDBRANCH   4  31
TORSDOF 5
ENDMDL
MODEL 9
REMARK VINA RESULT:      -6.2      1.646      7.596
REMARK  5 active torsions:
REMARK  status: ('A' for Active; 'I' for Inactive)
REMARK    1  A    between atoms: C22_2  and  C31_3 
REMARK       I    between atoms: C22_2  and  N21_12 
REMARK    2  A    between atoms: C34_6  and  C41_9 
REMARK    3  A    between atoms: C41_9  and  C42_10 
REMARK    4  A    between atoms: C41_9  and  N43_11 
REMARK    5  A    between atoms: N21_12  and  C14_13 
ROOT
ATOM      1  C31 Y27 d          10.324   8.607   1.999  0.00  0.00     0.024 C 
ATOM      2  C36 Y27 d          11.341   9.689   1.626  0.00  0.00    -0.053 C 
ATOM      3  C35 Y27 d          12.729   9.066   1.448  0.00  0.00    -0.059 C 
ATOM      4  C34 Y27 d          13.171   8.561   2.827  0.00  0.00    -0.027 C 
ATOM      5  C33 Y27 d          12.220   7.426   3.291  0.00  0.00    -0.059 C 
ATOM      6  C32 Y27 d          10.717   7.877   3.299  0.00  0.00    -0.053 C 
ATOM      7  H1  Y27 d          10.326   7.856   1.196  0.00  0.00     0.054 H 
ATOM      8  H2  Y27 d          11.381  10.443   2.427  0.00  0.00     0.034 H 
ATOM      9  H3  Y27 d          11.035  10.170   0.686  0.00  0.00     0.034 H 
ATOM     10  H4  Y27 d          13.438   9.820   1.077  0.00  0.00     0.033 H 
ATOM     11  H5  Y27 d          12.679   8.228   0.737  0.00  0.00     0.033 H 
ATOM     12  H6  Y27 d          13.058   9.385   3.546  0.00  0.00     0.043 H 
ATOM     13  H7  Y27 d          12.503   7.121   4.309  0.00  0.00     0.033 H 
ATOM     14  H8  Y27 d          12.329   6.571   2.607  0.00  0.00     0.033 H 
ATOM     15  H9  Y27 d          10.080   6.987   3.412  0.00  0.00     0.034 H 
ATOM     16  H10 Y27 d          10.553   8.555   4.149  0.00  0.00     0.034 H 
ENDROOT
BRANCH   1  17
ATOM     17  C22 Y27 d           8.943   9.211   2.048  0.00  0.00     0.226 C 
ATOM     18  O23 Y27 d           8.368   9.671   1.058  0.00  0.00    -0.273 OA
ATOM     19  N21 Y27 d           8.351   9.174   3.342  0.00  0.00    -0.327 N 
ATOM     20  H18 Y27 d           8.971   9.023   4.112  0.00  0.00     0.169 HD
BRANCH  19  21
ATOM     21  C14 Y27 d           6.953   9.332   3.661  0.00  0.00     0.037 A 
ATOM     22  C15 Y27 d           6.052   8.934   2.660  0.00  0.00    -0.040 A 
ATOM     23  C16 Y27 d           4.696   9.099   2.953  0.00  0.00     0.004 A 
ATOM     24  H19 Y27 d           6.389   8.522   1.715  0.00  0.00     0.089 H 
ATOM     25  N11 Y27 d           4.271   9.598   4.132  0.00  0.00    -0.273 NA
ATOM     26  H20 Y27 d           3.961   8.818   2.207  0.00  0.00     0.114 H 
ATOM     27  C12 Y27 d           5.120   9.983   5.097  0.00  0.00     0.004 A 
ATOM     28  C13 Y27 d           6.488   9.868   4.897  0.00  0.00    -0.040 A 
ATOM     29  H21 Y27 d           4.739  10.383   6.030  0.00  0.00     0.114 H 
ATOM     30  H22 Y27 d           7.188  10.179   5.664  0.00  0.00     0.089 H 
ENDBRANCH  19  21
ENDBRANCH   1  17
BRANCH   4  31
ATOM     31  C41 Y27 d          14.688   8.203   2.782  0.00  0.00     0.100 C 
ATOM     32  H11 Y27 d          14.781   7.116   2.647  0.00  0.00     0.083 H 
BRANCH  31  33
ATOM     33  C42 Y27 d          15.377   8.908   1.599  0.00  0.00    -0.049 C 
ATOM     34  H12 Y27 d          15.764   8.154   0.898  0.00  0.00     0.030 H 
ATOM     35  H13 Y27 d          16.209   9.523   1.972  0.00  0.00     0.030 H 
ATOM     36  H14 Y27 d          14.649   9.551   1.082  0.00  0.00     0.030 H 
ENDBRANCH  31  33
BRANCH  31  37
ATOM     37  N43 Y27 d          15.386   8.587   4.061  0.00  0.00    -0.075 N 
ATOM     38  H15 Y27 d          15.008   8.049   4.825  0.00  0.00     0.274 HD
ATOM     39  H16 Y27 d          15.245   9.569   4.239  0.00  0.00     0.274 HD
ATOM     40  H17 Y27 d          16.373   8.400   3.975  0.00  0.00     0.274 HD
ENDBRANCH  31  37
ENDBRANCH   4  31
TORSDOF 5
ENDMDL
MODEL 10
REMARK VINA RESULT:      -6.0      1.605      7.692
REMARK  5 active torsions:
REMARK  status: ('A' for Active; 'I' for Inactive)
REMARK    1  A    between atoms: C22_2  and  C31_3 
REMARK       I    between atoms: C22_2  and  N21_12 
REMARK    2  A    between atoms: C34_6  and  C41_9 
REMARK    3  A    between atoms: C41_9  and  C42_10 
REMARK    4  A    between atoms: C41_9  and  N43_11 
REMARK    5  A    between atoms: N21_12  and  C14_13 
ROOT
ATOM      1  C31 Y27 d          11.150   8.925   3.221  0.00  0.00     0.024 C 
ATOM      2  C36 Y27 d          12.036   7.747   3.639  0.00  0.00    -0.053 C 
ATOM      3  C35 Y27 d          13.513   8.115   3.469  0.00  0.00    -0.059 C 
ATOM      4  C34 Y27 d          13.759   8.284   1.965  0.00  0.00    -0.027 C 
ATOM      5  C33 Y27 d          12.929   9.484   1.437  0.00  0.00    -0.059 C 
ATOM      6  C32 Y27 d          11.399   9.334   1.755  0.00  0.00    -0.053 C 
ATOM      7  H1  Y27 d          11.424   9.787   3.846  0.00  0.00     0.054 H 
ATOM      8  H2  Y27 d          11.803   6.875   3.011  0.00  0.00     0.034 H 
ATOM      9  H3  Y27 d          11.841   7.502   4.694  0.00  0.00     0.034 H 
ATOM     10  H4  Y27 d          14.151   7.314   3.869  0.00  0.00     0.033 H 
ATOM     11  H5  Y27 d          13.732   9.055   3.996  0.00  0.00     0.033 H 
ATOM     12  H6  Y27 d          13.383   7.386   1.453  0.00  0.00     0.043 H 
ATOM     13  H7  Y27 d          13.058   9.551   0.346  0.00  0.00     0.033 H 
ATOM     14  H8  Y27 d          13.300  10.406   1.908  0.00  0.00     0.033 H 
ATOM     15  H9  Y27 d          10.902  10.297   1.566  0.00  0.00     0.034 H 
ATOM     16  H10 Y27 d          10.972   8.565   1.095  0.00  0.00     0.034 H 
ENDROOT
BRANCH   1  17
ATOM     17  C22 Y27 d           9.707   8.597   3.511  0.00  0.00     0.226 C 
ATOM     18  O23 Y27 d           9.357   7.659   4.232  0.00  0.00    -0.273 OA
ATOM     19  N21 Y27 d           8.786   9.490   2.898  0.00  0.00    -0.327 N 
ATOM     20  H18 Y27 d           9.137  10.048   2.146  0.00  0.00     0.169 HD
BRANCH  19  21
ATOM     21  C14 Y27 d           7.398   9.678   3.244  0.00  0.00     0.037 A 
ATOM     22  C15 Y27 d           6.553  10.059   2.188  0.00  0.00    -0.040 A 
ATOM     23  C16 Y27 d           5.211  10.261   2.517  0.00  0.00     0.004 A 
ATOM     24  H19 Y27 d           6.922  10.190   1.177  0.00  0.00     0.089 H 
ATOM     25  N11 Y27 d           4.743  10.086   3.771  0.00  0.00    -0.273 NA
ATOM     26  H20 Y27 d           4.521  10.568   1.739  0.00  0.00     0.114 H 
ATOM     27  C12 Y27 d           5.539   9.723   4.789  0.00  0.00     0.004 A 
ATOM     28  C13 Y27 d           6.891   9.509   4.565  0.00  0.00    -0.040 A 
ATOM     29  H21 Y27 d           5.126   9.597   5.783  0.00  0.00     0.114 H 
ATOM     30  H22 Y27 d           7.548   9.220   5.377  0.00  0.00     0.089 H 
ENDBRANCH  19  21
ENDBRANCH   1  17
BRANCH   4  31
ATOM     31  C41 Y27 d          15.294   8.347   1.698  0.00  0.00     0.100 C 
ATOM     32  H11 Y27 d          15.586   7.436   1.156  0.00  0.00     0.083 H 
BRANCH  31  33
ATOM     33  C42 Y27 d          15.644   9.570   0.831  0.00  0.00    -0.049 C 
ATOM     34  H12 Y27 d          14.725  10.128   0.595  0.00  0.00     0.030 H 
ATOM     35  H13 Y27 d          16.119   9.235  -0.102  0.00  0.00     0.030 H 
ATOM     36  H14 Y27 d          16.337  10.223   1.382  0.00  0.00     0.030 H 
ENDBRANCH  31  33
BRANCH  31  37
ATOM     37  N43 Y27 d          16.078   8.410   2.983  0.00  0.00    -0.075 N 
ATOM     38  H15 Y27 d          16.329   9.368   3.176  0.00  0.00     0.274 HD
ATOM     39  H16 Y27 d          16.915   7.855   2.893  0.00  0.00     0.274 HD
ATOM     40  H17 Y27 d          15.516   8.051   3.738  0.00  0.00     0.274 HD
ENDBRANCH  31  37
ENDBRANCH   4  31
TORSDOF 5
ENDMDL
