MODEL 1
REMARK VINA RESULT:      -5.8      0.000      0.000
REMARK  6 active torsions:
REMARK  status: ('A' for Active; 'I' for Inactive)
REMARK    1  A    between atoms: N1_1  and  C1'_9 
REMARK    2  A    between atoms: C2'_10  and  O2'_11 
REMARK    3  A    between atoms: C3'_12  and  O3'_14 
REMARK    4  A    between atoms: C4'_13  and  C5'_16 
REMARK    5  A    between atoms: C5'_16  and  O5'_17 
REMARK    6  A    between atoms: O5'_17  and  P_18 
ROOT
ATOM      1  C1' U5P d          36.239   0.201  12.175  0.00  0.00     0.141 C 
ATOM      2  C2' U5P d          36.655   0.866  13.465  0.00  0.00     0.105 C 
ATOM      3  C3' U5P d          38.041   1.380  13.151  0.00  0.00     0.091 C 
ATOM      4  C4' U5P d          37.967   1.682  11.664  0.00  0.00     0.089 C 
ATOM      5  O4' U5P d          37.146   0.623  11.153  0.00  0.00    -0.353 OA
ATOM      6  H4  U5P d          35.221   0.530  11.917  0.00  0.00     0.123 H 
ATOM      7  H5  U5P d          36.650   0.186  14.329  0.00  0.00     0.093 H 
ATOM      8  H7  U5P d          38.782   0.589  13.336  0.00  0.00     0.091 H 
ATOM      9  H8  U5P d          37.484   2.657  11.497  0.00  0.00     0.090 H 
ENDROOT
BRANCH   1  10
ATOM     10  N1  U5P d          36.241  -1.248  12.277  0.00  0.00    -0.280 N 
ATOM     11  C2  U5P d          35.256  -1.941  11.573  0.00  0.00     0.331 A 
ATOM     12  N3  U5P d          35.241  -3.270  11.624  0.00  0.00    -0.275 N 
ATOM     13  O2  U5P d          34.399  -1.317  10.926  0.00  0.00    -0.246 OA
ATOM     14  C4  U5P d          36.140  -3.973  12.346  0.00  0.00     0.250 A 
ATOM     15  H1  U5P d          34.541  -3.765  11.110  0.00  0.00     0.173 HD
ATOM     16  C5  U5P d          37.141  -3.307  13.055  0.00  0.00    -0.002 A 
ATOM     17  O4  U5P d          36.067  -5.222  12.361  0.00  0.00    -0.268 OA
ATOM     18  C6  U5P d          37.165  -1.917  12.994  0.00  0.00    -0.008 A 
ATOM     19  H2  U5P d          37.879  -3.857  13.636  0.00  0.00     0.094 H 
ATOM     20  H3  U5P d          37.936  -1.366  13.531  0.00  0.00     0.112 H 
ENDBRANCH   1  10
BRANCH   2  21
ATOM     21  O2' U5P d          35.732   1.949  13.632  0.00  0.00    -0.388 OA
ATOM     22  H6  U5P d          34.859   1.660  13.394  0.00  0.00     0.210 HD
ENDBRANCH   2  21
BRANCH   3  23
ATOM     23  O3' U5P d          38.412   2.519  13.930  0.00  0.00    -0.390 OA
ATOM     24  H9  U5P d          38.731   3.204  13.355  0.00  0.00     0.210 HD
ENDBRANCH   3  23
BRANCH   4  25
ATOM     25  C5' U5P d          39.338   1.698  11.000  0.00  0.00     0.059 C 
ATOM     26  H10 U5P d          40.081   2.150  11.674  0.00  0.00     0.079 H 
ATOM     27  H11 U5P d          39.299   2.271  10.061  0.00  0.00     0.079 H 
BRANCH  25  28
ATOM     28  O5' U5P d          39.676   0.344  10.735  0.00  0.00    -0.280 OA
BRANCH  28  29
ATOM     29  P   U5P d          41.098  -0.290  11.139  0.00  0.00     0.422 P 
ATOM     30  O1P U5P d          41.266  -1.493  10.233  0.00  0.00    -0.617 OA
ATOM     31  O2P U5P d          40.963  -0.626  12.610  0.00  0.00    -0.617 OA
ATOM     32  O3P U5P d          42.038   0.862  10.871  0.00  0.00    -0.617 OA
ENDBRANCH  28  29
ENDBRANCH  25  28
ENDBRANCH   4  25
TORSDOF 6
ENDMDL
MODEL 2
REMARK VINA RESULT:      -5.2      2.616      5.288
REMARK  6 active torsions:
REMARK  status: ('A' for Active; 'I' for Inactive)
REMARK    1  A    between atoms: N1_1  and  C1'_9 
REMARK    2  A    between atoms: C2'_10  and  O2'_11 
REMARK    3  A    between atoms: C3'_12  and  O3'_14 
REMARK    4  A    between atoms: C4'_13  and  C5'_16 
REMARK    5  A    between atoms: C5'_16  and  O5'_17 
REMARK    6  A    between atoms: O5'_17  and  P_18 
ROOT
ATOM      1  C1' U5P d          36.469  -1.104  12.175  0.00  0.00     0.141 C 
ATOM      2  C2' U5P d          35.878  -1.971  11.090  0.00  0.00     0.105 C 
ATOM      3  C3' U5P d          35.980  -3.361  11.670  0.00  0.00     0.091 C 
ATOM      4  C4' U5P d          35.842  -3.120  13.164  0.00  0.00     0.089 C 
ATOM      5  O4' U5P d          36.549  -1.890  13.367  0.00  0.00    -0.353 OA
ATOM      6  H4  U5P d          35.802  -0.246  12.349  0.00  0.00     0.123 H 
ATOM      7  H5  U5P d          36.401  -1.883  10.126  0.00  0.00     0.093 H 
ATOM      8  H7  U5P d          36.970  -3.785  11.449  0.00  0.00     0.091 H 
ATOM      9  H8  U5P d          34.782  -3.003  13.435  0.00  0.00     0.090 H 
ENDROOT
BRANCH   1  10
ATOM     10  N1  U5P d          37.784  -0.599  11.820  0.00  0.00    -0.280 N 
ATOM     11  C2  U5P d          37.852   0.688  11.286  0.00  0.00     0.331 A 
ATOM     12  N3  U5P d          39.042   1.193  10.972  0.00  0.00    -0.275 N 
ATOM     13  O2  U5P d          36.812   1.339  11.095  0.00  0.00    -0.246 OA
ATOM     14  C4  U5P d          40.187   0.496  11.138  0.00  0.00     0.250 A 
ATOM     15  H1  U5P d          39.091   2.120  10.600  0.00  0.00     0.173 HD
ATOM     16  C5  U5P d          40.150  -0.791  11.676  0.00  0.00    -0.002 A 
ATOM     17  O4  U5P d          41.274   1.023  10.813  0.00  0.00    -0.268 OA
ATOM     18  C6  U5P d          38.907  -1.317  12.016  0.00  0.00    -0.008 A 
ATOM     19  H2  U5P d          41.063  -1.365  11.825  0.00  0.00     0.094 H 
ATOM     20  H3  U5P d          38.842  -2.316  12.443  0.00  0.00     0.112 H 
ENDBRANCH   1  10
BRANCH   2  21
ATOM     21  O2' U5P d          34.510  -1.554  10.994  0.00  0.00    -0.388 OA
ATOM     22  H6  U5P d          34.231  -1.192  11.827  0.00  0.00     0.210 HD
ENDBRANCH   2  21
BRANCH   3  23
ATOM     23  O3' U5P d          34.994  -4.262  11.161  0.00  0.00    -0.390 OA
ATOM     24  H9  U5P d          35.422  -5.044  10.832  0.00  0.00     0.210 HD
ENDBRANCH   3  23
BRANCH   4  25
ATOM     25  C5' U5P d          36.434  -4.251  13.997  0.00  0.00     0.059 C 
ATOM     26  H10 U5P d          36.794  -5.057  13.342  0.00  0.00     0.079 H 
ATOM     27  H11 U5P d          35.676  -4.651  14.688  0.00  0.00     0.079 H 
BRANCH  25  28
ATOM     28  O5' U5P d          37.517  -3.692  14.728  0.00  0.00    -0.280 OA
BRANCH  28  29
ATOM     29  P   U5P d          38.997  -4.320  14.700  0.00  0.00     0.422 P 
ATOM     30  O1P U5P d          39.127  -4.963  13.333  0.00  0.00    -0.617 OA
ATOM     31  O2P U5P d          39.021  -5.296  15.857  0.00  0.00    -0.617 OA
ATOM     32  O3P U5P d          39.856  -3.098  14.928  0.00  0.00    -0.617 OA
ENDBRANCH  28  29
ENDBRANCH  25  28
ENDBRANCH   4  25
TORSDOF 6
ENDMDL
MODEL 3
REMARK VINA RESULT:      -5.1      2.683      5.862
REMARK  6 active torsions:
REMARK  status: ('A' for Active; 'I' for Inactive)
REMARK    1  A    between atoms: N1_1  and  C1'_9 
REMARK    2  A    between atoms: C2'_10  and  O2'_11 
REMARK    3  A    between atoms: C3'_12  and  O3'_14 
REMARK    4  A    between atoms: C4'_13  and  C5'_16 
REMARK    5  A    between atoms: C5'_16  and  O5'_17 
REMARK    6  A    between atoms: O5'_17  and  P_18 
ROOT
ATOM      1  C1' U5P d          39.328  -1.787  13.171  0.00  0.00     0.141 C 
ATOM      2  C2' U5P d          38.925  -1.909  14.621  0.00  0.00     0.105 C 
ATOM      3  C3' U5P d          37.965  -3.075  14.611  0.00  0.00     0.091 C 
ATOM      4  C4' U5P d          38.488  -3.941  13.477  0.00  0.00     0.089 C 
ATOM      5  O4' U5P d          38.919  -2.983  12.502  0.00  0.00    -0.353 OA
ATOM      6  H4  U5P d          40.422  -1.693  13.112  0.00  0.00     0.123 H 
ATOM      7  H5  U5P d          38.465  -0.995  15.026  0.00  0.00     0.093 H 
ATOM      8  H7  U5P d          36.951  -2.721  14.374  0.00  0.00     0.091 H 
ATOM      9  H8  U5P d          39.340  -4.547  13.823  0.00  0.00     0.090 H 
ENDROOT
BRANCH   1  10
ATOM     10  N1  U5P d          38.731  -0.627  12.530  0.00  0.00    -0.280 N 
ATOM     11  C2  U5P d          39.534   0.101  11.651  0.00  0.00     0.331 A 
ATOM     12  N3  U5P d          39.014   1.155  11.027  0.00  0.00    -0.275 N 
ATOM     13  O2  U5P d          40.718  -0.227  11.472  0.00  0.00    -0.246 OA
ATOM     14  C4  U5P d          37.740   1.554  11.227  0.00  0.00     0.250 A 
ATOM     15  H1  U5P d          39.587   1.669  10.389  0.00  0.00     0.173 HD
ATOM     16  C5  U5P d          36.912   0.841  12.096  0.00  0.00    -0.002 A 
ATOM     17  O4  U5P d          37.314   2.560  10.618  0.00  0.00    -0.268 OA
ATOM     18  C6  U5P d          37.450  -0.268  12.741  0.00  0.00    -0.008 A 
ATOM     19  H2  U5P d          35.880   1.143  12.264  0.00  0.00     0.094 H 
ATOM     20  H3  U5P d          36.831  -0.851  13.422  0.00  0.00     0.112 H 
ENDBRANCH   1  10
BRANCH   2  21
ATOM     21  O2' U5P d          40.135  -2.247  15.309  0.00  0.00    -0.388 OA
ATOM     22  H6  U5P d          40.040  -2.046  16.233  0.00  0.00     0.210 HD
ENDBRANCH   2  21
BRANCH   3  23
ATOM     23  O3' U5P d          37.905  -3.771  15.857  0.00  0.00    -0.390 OA
ATOM     24  H9  U5P d          38.425  -4.564  15.801  0.00  0.00     0.210 HD
ENDBRANCH   3  23
BRANCH   4  25
ATOM     25  C5' U5P d          37.425  -4.876  12.913  0.00  0.00     0.059 C 
ATOM     26  H10 U5P d          36.726  -5.178  13.708  0.00  0.00     0.079 H 
ATOM     27  H11 U5P d          37.896  -5.770  12.479  0.00  0.00     0.079 H 
BRANCH  25  28
ATOM     28  O5' U5P d          36.736  -4.146  11.907  0.00  0.00    -0.280 OA
BRANCH  28  29
ATOM     29  P   U5P d          35.162  -3.829  11.990  0.00  0.00     0.422 P 
ATOM     30  O1P U5P d          34.926  -2.734  10.968  0.00  0.00    -0.617 OA
ATOM     31  O2P U5P d          34.931  -3.407  13.426  0.00  0.00    -0.617 OA
ATOM     32  O3P U5P d          34.558  -5.173  11.655  0.00  0.00    -0.617 OA
ENDBRANCH  28  29
ENDBRANCH  25  28
ENDBRANCH   4  25
TORSDOF 6
ENDMDL
MODEL 4
REMARK VINA RESULT:      -4.8      2.285      2.645
REMARK  6 active torsions:
REMARK  status: ('A' for Active; 'I' for Inactive)
REMARK    1  A    between atoms: N1_1  and  C1'_9 
REMARK    2  A    between atoms: C2'_10  and  O2'_11 
REMARK    3  A    between atoms: C3'_12  and  O3'_14 
REMARK    4  A    between atoms: C4'_13  and  C5'_16 
REMARK    5  A    between atoms: C5'_16  and  O5'_17 
REMARK    6  A    between atoms: O5'_17  and  P_18 
ROOT
ATOM      1  C1' U5P d          37.299  -0.732  12.564  0.00  0.00     0.141 C 
ATOM      2  C2' U5P d          37.685  -0.371  13.978  0.00  0.00     0.105 C 
ATOM      3  C3' U5P d          39.153  -0.724  14.031  0.00  0.00     0.091 C 
ATOM      4  C4' U5P d          39.617  -0.479  12.605  0.00  0.00     0.089 C 
ATOM      5  O4' U5P d          38.504  -0.918  11.816  0.00  0.00    -0.353 OA
ATOM      6  H4  U5P d          36.725   0.099  12.129  0.00  0.00     0.123 H 
ATOM      7  H5  U5P d          37.101  -0.906  14.742  0.00  0.00     0.093 H 
ATOM      8  H7  U5P d          39.271  -1.788  14.286  0.00  0.00     0.091 H 
ATOM      9  H8  U5P d          39.803   0.593  12.445  0.00  0.00     0.090 H 
ENDROOT
BRANCH   1  10
ATOM     10  N1  U5P d          36.485  -1.934  12.506  0.00  0.00    -0.280 N 
ATOM     11  C2  U5P d          35.608  -2.060  11.429  0.00  0.00     0.331 A 
ATOM     12  N3  U5P d          34.863  -3.159  11.329  0.00  0.00    -0.275 N 
ATOM     13  O2  U5P d          35.518  -1.150  10.588  0.00  0.00    -0.246 OA
ATOM     14  C4  U5P d          34.917  -4.150  12.245  0.00  0.00     0.250 A 
ATOM     15  H1  U5P d          34.244  -3.253  10.550  0.00  0.00     0.173 HD
ATOM     16  C5  U5P d          35.789  -4.053  13.330  0.00  0.00    -0.002 A 
ATOM     17  O4  U5P d          34.183  -5.153  12.100  0.00  0.00    -0.268 OA
ATOM     18  C6  U5P d          36.577  -2.910  13.430  0.00  0.00    -0.008 A 
ATOM     19  H2  U5P d          35.852  -4.846  14.073  0.00  0.00     0.094 H 
ATOM     20  H3  U5P d          37.273  -2.805  14.260  0.00  0.00     0.112 H 
ENDBRANCH   1  10
BRANCH   2  21
ATOM     21  O2' U5P d          37.497   1.047  14.058  0.00  0.00    -0.388 OA
ATOM     22  H6  U5P d          38.253   1.444  14.474  0.00  0.00     0.210 HD
ENDBRANCH   2  21
BRANCH   3  23
ATOM     23  O3' U5P d          39.886   0.040  14.992  0.00  0.00    -0.390 OA
ATOM     24  H9  U5P d          40.389  -0.547  15.543  0.00  0.00     0.210 HD
ENDBRANCH   3  23
BRANCH   4  25
ATOM     25  C5' U5P d          40.886  -1.249  12.261  0.00  0.00     0.059 C 
ATOM     26  H10 U5P d          41.768  -0.605  12.392  0.00  0.00     0.079 H 
ATOM     27  H11 U5P d          40.844  -1.607  11.221  0.00  0.00     0.079 H 
BRANCH  25  28
ATOM     28  O5' U5P d          40.947  -2.351  13.156  0.00  0.00    -0.280 OA
BRANCH  28  29
ATOM     29  P   U5P d          41.045  -3.875  12.650  0.00  0.00     0.422 P 
ATOM     30  O1P U5P d          39.609  -4.324  12.472  0.00  0.00    -0.617 OA
ATOM     31  O2P U5P d          41.796  -4.596  13.750  0.00  0.00    -0.617 OA
ATOM     32  O3P U5P d          41.844  -3.727  11.376  0.00  0.00    -0.617 OA
ENDBRANCH  28  29
ENDBRANCH  25  28
ENDBRANCH   4  25
TORSDOF 6
ENDMDL
MODEL 5
REMARK VINA RESULT:      -4.6      2.616      5.203
REMARK  6 active torsions:
REMARK  status: ('A' for Active; 'I' for Inactive)
REMARK    1  A    between atoms: N1_1  and  C1'_9 
REMARK    2  A    between atoms: C2'_10  and  O2'_11 
REMARK    3  A    between atoms: C3'_12  and  O3'_14 
REMARK    4  A    between atoms: C4'_13  and  C5'_16 
REMARK    5  A    between atoms: C5'_16  and  O5'_17 
REMARK    6  A    between atoms: O5'_17  and  P_18 
ROOT
ATOM      1  C1' U5P d          37.597  -0.140  12.898  0.00  0.00     0.141 C 
ATOM      2  C2' U5P d          36.707  -0.948  11.986  0.00  0.00     0.105 C 
ATOM      3  C3' U5P d          37.051  -2.373  12.349  0.00  0.00     0.091 C 
ATOM      4  C4' U5P d          37.416  -2.274  13.821  0.00  0.00     0.089 C 
ATOM      5  O4' U5P d          38.103  -1.019  13.906  0.00  0.00    -0.353 OA
ATOM      6  H4  U5P d          36.996   0.651  13.373  0.00  0.00     0.123 H 
ATOM      7  H5  U5P d          36.871  -0.740  10.918  0.00  0.00     0.093 H 
ATOM      8  H7  U5P d          37.924  -2.705  11.768  0.00  0.00     0.091 H 
ATOM      9  H8  U5P d          36.505  -2.256  14.438  0.00  0.00     0.090 H 
ENDROOT
BRANCH   1  10
ATOM     10  N1  U5P d          38.696   0.486  12.183  0.00  0.00    -0.280 N 
ATOM     11  C2  U5P d          38.513   1.800  11.751  0.00  0.00     0.331 A 
ATOM     12  N3  U5P d          39.506   2.413  11.113  0.00  0.00    -0.275 N 
ATOM     13  O2  U5P d          37.430   2.375  11.948  0.00  0.00    -0.246 OA
ATOM     14  C4  U5P d          40.683   1.801  10.856  0.00  0.00     0.250 A 
ATOM     15  H1  U5P d          39.377   3.358  10.814  0.00  0.00     0.173 HD
ATOM     16  C5  U5P d          40.896   0.490  11.282  0.00  0.00    -0.002 A 
ATOM     17  O4  U5P d          41.575   2.429  10.243  0.00  0.00    -0.268 OA
ATOM     18  C6  U5P d          39.862  -0.150  11.959  0.00  0.00    -0.008 A 
ATOM     19  H2  U5P d          41.841  -0.017  11.091  0.00  0.00     0.094 H 
ATOM     20  H3  U5P d          39.997  -1.172  12.310  0.00  0.00     0.112 H 
ENDBRANCH   1  10
BRANCH   2  21
ATOM     21  O2' U5P d          35.373  -0.622  12.394  0.00  0.00    -0.388 OA
ATOM     22  H6  U5P d          35.404  -0.079  13.173  0.00  0.00     0.210 HD
ENDBRANCH   2  21
BRANCH   3  23
ATOM     23  O3' U5P d          35.985  -3.293  12.103  0.00  0.00    -0.390 OA
ATOM     24  H9  U5P d          36.183  -4.124  12.519  0.00  0.00     0.210 HD
ENDBRANCH   3  23
BRANCH   4  25
ATOM     25  C5' U5P d          38.295  -3.428  14.286  0.00  0.00     0.059 C 
ATOM     26  H10 U5P d          37.896  -4.383  13.913  0.00  0.00     0.079 H 
ATOM     27  H11 U5P d          38.339  -3.453  15.385  0.00  0.00     0.079 H 
BRANCH  25  28
ATOM     28  O5' U5P d          39.589  -3.194  13.747  0.00  0.00    -0.280 OA
BRANCH  28  29
ATOM     29  P   U5P d          40.386  -4.301  12.895  0.00  0.00     0.422 P 
ATOM     30  O1P U5P d          41.402  -4.884  13.857  0.00  0.00    -0.617 OA
ATOM     31  O2P U5P d          40.988  -3.532  11.737  0.00  0.00    -0.617 OA
ATOM     32  O3P U5P d          39.272  -5.234  12.480  0.00  0.00    -0.617 OA
ENDBRANCH  28  29
ENDBRANCH  25  28
ENDBRANCH   4  25
TORSDOF 6
ENDMDL
MODEL 6
REMARK VINA RESULT:      -4.3      2.535      5.453
REMARK  6 active torsions:
REMARK  status: ('A' for Active; 'I' for Inactive)
REMARK    1  A    between atoms: N1_1  and  C1'_9 
REMARK    2  A    between atoms: C2'_10  and  O2'_11 
REMARK    3  A    between atoms: C3'_12  and  O3'_14 
REMARK    4  A    between atoms: C4'_13  and  C5'_16 
REMARK    5  A    between atoms: C5'_16  and  O5'_17 
REMARK    6  A    between atoms: O5'_17  and  P_18 
ROOT
ATOM      1  C1' U5P d          39.213  -0.895  11.909  0.00  0.00     0.141 C 
ATOM      2  C2' U5P d          40.448  -1.091  12.755  0.00  0.00     0.105 C 
ATOM      3  C3' U5P d          40.231  -2.456  13.363  0.00  0.00     0.091 C 
ATOM      4  C4' U5P d          39.430  -3.184  12.296  0.00  0.00     0.089 C 
ATOM      5  O4' U5P d          38.567  -2.164  11.779  0.00  0.00    -0.353 OA
ATOM      6  H4  U5P d          39.516  -0.537  10.914  0.00  0.00     0.123 H 
ATOM      7  H5  U5P d          40.583  -0.312  13.520  0.00  0.00     0.093 H 
ATOM      8  H7  U5P d          39.634  -2.364  14.282  0.00  0.00     0.091 H 
ATOM      9  H8  U5P d          40.100  -3.558  11.507  0.00  0.00     0.090 H 
ENDROOT
BRANCH   1  10
ATOM     10  N1  U5P d          38.298   0.074  12.488  0.00  0.00    -0.280 N 
ATOM     11  C2  U5P d          36.948  -0.042  12.154  0.00  0.00     0.331 A 
ATOM     12  N3  U5P d          36.077   0.812  12.684  0.00  0.00    -0.275 N 
ATOM     13  O2  U5P d          36.576  -0.923  11.361  0.00  0.00    -0.246 OA
ATOM     14  C4  U5P d          36.457   1.800  13.523  0.00  0.00     0.250 A 
ATOM     15  H1  U5P d          35.109   0.721  12.452  0.00  0.00     0.173 HD
ATOM     16  C5  U5P d          37.800   1.936  13.879  0.00  0.00    -0.002 A 
ATOM     17  O4  U5P d          35.591   2.578  13.979  0.00  0.00    -0.268 OA
ATOM     18  C6  U5P d          38.711   1.036  13.335  0.00  0.00    -0.008 A 
ATOM     19  H2  U5P d          38.123   2.721  14.561  0.00  0.00     0.094 H 
ATOM     20  H3  U5P d          39.765   1.110  13.597  0.00  0.00     0.112 H 
ENDBRANCH   1  10
BRANCH   2  21
ATOM     21  O2' U5P d          41.532  -1.113  11.819  0.00  0.00    -0.388 OA
ATOM     22  H6  U5P d          41.186  -1.112  10.934  0.00  0.00     0.210 HD
ENDBRANCH   2  21
BRANCH   3  23
ATOM     23  O3' U5P d          41.448  -3.128  13.697  0.00  0.00    -0.390 OA
ATOM     24  H9  U5P d          42.173  -2.518  13.628  0.00  0.00     0.210 HD
ENDBRANCH   3  23
BRANCH   4  25
ATOM     25  C5' U5P d          38.638  -4.359  12.857  0.00  0.00     0.059 C 
ATOM     26  H10 U5P d          38.618  -4.312  13.956  0.00  0.00     0.079 H 
ATOM     27  H11 U5P d          39.091  -5.310  12.539  0.00  0.00     0.079 H 
BRANCH  25  28
ATOM     28  O5' U5P d          37.321  -4.244  12.337  0.00  0.00    -0.280 OA
BRANCH  28  29
ATOM     29  P   U5P d          36.033  -4.029  13.277  0.00  0.00     0.422 P 
ATOM     30  O1P U5P d          34.867  -3.877  12.320  0.00  0.00    -0.617 OA
ATOM     31  O2P U5P d          36.350  -2.787  14.083  0.00  0.00    -0.617 OA
ATOM     32  O3P U5P d          36.037  -5.296  14.101  0.00  0.00    -0.617 OA
ENDBRANCH  28  29
ENDBRANCH  25  28
ENDBRANCH   4  25
TORSDOF 6
ENDMDL
MODEL 7
REMARK VINA RESULT:      -4.3      2.247      4.980
REMARK  6 active torsions:
REMARK  status: ('A' for Active; 'I' for Inactive)
REMARK    1  A    between atoms: N1_1  and  C1'_9 
REMARK    2  A    between atoms: C2'_10  and  O2'_11 
REMARK    3  A    between atoms: C3'_12  and  O3'_14 
REMARK    4  A    between atoms: C4'_13  and  C5'_16 
REMARK    5  A    between atoms: C5'_16  and  O5'_17 
REMARK    6  A    between atoms: O5'_17  and  P_18 
ROOT
ATOM      1  C1' U5P d          37.159  -1.708  13.800  0.00  0.00     0.141 C 
ATOM      2  C2' U5P d          36.294  -2.698  13.058  0.00  0.00     0.105 C 
ATOM      3  C3' U5P d          37.231  -3.860  12.825  0.00  0.00     0.091 C 
ATOM      4  C4' U5P d          38.155  -3.804  14.029  0.00  0.00     0.089 C 
ATOM      5  O4' U5P d          38.330  -2.398  14.246  0.00  0.00    -0.353 OA
ATOM      6  H4  U5P d          36.603  -1.333  14.673  0.00  0.00     0.123 H 
ATOM      7  H5  U5P d          35.882  -2.301  12.119  0.00  0.00     0.093 H 
ATOM      8  H7  U5P d          37.807  -3.694  11.903  0.00  0.00     0.091 H 
ATOM      9  H8  U5P d          37.672  -4.270  14.902  0.00  0.00     0.090 H 
ENDROOT
BRANCH   1  10
ATOM     10  N1  U5P d          37.533  -0.574  12.971  0.00  0.00    -0.280 N 
ATOM     11  C2  U5P d          38.482   0.309  13.487  0.00  0.00     0.331 A 
ATOM     12  N3  U5P d          38.866   1.345  12.746  0.00  0.00    -0.275 N 
ATOM     13  O2  U5P d          38.943   0.133  14.626  0.00  0.00    -0.246 OA
ATOM     14  C4  U5P d          38.358   1.580  11.517  0.00  0.00     0.250 A 
ATOM     15  H1  U5P d          39.555   1.971  13.112  0.00  0.00     0.173 HD
ATOM     16  C5  U5P d          37.412   0.710  10.974  0.00  0.00    -0.002 A 
ATOM     17  O4  U5P d          38.754   2.578  10.875  0.00  0.00    -0.268 OA
ATOM     18  C6  U5P d          37.017  -0.381  11.742  0.00  0.00    -0.008 A 
ATOM     19  H2  U5P d          36.997   0.879   9.982  0.00  0.00     0.094 H 
ATOM     20  H3  U5P d          36.285  -1.083  11.347  0.00  0.00     0.112 H 
ENDBRANCH   1  10
BRANCH   2  21
ATOM     21  O2' U5P d          35.262  -3.050  13.988  0.00  0.00    -0.388 OA
ATOM     22  H6  U5P d          35.656  -3.385  14.785  0.00  0.00     0.210 HD
ENDBRANCH   2  21
BRANCH   3  23
ATOM     23  O3' U5P d          36.557  -5.114  12.701  0.00  0.00    -0.390 OA
ATOM     24  H9  U5P d          37.158  -5.817  12.916  0.00  0.00     0.210 HD
ENDBRANCH   3  23
BRANCH   4  25
ATOM     25  C5' U5P d          39.486  -4.503  13.780  0.00  0.00     0.059 C 
ATOM     26  H10 U5P d          39.373  -5.590  13.907  0.00  0.00     0.079 H 
ATOM     27  H11 U5P d          40.248  -4.129  14.480  0.00  0.00     0.079 H 
BRANCH  25  28
ATOM     28  O5' U5P d          39.858  -4.201  12.442  0.00  0.00    -0.280 OA
BRANCH  28  29
ATOM     29  P   U5P d          40.977  -3.105  12.080  0.00  0.00     0.422 P 
ATOM     30  O1P U5P d          42.002  -3.848  11.246  0.00  0.00    -0.617 OA
ATOM     31  O2P U5P d          41.490  -2.623  13.421  0.00  0.00    -0.617 OA
ATOM     32  O3P U5P d          40.165  -2.067  11.340  0.00  0.00    -0.617 OA
ENDBRANCH  28  29
ENDBRANCH  25  28
ENDBRANCH   4  25
TORSDOF 6
ENDMDL
MODEL 8
REMARK VINA RESULT:      -4.2      2.726      3.679
REMARK  6 active torsions:
REMARK  status: ('A' for Active; 'I' for Inactive)
REMARK    1  A    between atoms: N1_1  and  C1'_9 
REMARK    2  A    between atoms: C2'_10  and  O2'_11 
REMARK    3  A    between atoms: C3'_12  and  O3'_14 
REMARK    4  A    between atoms: C4'_13  and  C5'_16 
REMARK    5  A    between atoms: C5'_16  and  O5'_17 
REMARK    6  A    between atoms: O5'_17  and  P_18 
ROOT
ATOM      1  C1' U5P d          39.100  -0.088  12.471  0.00  0.00     0.141 C 
ATOM      2  C2' U5P d          38.896   0.589  13.804  0.00  0.00     0.105 C 
ATOM      3  C3' U5P d          39.796  -0.198  14.727  0.00  0.00     0.091 C 
ATOM      4  C4' U5P d          40.926  -0.638  13.813  0.00  0.00     0.089 C 
ATOM      5  O4' U5P d          40.259  -0.920  12.576  0.00  0.00    -0.353 OA
ATOM      6  H4  U5P d          39.272   0.680  11.702  0.00  0.00     0.123 H 
ATOM      7  H5  U5P d          37.849   0.586  14.141  0.00  0.00     0.093 H 
ATOM      8  H7  U5P d          39.258  -1.078  15.109  0.00  0.00     0.091 H 
ATOM      9  H8  U5P d          41.650   0.180  13.681  0.00  0.00     0.090 H 
ENDROOT
BRANCH   1  10
ATOM     10  N1  U5P d          37.950  -0.883  12.076  0.00  0.00    -0.280 N 
ATOM     11  C2  U5P d          37.001  -0.273  11.255  0.00  0.00     0.331 A 
ATOM     12  N3  U5P d          35.947  -0.977  10.854  0.00  0.00    -0.275 N 
ATOM     13  O2  U5P d          37.139   0.916  10.922  0.00  0.00    -0.246 OA
ATOM     14  C4  U5P d          35.754  -2.261  11.227  0.00  0.00     0.250 A 
ATOM     15  H1  U5P d          35.274  -0.541  10.256  0.00  0.00     0.173 HD
ATOM     16  C5  U5P d          36.689  -2.899  12.043  0.00  0.00    -0.002 A 
ATOM     17  O4  U5P d          34.736  -2.866  10.824  0.00  0.00    -0.268 OA
ATOM     18  C6  U5P d          37.799  -2.167  12.454  0.00  0.00    -0.008 A 
ATOM     19  H2  U5P d          36.555  -3.936  12.347  0.00  0.00     0.094 H 
ATOM     20  H3  U5P d          38.551  -2.637  13.087  0.00  0.00     0.112 H 
ENDBRANCH   1  10
BRANCH   2  21
ATOM     21  O2' U5P d          39.392   1.920  13.616  0.00  0.00    -0.388 OA
ATOM     22  H6  U5P d          40.310   1.884  13.372  0.00  0.00     0.210 HD
ENDBRANCH   2  21
BRANCH   3  23
ATOM     23  O3' U5P d          40.254   0.557  15.851  0.00  0.00    -0.390 OA
ATOM     24  H9  U5P d          40.052   0.086  16.651  0.00  0.00     0.210 HD
ENDBRANCH   3  23
BRANCH   4  25
ATOM     25  C5' U5P d          41.666  -1.861  14.342  0.00  0.00     0.059 C 
ATOM     26  H10 U5P d          42.082  -1.650  15.338  0.00  0.00     0.079 H 
ATOM     27  H11 U5P d          42.480  -2.139  13.655  0.00  0.00     0.079 H 
BRANCH  25  28
ATOM     28  O5' U5P d          40.711  -2.910  14.421  0.00  0.00    -0.280 OA
BRANCH  28  29
ATOM     29  P   U5P d          40.953  -4.355  13.758  0.00  0.00     0.422 P 
ATOM     30  O1P U5P d          41.617  -4.071  12.425  0.00  0.00    -0.617 OA
ATOM     31  O2P U5P d          39.571  -4.965  13.654  0.00  0.00    -0.617 OA
ATOM     32  O3P U5P d          41.829  -5.026  14.790  0.00  0.00    -0.617 OA
ENDBRANCH  28  29
ENDBRANCH  25  28
ENDBRANCH   4  25
TORSDOF 6
ENDMDL
MODEL 9
REMARK VINA RESULT:      -4.0      2.818      5.348
REMARK  6 active torsions:
REMARK  status: ('A' for Active; 'I' for Inactive)
REMARK    1  A    between atoms: N1_1  and  C1'_9 
REMARK    2  A    between atoms: C2'_10  and  O2'_11 
REMARK    3  A    between atoms: C3'_12  and  O3'_14 
REMARK    4  A    between atoms: C4'_13  and  C5'_16 
REMARK    5  A    between atoms: C5'_16  and  O5'_17 
REMARK    6  A    between atoms: O5'_17  and  P_18 
ROOT
ATOM      1  C1' U5P d          38.531  -2.903  13.212  0.00  0.00     0.141 C 
ATOM      2  C2' U5P d          37.361  -3.389  14.031  0.00  0.00     0.105 C 
ATOM      3  C3' U5P d          36.201  -2.600  13.471  0.00  0.00     0.091 C 
ATOM      4  C4' U5P d          36.593  -2.398  12.017  0.00  0.00     0.089 C 
ATOM      5  O4' U5P d          38.010  -2.196  12.083  0.00  0.00    -0.353 OA
ATOM      6  H4  U5P d          39.108  -3.772  12.863  0.00  0.00     0.123 H 
ATOM      7  H5  U5P d          37.487  -3.232  15.113  0.00  0.00     0.093 H 
ATOM      8  H7  U5P d          36.133  -1.627  13.979  0.00  0.00     0.091 H 
ATOM      9  H8  U5P d          36.360  -3.300  11.431  0.00  0.00     0.090 H 
ENDROOT
BRANCH   1  10
ATOM     10  N1  U5P d          39.416  -2.040  13.976  0.00  0.00    -0.280 N 
ATOM     11  C2  U5P d          40.686  -1.799  13.449  0.00  0.00     0.331 A 
ATOM     12  N3  U5P d          41.515  -0.995  14.109  0.00  0.00    -0.275 N 
ATOM     13  O2  U5P d          41.034  -2.344  12.388  0.00  0.00    -0.246 OA
ATOM     14  C4  U5P d          41.176  -0.415  15.280  0.00  0.00     0.250 A 
ATOM     15  H1  U5P d          42.421  -0.815  13.724  0.00  0.00     0.173 HD
ATOM     16  C5  U5P d          39.911  -0.634  15.828  0.00  0.00    -0.002 A 
ATOM     17  O4  U5P d          42.005   0.323  15.857  0.00  0.00    -0.268 OA
ATOM     18  C6  U5P d          39.038  -1.465  15.134  0.00  0.00    -0.008 A 
ATOM     19  H2  U5P d          39.617  -0.168  16.767  0.00  0.00     0.094 H 
ATOM     20  H3  U5P d          38.041  -1.652  15.529  0.00  0.00     0.112 H 
ENDBRANCH   1  10
BRANCH   2  21
ATOM     21  O2' U5P d          37.239  -4.779  13.705  0.00  0.00    -0.388 OA
ATOM     22  H6  U5P d          36.666  -4.879  12.954  0.00  0.00     0.210 HD
ENDBRANCH   2  21
BRANCH   3  23
ATOM     23  O3' U5P d          34.942  -3.260  13.619  0.00  0.00    -0.390 OA
ATOM     24  H9  U5P d          34.726  -3.324  14.542  0.00  0.00     0.210 HD
ENDBRANCH   3  23
BRANCH   4  25
ATOM     25  C5' U5P d          35.886  -1.209  11.379  0.00  0.00     0.059 C 
ATOM     26  H10 U5P d          35.191  -0.750  12.098  0.00  0.00     0.079 H 
ATOM     27  H11 U5P d          35.329  -1.532  10.486  0.00  0.00     0.079 H 
BRANCH  25  28
ATOM     28  O5' U5P d          36.899  -0.281  11.016  0.00  0.00    -0.280 OA
BRANCH  28  29
ATOM     29  P   U5P d          37.187   1.061  11.855  0.00  0.00     0.422 P 
ATOM     30  O1P U5P d          37.139   2.181  10.835  0.00  0.00    -0.617 OA
ATOM     31  O2P U5P d          38.549   0.838  12.479  0.00  0.00    -0.617 OA
ATOM     32  O3P U5P d          36.058   1.046  12.859  0.00  0.00    -0.617 OA
ENDBRANCH  28  29
ENDBRANCH  25  28
ENDBRANCH   4  25
TORSDOF 6
ENDMDL
MODEL 10
REMARK VINA RESULT:      -3.8      2.194      4.720
REMARK  6 active torsions:
REMARK  status: ('A' for Active; 'I' for Inactive)
REMARK    1  A    between atoms: N1_1  and  C1'_9 
REMARK    2  A    between atoms: C2'_10  and  O2'_11 
REMARK    3  A    between atoms: C3'_12  and  O3'_14 
REMARK    4  A    between atoms: C4'_13  and  C5'_16 
REMARK    5  A    between atoms: C5'_16  and  O5'_17 
REMARK    6  A    between atoms: O5'_17  and  P_18 
ROOT
ATOM      1  C1' U5P d          36.674  -1.752  13.559  0.00  0.00     0.141 C 
ATOM      2  C2' U5P d          36.313  -2.975  12.753  0.00  0.00     0.105 C 
ATOM      3  C3' U5P d          37.493  -3.891  12.975  0.00  0.00     0.091 C 
ATOM      4  C4' U5P d          37.957  -3.520  14.373  0.00  0.00     0.089 C 
ATOM      5  O4' U5P d          37.760  -2.101  14.421  0.00  0.00    -0.353 OA
ATOM      6  H4  U5P d          35.807  -1.456  14.167  0.00  0.00     0.123 H 
ATOM      7  H5  U5P d          36.145  -2.764  11.686  0.00  0.00     0.093 H 
ATOM      8  H7  U5P d          38.284  -3.662  12.245  0.00  0.00     0.091 H 
ATOM      9  H8  U5P d          37.331  -4.021  15.127  0.00  0.00     0.090 H 
ENDROOT
BRANCH   1  10
ATOM     10  N1  U5P d          37.048  -0.629  12.716  0.00  0.00    -0.280 N 
ATOM     11  C2  U5P d          36.486  -0.572  11.440  0.00  0.00     0.331 A 
ATOM     12  N3  U5P d          36.786   0.455  10.649  0.00  0.00    -0.275 N 
ATOM     13  O2  U5P d          35.730  -1.478  11.051  0.00  0.00    -0.246 OA
ATOM     14  C4  U5P d          37.630   1.437  11.032  0.00  0.00     0.250 A 
ATOM     15  H1  U5P d          36.373   0.500   9.739  0.00  0.00     0.173 HD
ATOM     16  C5  U5P d          38.202   1.409  12.305  0.00  0.00    -0.002 A 
ATOM     17  O4  U5P d          37.880   2.370  10.237  0.00  0.00    -0.268 OA
ATOM     18  C6  U5P d          37.881   0.342  13.138  0.00  0.00    -0.008 A 
ATOM     19  H2  U5P d          38.879   2.196  12.634  0.00  0.00     0.094 H 
ATOM     20  H3  U5P d          38.305   0.292  14.140  0.00  0.00     0.112 H 
ENDBRANCH   1  10
BRANCH   2  21
ATOM     21  O2' U5P d          35.136  -3.494  13.385  0.00  0.00    -0.388 OA
ATOM     22  H6  U5P d          34.376  -3.010  13.084  0.00  0.00     0.210 HD
ENDBRANCH   2  21
BRANCH   3  23
ATOM     23  O3' U5P d          37.168  -5.277  12.848  0.00  0.00    -0.390 OA
ATOM     24  H9  U5P d          36.667  -5.411  12.052  0.00  0.00     0.210 HD
ENDBRANCH   3  23
BRANCH   4  25
ATOM     25  C5' U5P d          39.413  -3.893  14.626  0.00  0.00     0.059 C 
ATOM     26  H10 U5P d          39.761  -4.603  13.861  0.00  0.00     0.079 H 
ATOM     27  H11 U5P d          39.521  -4.347  15.623  0.00  0.00     0.079 H 
BRANCH  25  28
ATOM     28  O5' U5P d          40.159  -2.687  14.553  0.00  0.00    -0.280 OA
BRANCH  28  29
ATOM     29  P   U5P d          41.182  -2.372  13.352  0.00  0.00     0.422 P 
ATOM     30  O1P U5P d          42.038  -1.226  13.854  0.00  0.00    -0.617 OA
ATOM     31  O2P U5P d          40.296  -2.025  12.175  0.00  0.00    -0.617 OA
ATOM     32  O3P U5P d          41.894  -3.696  13.197  0.00  0.00    -0.617 OA
ENDBRANCH  28  29
ENDBRANCH  25  28
ENDBRANCH   4  25
TORSDOF 6
ENDMDL
