REMARK  9 active torsions:
REMARK  status: ('A' for Active; 'I' for Inactive)
REMARK    1  A    between atoms: C20_6  and  C17_7 
REMARK    2  A    between atoms: C4_11  and  C1_12 
REMARK    3  A    between atoms: N12_24  and  C19_25 
REMARK    4  A    between atoms: C19_25  and  C21_26 
REMARK    5  A    between atoms: C21_26  and  C23_27 
REMARK    6  A    between atoms: C23_27  and  N29_28 
REMARK    7  A    between atoms: N29_28  and  C32_29 
REMARK    8  A    between atoms: N29_28  and  C31_30 
REMARK    9  A    between atoms: N29_28  and  C30_31 
ROOT
ATOM      1  C1  Y5H d          -2.078  12.696  22.451  0.00  0.00     0.160 C 
ATOM      2  N3  Y5H d          -3.075  13.706  22.008  0.00  0.00    -0.055 N 
ATOM      3  C7  Y5H d          -2.785  13.859  20.572  0.00  0.00     0.117 C 
ATOM      4  C14 Y5H d          -1.569  14.800  20.506  0.00  0.00    -0.036 C 
ATOM      5  C15 Y5H d          -1.736  15.683  21.754  0.00  0.00    -0.040 C 
ATOM      6  C8  Y5H d          -2.855  15.049  22.602  0.00  0.00     0.085 C 
ATOM      7  C5  Y5H d          -2.524  12.458  20.029  0.00  0.00     0.066 A 
ATOM      8  C2  Y5H d          -2.130  11.645  21.291  0.00  0.00     0.071 A 
ATOM      9  C6  Y5H d          -3.234  10.600  21.373  0.00  0.00     0.234 A 
ATOM     10  O13 Y5H d          -3.355   9.693  22.179  0.00  0.00    -0.272 OA
ATOM     11  C11 Y5H d          -3.795  11.835  19.511  0.00  0.00     0.233 A 
ATOM     12  O18 Y5H d          -4.458  12.126  18.515  0.00  0.00    -0.272 OA
ATOM     13  N12 Y5H d          -4.198  10.794  20.370  0.00  0.00    -0.288 N 
ATOM     14  H4  Y5H d          -1.079  13.150  22.527  0.00  0.00     0.096 H 
ATOM     15  H5  Y5H d          -4.016  13.389  22.184  0.00  0.00     0.281 HD
ATOM     16  H6  Y5H d          -3.634  14.309  20.037  0.00  0.00     0.086 H 
ATOM     17  H7  Y5H d          -1.590  15.407  19.589  0.00  0.00     0.036 H 
ATOM     18  H8  Y5H d          -0.628  14.232  20.549  0.00  0.00     0.036 H 
ATOM     19  H9  Y5H d          -2.017  16.705  21.460  0.00  0.00     0.035 H 
ATOM     20  H10 Y5H d          -0.797  15.711  22.326  0.00  0.00     0.035 H 
ATOM     21  H11 Y5H d          -2.541  14.960  23.652  0.00  0.00     0.076 H 
ATOM     22  H12 Y5H d          -3.773  15.652  22.544  0.00  0.00     0.076 H 
ATOM     23  H13 Y5H d          -1.738  12.459  19.260  0.00  0.00     0.059 H 
ATOM     24  H14 Y5H d          -1.150  11.155  21.189  0.00  0.00     0.059 H 
ENDROOT
BRANCH  13  25
ATOM     25  C19 Y5H d          -5.387   9.943  20.203  0.00  0.00     0.007 C 
ATOM     26  H15 Y5H d          -6.233  10.564  19.873  0.00  0.00     0.065 H 
ATOM     27  H16 Y5H d          -5.632   9.471  21.166  0.00  0.00     0.065 H 
BRANCH  25  28
ATOM     28  C21 Y5H d          -5.123   8.851  19.157  0.00  0.00    -0.027 C 
ATOM     29  H17 Y5H d          -4.222   8.275  19.415  0.00  0.00     0.037 H 
ATOM     30  H18 Y5H d          -5.002   9.292  18.157  0.00  0.00     0.037 H 
BRANCH  28  31
ATOM     31  C23 Y5H d          -6.375   7.954  19.209  0.00  0.00     0.086 C 
ATOM     32  H19 Y5H d          -7.259   8.582  19.024  0.00  0.00     0.076 H 
ATOM     33  H20 Y5H d          -6.443   7.512  20.214  0.00  0.00     0.076 H 
BRANCH  31  34
ATOM     34  N29 Y5H d          -6.366   6.830  18.192  0.00  0.00    -0.079 N 
BRANCH  34  35
ATOM     35  C32 Y5H d          -6.317   7.398  16.802  0.00  0.00     0.067 C 
ATOM     36  H21 Y5H d          -6.311   6.577  16.070  0.00  0.00     0.068 H 
ATOM     37  H22 Y5H d          -5.404   8.001  16.684  0.00  0.00     0.068 H 
ATOM     38  H23 Y5H d          -7.200   8.032  16.634  0.00  0.00     0.068 H 
ENDBRANCH  34  35
BRANCH  34  39
ATOM     39  C31 Y5H d          -7.696   6.127  18.335  0.00  0.00     0.067 C 
ATOM     40  H24 Y5H d          -7.775   5.694  19.343  0.00  0.00     0.068 H 
ATOM     41  H25 Y5H d          -7.770   5.326  17.585  0.00  0.00     0.068 H 
ATOM     42  H26 Y5H d          -8.511   6.849  18.181  0.00  0.00     0.068 H 
ENDBRANCH  34  39
BRANCH  34  43
ATOM     43  C30 Y5H d          -5.235   5.877  18.381  0.00  0.00     0.067 C 
ATOM     44  H27 Y5H d          -4.281   6.414  18.272  0.00  0.00     0.068 H 
ATOM     45  H28 Y5H d          -5.296   5.081  17.625  0.00  0.00     0.068 H 
ATOM     46  H29 Y5H d          -5.293   5.434  19.386  0.00  0.00     0.068 H 
ENDBRANCH  34  43
ENDBRANCH  31  34
ENDBRANCH  28  31
ENDBRANCH  25  28
ENDBRANCH  13  25
BRANCH   1  47
ATOM     47  C4  Y5H d          -2.421  12.054  23.771  0.00  0.00     0.091 A 
ATOM     48  N16 Y5H d          -1.737  10.983  24.300  0.00  0.00    -0.224 NA
ATOM     49  C17 Y5H d          -2.326  10.758  25.457  0.00  0.00     0.186 A 
ATOM     50  O10 Y5H d          -3.417  11.532  25.686  0.00  0.00    -0.301 OA
ATOM     51  C9  Y5H d          -3.424  12.380  24.590  0.00  0.00     0.047 A 
ATOM     52  H3  Y5H d          -4.136  13.187  24.423  0.00  0.00     0.126 H 
BRANCH  49  53
ATOM     53  C20 Y5H d          -2.092   9.655  26.377  0.00  0.00     0.059 A 
ATOM     54  C22 Y5H d          -2.859   9.298  27.480  0.00  0.00    -0.060 A 
ATOM     55  C24 Y5H d          -2.444   8.089  28.085  0.00  0.00    -0.054 A 
ATOM     56  H2  Y5H d          -3.697   9.891  27.843  0.00  0.00     0.085 H 
ATOM     57  C25 Y5H d          -1.413   7.520  27.383  0.00  0.00     0.075 A 
ATOM     58  H1  Y5H d          -2.884   7.667  28.987  0.00  0.00     0.086 H 
ATOM     59 CL1  Y5H d          -0.603   6.004  27.714  0.00  0.00    -0.076 Cl
ATOM     60  S1  Y5H d          -0.857   8.483  26.044  0.00  0.00    -0.074 SA
ENDBRANCH  49  53
ENDBRANCH   1  47
TORSDOF 9
