MODEL 1
REMARK VINA RESULT:      -7.8      0.000      0.000
REMARK  9 active torsions:
REMARK  status: ('A' for Active; 'I' for Inactive)
REMARK    1  A    between atoms: C20_6  and  C17_7 
REMARK    2  A    between atoms: C4_11  and  C1_12 
REMARK    3  A    between atoms: N12_24  and  C19_25 
REMARK    4  A    between atoms: C19_25  and  C21_26 
REMARK    5  A    between atoms: C21_26  and  C23_27 
REMARK    6  A    between atoms: C23_27  and  N29_28 
REMARK    7  A    between atoms: N29_28  and  C32_29 
REMARK    8  A    between atoms: N29_28  and  C31_30 
REMARK    9  A    between atoms: N29_28  and  C30_31 
ROOT
ATOM      1  C1  Y5H d          -1.633  12.183  22.041  0.00  0.00     0.160 C 
ATOM      2  N3  Y5H d          -2.290  13.470  21.690  0.00  0.00    -0.055 N 
ATOM      3  C7  Y5H d          -2.279  13.463  20.217  0.00  0.00     0.117 C 
ATOM      4  C14 Y5H d          -0.857  13.902  19.824  0.00  0.00    -0.036 C 
ATOM      5  C15 Y5H d          -0.438  14.824  20.982  0.00  0.00    -0.040 C 
ATOM      6  C8  Y5H d          -1.498  14.662  22.087  0.00  0.00     0.085 C 
ATOM      7  C5  Y5H d          -2.640  12.046  19.785  0.00  0.00     0.066 A 
ATOM      8  C2  Y5H d          -2.291  11.185  21.029  0.00  0.00     0.071 A 
ATOM      9  C6  Y5H d          -3.643  10.610  21.427  0.00  0.00     0.234 A 
ATOM     10  O13 Y5H d          -3.895   9.833  22.332  0.00  0.00    -0.272 OA
ATOM     11  C11 Y5H d          -4.127  11.906  19.585  0.00  0.00     0.233 A 
ATOM     12  O18 Y5H d          -4.846  12.385  18.707  0.00  0.00    -0.272 OA
ATOM     13  N12 Y5H d          -4.671  11.107  20.609  0.00  0.00    -0.288 N 
ATOM     14  H4  Y5H d          -0.547  12.250  21.879  0.00  0.00     0.096 H 
ATOM     15  H5  Y5H d          -3.222  13.518  22.073  0.00  0.00     0.281 HD
ATOM     16  H6  Y5H d          -3.014  14.172  19.808  0.00  0.00     0.086 H 
ATOM     17  H7  Y5H d          -0.862  14.447  18.869  0.00  0.00     0.036 H 
ATOM     18  H8  Y5H d          -0.184  13.035  19.749  0.00  0.00     0.036 H 
ATOM     19  H9  Y5H d          -0.405  15.869  20.640  0.00  0.00     0.035 H 
ATOM     20  H10 Y5H d           0.552  14.530  21.360  0.00  0.00     0.035 H 
ATOM     21  H11 Y5H d          -1.018  14.498  23.063  0.00  0.00     0.076 H 
ATOM     22  H12 Y5H d          -2.141  15.552  22.140  0.00  0.00     0.076 H 
ATOM     23  H13 Y5H d          -2.086  11.741  18.886  0.00  0.00     0.059 H 
ATOM     24  H14 Y5H d          -1.586  10.373  20.796  0.00  0.00     0.059 H 
ENDROOT
BRANCH  13  25
ATOM     25  C19 Y5H d          -6.087  10.735  20.760  0.00  0.00     0.007 C 
ATOM     26  H15 Y5H d          -6.698  11.360  20.091  0.00  0.00     0.065 H 
ATOM     27  H16 Y5H d          -6.396  10.904  21.802  0.00  0.00     0.065 H 
BRANCH  25  28
ATOM     28  C21 Y5H d          -6.296   9.257  20.402  0.00  0.00    -0.027 C 
ATOM     29  H17 Y5H d          -7.146   8.838  20.961  0.00  0.00     0.037 H 
ATOM     30  H18 Y5H d          -5.390   8.673  20.621  0.00  0.00     0.037 H 
BRANCH  28  31
ATOM     31  C23 Y5H d          -6.589   9.262  18.889  0.00  0.00     0.086 C 
ATOM     32  H19 Y5H d          -5.900   9.971  18.406  0.00  0.00     0.076 H 
ATOM     33  H20 Y5H d          -7.625   9.597  18.738  0.00  0.00     0.076 H 
BRANCH  31  34
ATOM     34  N29 Y5H d          -6.422   7.908  18.229  0.00  0.00    -0.079 N 
BRANCH  34  35
ATOM     35  C32 Y5H d          -5.164   7.250  18.719  0.00  0.00     0.067 C 
ATOM     36  H21 Y5H d          -5.256   7.035  19.794  0.00  0.00     0.068 H 
ATOM     37  H22 Y5H d          -4.309   7.924  18.553  0.00  0.00     0.068 H 
ATOM     38  H23 Y5H d          -5.003   6.311  18.170  0.00  0.00     0.068 H 
ENDBRANCH  34  35
BRANCH  34  39
ATOM     39  C31 Y5H d          -6.232   8.182  16.755  0.00  0.00     0.067 C 
ATOM     40  H24 Y5H d          -7.143   8.644  16.348  0.00  0.00     0.068 H 
ATOM     41  H25 Y5H d          -6.033   7.238  16.229  0.00  0.00     0.068 H 
ATOM     42  H26 Y5H d          -5.381   8.865  16.616  0.00  0.00     0.068 H 
ENDBRANCH  34  39
BRANCH  34  43
ATOM     43  C30 Y5H d          -7.581   6.998  18.457  0.00  0.00     0.067 C 
ATOM     44  H27 Y5H d          -7.680   6.792  19.534  0.00  0.00     0.068 H 
ATOM     45  H28 Y5H d          -7.418   6.054  17.918  0.00  0.00     0.068 H 
ATOM     46  H29 Y5H d          -8.501   7.476  18.090  0.00  0.00     0.068 H 
ENDBRANCH  34  43
ENDBRANCH  31  34
ENDBRANCH  28  31
ENDBRANCH  25  28
ENDBRANCH  13  25
BRANCH   1  47
ATOM     47  C4  Y5H d          -1.886  11.749  23.462  0.00  0.00     0.091 A 
ATOM     48  N16 Y5H d          -1.407  10.575  23.999  0.00  0.00    -0.224 NA
ATOM     49  C17 Y5H d          -1.820  10.595  25.250  0.00  0.00     0.186 A 
ATOM     50  O10 Y5H d          -2.626  11.644  25.553  0.00  0.00    -0.301 OA
ATOM     51  C9  Y5H d          -2.615  12.385  24.382  0.00  0.00     0.047 A 
ATOM     52  H3  Y5H d          -3.122  13.338  24.235  0.00  0.00     0.126 H 
BRANCH  49  53
ATOM     53  C20 Y5H d          -1.709   9.537  26.243  0.00  0.00     0.059 A 
ATOM     54  C22 Y5H d          -2.604   9.239  27.263  0.00  0.00    -0.060 A 
ATOM     55  C24 Y5H d          -2.278   8.058  27.970  0.00  0.00    -0.054 A 
ATOM     56  H2  Y5H d          -3.472   9.854  27.496  0.00  0.00     0.085 H 
ATOM     57  C25 Y5H d          -1.179   7.449  27.422  0.00  0.00     0.075 A 
ATOM     58  H1  Y5H d          -2.826   7.684  28.833  0.00  0.00     0.086 H 
ATOM     59 CL1  Y5H d          -0.431   5.946  27.918  0.00  0.00    -0.076 Cl
ATOM     60  S1  Y5H d          -0.458   8.342  26.114  0.00  0.00    -0.074 SA
ENDBRANCH  49  53
ENDBRANCH   1  47
TORSDOF 9
ENDMDL
MODEL 2
REMARK VINA RESULT:      -7.2      1.752      3.258
REMARK  9 active torsions:
REMARK  status: ('A' for Active; 'I' for Inactive)
REMARK    1  A    between atoms: C20_6  and  C17_7 
REMARK    2  A    between atoms: C4_11  and  C1_12 
REMARK    3  A    between atoms: N12_24  and  C19_25 
REMARK    4  A    between atoms: C19_25  and  C21_26 
REMARK    5  A    between atoms: C21_26  and  C23_27 
REMARK    6  A    between atoms: C23_27  and  N29_28 
REMARK    7  A    between atoms: N29_28  and  C32_29 
REMARK    8  A    between atoms: N29_28  and  C31_30 
REMARK    9  A    between atoms: N29_28  and  C30_31 
ROOT
ATOM      1  C1  Y5H d          -1.624  12.220  22.118  0.00  0.00     0.160 C 
ATOM      2  N3  Y5H d          -2.255  13.528  21.798  0.00  0.00    -0.055 N 
ATOM      3  C7  Y5H d          -2.245  13.556  20.325  0.00  0.00     0.117 C 
ATOM      4  C14 Y5H d          -0.815  13.974  19.941  0.00  0.00    -0.036 C 
ATOM      5  C15 Y5H d          -0.376  14.860  21.119  0.00  0.00    -0.040 C 
ATOM      6  C8  Y5H d          -1.438  14.694  22.222  0.00  0.00     0.085 C 
ATOM      7  C5  Y5H d          -2.636  12.158  19.861  0.00  0.00     0.066 A 
ATOM      8  C2  Y5H d          -2.304  11.261  21.083  0.00  0.00     0.071 A 
ATOM      9  C6  Y5H d          -3.668  10.705  21.470  0.00  0.00     0.234 A 
ATOM     10  O13 Y5H d          -3.934   9.912  22.357  0.00  0.00    -0.272 OA
ATOM     11  C11 Y5H d          -4.126  12.053  19.659  0.00  0.00     0.233 A 
ATOM     12  O18 Y5H d          -4.835  12.567  18.793  0.00  0.00    -0.272 OA
ATOM     13  N12 Y5H d          -4.686  11.242  20.665  0.00  0.00    -0.288 N 
ATOM     14  H4  Y5H d          -0.538  12.268  21.956  0.00  0.00     0.096 H 
ATOM     15  H5  Y5H d          -3.185  13.587  22.183  0.00  0.00     0.281 HD
ATOM     16  H6  Y5H d          -2.966  14.289  19.933  0.00  0.00     0.086 H 
ATOM     17  H7  Y5H d          -0.810  14.542  18.999  0.00  0.00     0.036 H 
ATOM     18  H8  Y5H d          -0.160  13.096  19.844  0.00  0.00     0.036 H 
ATOM     19  H9  Y5H d          -0.321  15.912  20.802  0.00  0.00     0.035 H 
ATOM     20  H10 Y5H d           0.608  14.537  21.489  0.00  0.00     0.035 H 
ATOM     21  H11 Y5H d          -0.960  14.498  23.192  0.00  0.00     0.076 H 
ATOM     22  H12 Y5H d          -2.063  15.596  22.297  0.00  0.00     0.076 H 
ATOM     23  H13 Y5H d          -2.089  11.862  18.954  0.00  0.00     0.059 H 
ATOM     24  H14 Y5H d          -1.617  10.440  20.830  0.00  0.00     0.059 H 
ENDROOT
BRANCH  13  25
ATOM     25  C19 Y5H d          -6.110  10.896  20.809  0.00  0.00     0.007 C 
ATOM     26  H15 Y5H d          -6.220  10.140  21.600  0.00  0.00     0.065 H 
ATOM     27  H16 Y5H d          -6.481  10.488  19.857  0.00  0.00     0.065 H 
BRANCH  25  28
ATOM     28  C21 Y5H d          -6.929  12.140  21.180  0.00  0.00    -0.027 C 
ATOM     29  H17 Y5H d          -8.006  11.918  21.156  0.00  0.00     0.037 H 
ATOM     30  H18 Y5H d          -6.711  12.969  20.491  0.00  0.00     0.037 H 
BRANCH  28  31
ATOM     31  C23 Y5H d          -6.477  12.489  22.611  0.00  0.00     0.086 C 
ATOM     32  H19 Y5H d          -5.393  12.318  22.684  0.00  0.00     0.076 H 
ATOM     33  H20 Y5H d          -7.001  11.822  23.312  0.00  0.00     0.076 H 
BRANCH  31  34
ATOM     34  N29 Y5H d          -6.763  13.923  23.012  0.00  0.00    -0.079 N 
BRANCH  34  35
ATOM     35  C32 Y5H d          -7.649  14.573  21.988  0.00  0.00     0.067 C 
ATOM     36  H21 Y5H d          -8.404  13.850  21.644  0.00  0.00     0.068 H 
ATOM     37  H22 Y5H d          -7.041  14.903  21.132  0.00  0.00     0.068 H 
ATOM     38  H23 Y5H d          -8.152  15.442  22.438  0.00  0.00     0.068 H 
ENDBRANCH  34  35
BRANCH  34  39
ATOM     39  C31 Y5H d          -5.434  14.641  22.965  0.00  0.00     0.067 C 
ATOM     40  H24 Y5H d          -5.606  15.723  22.870  0.00  0.00     0.068 H 
ATOM     41  H25 Y5H d          -4.854  14.284  22.102  0.00  0.00     0.068 H 
ATOM     42  H26 Y5H d          -4.875  14.439  23.890  0.00  0.00     0.068 H 
ENDBRANCH  34  39
BRANCH  34  43
ATOM     43  C30 Y5H d          -7.387  14.042  24.360  0.00  0.00     0.067 C 
ATOM     44  H27 Y5H d          -7.495  15.105  24.622  0.00  0.00     0.068 H 
ATOM     45  H28 Y5H d          -6.750  13.544  25.105  0.00  0.00     0.068 H 
ATOM     46  H29 Y5H d          -8.379  13.566  24.348  0.00  0.00     0.068 H 
ENDBRANCH  34  43
ENDBRANCH  31  34
ENDBRANCH  28  31
ENDBRANCH  25  28
ENDBRANCH  13  25
BRANCH   1  47
ATOM     47  C4  Y5H d          -1.885  11.758  23.528  0.00  0.00     0.091 A 
ATOM     48  N16 Y5H d          -1.404  10.577  24.046  0.00  0.00    -0.224 NA
ATOM     49  C17 Y5H d          -1.826  10.572  25.295  0.00  0.00     0.186 A 
ATOM     50  O10 Y5H d          -2.639  11.611  25.612  0.00  0.00    -0.301 OA
ATOM     51  C9  Y5H d          -2.624  12.373  24.455  0.00  0.00     0.047 A 
ATOM     52  H3  Y5H d          -3.135  13.326  24.322  0.00  0.00     0.126 H 
BRANCH  49  53
ATOM     53  C20 Y5H d          -1.716   9.496  26.268  0.00  0.00     0.059 A 
ATOM     54  C22 Y5H d          -2.609   9.184  27.287  0.00  0.00    -0.060 A 
ATOM     55  C24 Y5H d          -2.285   7.990  27.971  0.00  0.00    -0.054 A 
ATOM     56  H2  Y5H d          -3.473   9.799  27.534  0.00  0.00     0.085 H 
ATOM     57  C25 Y5H d          -1.191   7.385  27.409  0.00  0.00     0.075 A 
ATOM     58  H1  Y5H d          -2.832   7.602  28.830  0.00  0.00     0.086 H 
ATOM     59 CL1  Y5H d          -0.449   5.870  27.875  0.00  0.00    -0.076 Cl
ATOM     60  S1  Y5H d          -0.471   8.297  26.113  0.00  0.00    -0.074 SA
ENDBRANCH  49  53
ENDBRANCH   1  47
TORSDOF 9
ENDMDL
MODEL 3
REMARK VINA RESULT:      -6.7      3.622      6.961
REMARK  9 active torsions:
REMARK  status: ('A' for Active; 'I' for Inactive)
REMARK    1  A    between atoms: C20_6  and  C17_7 
REMARK    2  A    between atoms: C4_11  and  C1_12 
REMARK    3  A    between atoms: N12_24  and  C19_25 
REMARK    4  A    between atoms: C19_25  and  C21_26 
REMARK    5  A    between atoms: C21_26  and  C23_27 
REMARK    6  A    between atoms: C23_27  and  N29_28 
REMARK    7  A    between atoms: N29_28  and  C32_29 
REMARK    8  A    between atoms: N29_28  and  C31_30 
REMARK    9  A    between atoms: N29_28  and  C30_31 
ROOT
ATOM      1  C1  Y5H d          -2.903  10.534  22.498  0.00  0.00     0.160 C 
ATOM      2  N3  Y5H d          -2.848  11.558  23.575  0.00  0.00    -0.055 N 
ATOM      3  C7  Y5H d          -1.403  11.724  23.810  0.00  0.00     0.117 C 
ATOM      4  C14 Y5H d          -1.004  10.536  24.704  0.00  0.00    -0.036 C 
ATOM      5  C15 Y5H d          -2.283  10.252  25.509  0.00  0.00    -0.040 C 
ATOM      6  C8  Y5H d          -3.408  11.085  24.866  0.00  0.00     0.085 C 
ATOM      7  C5  Y5H d          -0.737  11.728  22.438  0.00  0.00     0.066 A 
ATOM      8  C2  Y5H d          -1.768  11.008  21.529  0.00  0.00     0.071 A 
ATOM      9  C6  Y5H d          -2.142  12.090  20.526  0.00  0.00     0.234 A 
ATOM     10  O13 Y5H d          -2.899  12.006  19.573  0.00  0.00    -0.272 OA
ATOM     11  C11 Y5H d          -0.616  13.132  21.902  0.00  0.00     0.233 A 
ATOM     12  O18 Y5H d           0.104  14.055  22.284  0.00  0.00    -0.272 OA
ATOM     13  N12 Y5H d          -1.506  13.306  20.824  0.00  0.00    -0.288 N 
ATOM     14  H4  Y5H d          -2.682   9.536  22.906  0.00  0.00     0.096 H 
ATOM     15  H5  Y5H d          -3.296  12.414  23.285  0.00  0.00     0.281 HD
ATOM     16  H6  Y5H d          -1.187  12.669  24.328  0.00  0.00     0.086 H 
ATOM     17  H7  Y5H d          -0.172  10.807  25.370  0.00  0.00     0.036 H 
ATOM     18  H8  Y5H d          -0.719   9.664  24.097  0.00  0.00     0.036 H 
ATOM     19  H9  Y5H d          -2.144  10.551  26.558  0.00  0.00     0.035 H 
ATOM     20  H10 Y5H d          -2.530   9.182  25.461  0.00  0.00     0.035 H 
ATOM     21  H11 Y5H d          -4.299  10.464  24.695  0.00  0.00     0.076 H 
ATOM     22  H12 Y5H d          -3.673  11.938  25.507  0.00  0.00     0.076 H 
ATOM     23  H13 Y5H d           0.240  11.224  22.458  0.00  0.00     0.059 H 
ATOM     24  H14 Y5H d          -1.337  10.139  21.008  0.00  0.00     0.059 H 
ENDROOT
BRANCH  13  25
ATOM     25  C19 Y5H d          -1.680  14.536  20.034  0.00  0.00     0.007 C 
ATOM     26  H15 Y5H d          -1.647  15.406  20.706  0.00  0.00     0.065 H 
ATOM     27  H16 Y5H d          -2.655  14.503  19.525  0.00  0.00     0.065 H 
BRANCH  25  28
ATOM     28  C21 Y5H d          -0.566  14.664  18.986  0.00  0.00    -0.027 C 
ATOM     29  H17 Y5H d          -0.112  13.683  18.780  0.00  0.00     0.037 H 
ATOM     30  H18 Y5H d           0.211  15.363  19.328  0.00  0.00     0.037 H 
BRANCH  28  31
ATOM     31  C23 Y5H d          -1.275  15.208  17.731  0.00  0.00     0.086 C 
ATOM     32  H19 Y5H d          -0.767  16.133  17.420  0.00  0.00     0.076 H 
ATOM     33  H20 Y5H d          -2.319  15.435  17.994  0.00  0.00     0.076 H 
BRANCH  31  34
ATOM     34  N29 Y5H d          -1.275  14.246  16.560  0.00  0.00    -0.079 N 
BRANCH  34  35
ATOM     35  C32 Y5H d          -0.174  13.236  16.728  0.00  0.00     0.067 C 
ATOM     36  H21 Y5H d          -0.180  12.856  17.761  0.00  0.00     0.068 H 
ATOM     37  H22 Y5H d           0.795  13.712  16.518  0.00  0.00     0.068 H 
ATOM     38  H23 Y5H d          -0.333  12.402  16.030  0.00  0.00     0.068 H 
ENDBRANCH  34  35
BRANCH  34  39
ATOM     39  C31 Y5H d          -0.934  15.071  15.341  0.00  0.00     0.067 C 
ATOM     40  H24 Y5H d           0.148  15.014  15.151  0.00  0.00     0.068 H 
ATOM     41  H25 Y5H d          -1.221  16.118  15.516  0.00  0.00     0.068 H 
ATOM     42  H26 Y5H d          -1.481  14.682  14.470  0.00  0.00     0.068 H 
ENDBRANCH  34  39
BRANCH  34  43
ATOM     43  C30 Y5H d          -2.575  13.540  16.381  0.00  0.00     0.067 C 
ATOM     44  H27 Y5H d          -2.440  12.466  16.580  0.00  0.00     0.068 H 
ATOM     45  H28 Y5H d          -2.929  13.679  15.349  0.00  0.00     0.068 H 
ATOM     46  H29 Y5H d          -3.316  13.952  17.082  0.00  0.00     0.068 H 
ENDBRANCH  34  43
ENDBRANCH  31  34
ENDBRANCH  28  31
ENDBRANCH  25  28
ENDBRANCH  13  25
BRANCH   1  47
ATOM     47  C4  Y5H d          -4.230  10.484  21.785  0.00  0.00     0.091 A 
ATOM     48  N16 Y5H d          -4.592   9.480  20.916  0.00  0.00    -0.224 NA
ATOM     49  C17 Y5H d          -5.817   9.794  20.546  0.00  0.00     0.186 A 
ATOM     50  O10 Y5H d          -6.254  10.987  21.023  0.00  0.00    -0.301 OA
ATOM     51  C9  Y5H d          -5.213  11.385  21.847  0.00  0.00     0.047 A 
ATOM     52  H3  Y5H d          -5.200  12.290  22.452  0.00  0.00     0.126 H 
BRANCH  49  53
ATOM     53  C20 Y5H d          -6.636   9.147  19.532  0.00  0.00     0.059 A 
ATOM     54  C22 Y5H d          -7.395   9.759  18.542  0.00  0.00    -0.060 A 
ATOM     55  C24 Y5H d          -7.962   8.846  17.623  0.00  0.00    -0.054 A 
ATOM     56  H2  Y5H d          -7.538  10.837  18.479  0.00  0.00     0.085 H 
ATOM     57  C25 Y5H d          -7.562   7.564  17.899  0.00  0.00     0.075 A 
ATOM     58  H1  Y5H d          -8.627   9.123  16.807  0.00  0.00     0.086 H 
ATOM     59 CL1  Y5H d          -7.962   6.106  17.016  0.00  0.00    -0.076 Cl
ATOM     60  S1  Y5H d          -6.582   7.424  19.330  0.00  0.00    -0.074 SA
ENDBRANCH  49  53
ENDBRANCH   1  47
TORSDOF 9
ENDMDL
MODEL 4
REMARK VINA RESULT:      -6.4      3.913      7.345
REMARK  9 active torsions:
REMARK  status: ('A' for Active; 'I' for Inactive)
REMARK    1  A    between atoms: C20_6  and  C17_7 
REMARK    2  A    between atoms: C4_11  and  C1_12 
REMARK    3  A    between atoms: N12_24  and  C19_25 
REMARK    4  A    between atoms: C19_25  and  C21_26 
REMARK    5  A    between atoms: C21_26  and  C23_27 
REMARK    6  A    between atoms: C23_27  and  N29_28 
REMARK    7  A    between atoms: N29_28  and  C32_29 
REMARK    8  A    between atoms: N29_28  and  C31_30 
REMARK    9  A    between atoms: N29_28  and  C30_31 
ROOT
ATOM      1  C1  Y5H d          -3.120  13.641  17.376  0.00  0.00     0.160 C 
ATOM      2  N3  Y5H d          -1.816  12.995  17.069  0.00  0.00    -0.055 N 
ATOM      3  C7  Y5H d          -0.832  13.950  17.606  0.00  0.00     0.117 C 
ATOM      4  C14 Y5H d          -0.717  15.051  16.537  0.00  0.00    -0.036 C 
ATOM      5  C15 Y5H d          -1.008  14.304  15.225  0.00  0.00    -0.040 C 
ATOM      6  C8  Y5H d          -1.531  12.908  15.615  0.00  0.00     0.085 C 
ATOM      7  C5  Y5H d          -1.378  14.432  18.946  0.00  0.00     0.066 A 
ATOM      8  C2  Y5H d          -2.902  14.153  18.840  0.00  0.00     0.071 A 
ATOM      9  C6  Y5H d          -3.134  13.141  19.954  0.00  0.00     0.234 A 
ATOM     10  O13 Y5H d          -4.186  12.634  20.304  0.00  0.00    -0.272 OA
ATOM     11  C11 Y5H d          -0.874  13.570  20.075  0.00  0.00     0.233 A 
ATOM     12  O18 Y5H d           0.262  13.480  20.541  0.00  0.00    -0.272 OA
ATOM     13  N12 Y5H d          -1.930  12.791  20.586  0.00  0.00    -0.288 N 
ATOM     14  H4  Y5H d          -3.304  14.479  16.689  0.00  0.00     0.096 H 
ATOM     15  H5  Y5H d          -1.751  12.085  17.500  0.00  0.00     0.281 HD
ATOM     16  H6  Y5H d           0.148  13.474  17.758  0.00  0.00     0.086 H 
ATOM     17  H7  Y5H d           0.294  15.486  16.526  0.00  0.00     0.036 H 
ATOM     18  H8  Y5H d          -1.456  15.847  16.710  0.00  0.00     0.036 H 
ATOM     19  H9  Y5H d          -0.088  14.210  14.630  0.00  0.00     0.035 H 
ATOM     20  H10 Y5H d          -1.769  14.844  14.643  0.00  0.00     0.035 H 
ATOM     21  H11 Y5H d          -2.448  12.669  15.056  0.00  0.00     0.076 H 
ATOM     22  H12 Y5H d          -0.770  12.140  15.416  0.00  0.00     0.076 H 
ATOM     23  H13 Y5H d          -1.150  15.493  19.122  0.00  0.00     0.059 H 
ATOM     24  H14 Y5H d          -3.509  15.054  19.013  0.00  0.00     0.059 H 
ENDROOT
BRANCH  13  25
ATOM     25  C19 Y5H d          -1.839  11.827  21.695  0.00  0.00     0.007 C 
ATOM     26  H15 Y5H d          -0.855  11.335  21.667  0.00  0.00     0.065 H 
ATOM     27  H16 Y5H d          -2.631  11.072  21.584  0.00  0.00     0.065 H 
BRANCH  25  28
ATOM     28  C21 Y5H d          -2.008  12.543  23.043  0.00  0.00    -0.027 C 
ATOM     29  H17 Y5H d          -2.131  13.626  22.896  0.00  0.00     0.037 H 
ATOM     30  H18 Y5H d          -1.140  12.358  23.692  0.00  0.00     0.037 H 
BRANCH  28  31
ATOM     31  C23 Y5H d          -3.283  11.928  23.651  0.00  0.00     0.086 C 
ATOM     32  H19 Y5H d          -2.995  11.331  24.529  0.00  0.00     0.076 H 
ATOM     33  H20 Y5H d          -3.745  11.273  22.897  0.00  0.00     0.076 H 
BRANCH  31  34
ATOM     34  N29 Y5H d          -4.310  12.954  24.087  0.00  0.00    -0.079 N 
BRANCH  34  35
ATOM     35  C32 Y5H d          -5.621  12.688  23.403  0.00  0.00     0.067 C 
ATOM     36  H21 Y5H d          -5.597  11.691  22.938  0.00  0.00     0.068 H 
ATOM     37  H22 Y5H d          -5.792  13.450  22.628  0.00  0.00     0.068 H 
ATOM     38  H23 Y5H d          -6.435  12.727  24.143  0.00  0.00     0.068 H 
ENDBRANCH  34  35
BRANCH  34  39
ATOM     39  C31 Y5H d          -3.810  14.287  23.580  0.00  0.00     0.067 C 
ATOM     40  H24 Y5H d          -4.036  15.068  24.320  0.00  0.00     0.068 H 
ATOM     41  H25 Y5H d          -4.308  14.527  22.629  0.00  0.00     0.068 H 
ATOM     42  H26 Y5H d          -2.723  14.234  23.421  0.00  0.00     0.068 H 
ENDBRANCH  34  39
BRANCH  34  43
ATOM     43  C30 Y5H d          -4.516  12.987  25.563  0.00  0.00     0.067 C 
ATOM     44  H27 Y5H d          -3.766  12.348  26.052  0.00  0.00     0.068 H 
ATOM     45  H28 Y5H d          -5.524  12.618  25.802  0.00  0.00     0.068 H 
ATOM     46  H29 Y5H d          -4.408  14.020  25.925  0.00  0.00     0.068 H 
ENDBRANCH  34  43
ENDBRANCH  31  34
ENDBRANCH  28  31
ENDBRANCH  25  28
ENDBRANCH  13  25
BRANCH   1  47
ATOM     47  C4  Y5H d          -4.289  12.692  17.310  0.00  0.00     0.091 A 
ATOM     48  N16 Y5H d          -4.176  11.329  17.464  0.00  0.00    -0.224 NA
ATOM     49  C17 Y5H d          -5.413  10.885  17.370  0.00  0.00     0.186 A 
ATOM     50  O10 Y5H d          -6.325  11.841  17.059  0.00  0.00    -0.301 OA
ATOM     51  C9  Y5H d          -5.565  13.000  17.064  0.00  0.00     0.047 A 
ATOM     52  H3  Y5H d          -5.948  14.005  16.895  0.00  0.00     0.126 H 
BRANCH  49  53
ATOM     53  C20 Y5H d          -5.864   9.502  17.328  0.00  0.00     0.059 A 
ATOM     54  C22 Y5H d          -5.681   8.585  16.299  0.00  0.00    -0.060 A 
ATOM     55  C24 Y5H d          -6.115   7.280  16.627  0.00  0.00    -0.054 A 
ATOM     56  H2  Y5H d          -5.247   8.846  15.335  0.00  0.00     0.085 H 
ATOM     57  C25 Y5H d          -6.553   7.222  17.925  0.00  0.00     0.075 A 
ATOM     58  H1  Y5H d          -6.102   6.434  15.942  0.00  0.00     0.086 H 
ATOM     59 CL1  Y5H d          -7.136   5.819  18.795  0.00  0.00    -0.076 Cl
ATOM     60  S1  Y5H d          -6.549   8.761  18.739  0.00  0.00    -0.074 SA
ENDBRANCH  49  53
ENDBRANCH   1  47
TORSDOF 9
ENDMDL
MODEL 5
REMARK VINA RESULT:      -6.2      2.426      4.006
REMARK  9 active torsions:
REMARK  status: ('A' for Active; 'I' for Inactive)
REMARK    1  A    between atoms: C20_6  and  C17_7 
REMARK    2  A    between atoms: C4_11  and  C1_12 
REMARK    3  A    between atoms: N12_24  and  C19_25 
REMARK    4  A    between atoms: C19_25  and  C21_26 
REMARK    5  A    between atoms: C21_26  and  C23_27 
REMARK    6  A    between atoms: C23_27  and  N29_28 
REMARK    7  A    between atoms: N29_28  and  C32_29 
REMARK    8  A    between atoms: N29_28  and  C31_30 
REMARK    9  A    between atoms: N29_28  and  C30_31 
ROOT
ATOM      1  C1  Y5H d          -2.381  12.516  20.646  0.00  0.00     0.160 C 
ATOM      2  N3  Y5H d          -2.629  13.904  20.176  0.00  0.00    -0.055 N 
ATOM      3  C7  Y5H d          -3.031  13.719  18.772  0.00  0.00     0.117 C 
ATOM      4  C14 Y5H d          -1.714  13.525  17.999  0.00  0.00    -0.036 C 
ATOM      5  C15 Y5H d          -0.702  14.346  18.815  0.00  0.00    -0.040 C 
ATOM      6  C8  Y5H d          -1.401  14.738  20.130  0.00  0.00     0.085 C 
ATOM      7  C5  Y5H d          -3.960  12.509  18.741  0.00  0.00     0.066 A 
ATOM      8  C2  Y5H d          -3.594  11.735  20.036  0.00  0.00     0.071 A 
ATOM      9  C6  Y5H d          -4.894  11.777  20.828  0.00  0.00     0.234 A 
ATOM     10  O13 Y5H d          -5.133  11.271  21.911  0.00  0.00    -0.272 OA
ATOM     11  C11 Y5H d          -5.399  12.929  18.898  0.00  0.00     0.233 A 
ATOM     12  O18 Y5H d          -6.124  13.539  18.112  0.00  0.00    -0.272 OA
ATOM     13  N12 Y5H d          -5.875  12.530  20.162  0.00  0.00    -0.288 N 
ATOM     14  H4  Y5H d          -1.428  12.139  20.245  0.00  0.00     0.096 H 
ATOM     15  H5  Y5H d          -3.343  14.353  20.730  0.00  0.00     0.281 HD
ATOM     16  H6  Y5H d          -3.563  14.601  18.386  0.00  0.00     0.086 H 
ATOM     17  H7  Y5H d          -1.799  13.912  16.973  0.00  0.00     0.036 H 
ATOM     18  H8  Y5H d          -1.427  12.464  17.969  0.00  0.00     0.036 H 
ATOM     19  H9  Y5H d          -0.410  15.249  18.258  0.00  0.00     0.035 H 
ATOM     20  H10 Y5H d           0.192  13.742  19.027  0.00  0.00     0.035 H 
ATOM     21  H11 Y5H d          -0.754  14.520  20.992  0.00  0.00     0.076 H 
ATOM     22  H12 Y5H d          -1.660  15.807  20.127  0.00  0.00     0.076 H 
ATOM     23  H13 Y5H d          -3.817  11.908  17.831  0.00  0.00     0.059 H 
ATOM     24  H14 Y5H d          -3.304  10.693  19.837  0.00  0.00     0.059 H 
ENDROOT
BRANCH  13  25
ATOM     25  C19 Y5H d          -7.231  12.753  20.688  0.00  0.00     0.007 C 
ATOM     26  H15 Y5H d          -7.493  11.933  21.372  0.00  0.00     0.065 H 
ATOM     27  H16 Y5H d          -7.945  12.775  19.851  0.00  0.00     0.065 H 
BRANCH  25  28
ATOM     28  C21 Y5H d          -7.300  14.086  21.446  0.00  0.00    -0.027 C 
ATOM     29  H17 Y5H d          -8.053  14.750  20.998  0.00  0.00     0.037 H 
ATOM     30  H18 Y5H d          -6.321  14.586  21.442  0.00  0.00     0.037 H 
BRANCH  28  31
ATOM     31  C23 Y5H d          -7.706  13.695  22.881  0.00  0.00     0.086 C 
ATOM     32  H19 Y5H d          -7.596  12.605  22.987  0.00  0.00     0.076 H 
ATOM     33  H20 Y5H d          -8.760  13.973  23.030  0.00  0.00     0.076 H 
BRANCH  31  34
ATOM     34  N29 Y5H d          -6.877  14.366  23.957  0.00  0.00    -0.079 N 
BRANCH  34  35
ATOM     35  C32 Y5H d          -7.778  15.051  24.945  0.00  0.00     0.067 C 
ATOM     36  H21 Y5H d          -8.816  15.008  24.585  0.00  0.00     0.068 H 
ATOM     37  H22 Y5H d          -7.471  16.102  25.054  0.00  0.00     0.068 H 
ATOM     38  H23 Y5H d          -7.706  14.545  25.919  0.00  0.00     0.068 H 
ENDBRANCH  34  35
BRANCH  34  39
ATOM     39  C31 Y5H d          -6.084  15.447  23.259  0.00  0.00     0.067 C 
ATOM     40  H24 Y5H d          -5.750  16.191  23.998  0.00  0.00     0.068 H 
ATOM     41  H25 Y5H d          -6.717  15.937  22.505  0.00  0.00     0.068 H 
ATOM     42  H26 Y5H d          -5.208  15.000  22.768  0.00  0.00     0.068 H 
ENDBRANCH  34  39
BRANCH  34  43
ATOM     43  C30 Y5H d          -5.974  13.422  24.677  0.00  0.00     0.067 C 
ATOM     44  H27 Y5H d          -6.379  12.402  24.605  0.00  0.00     0.068 H 
ATOM     45  H28 Y5H d          -5.905  13.716  25.734  0.00  0.00     0.068 H 
ATOM     46  H29 Y5H d          -4.974  13.453  24.221  0.00  0.00     0.068 H 
ENDBRANCH  34  43
ENDBRANCH  31  34
ENDBRANCH  28  31
ENDBRANCH  25  28
ENDBRANCH  13  25
BRANCH   1  47
ATOM     47  C4  Y5H d          -2.361  12.385  22.148  0.00  0.00     0.091 A 
ATOM     48  N16 Y5H d          -2.051  11.219  22.809  0.00  0.00    -0.224 NA
ATOM     49  C17 Y5H d          -2.117  11.539  24.085  0.00  0.00     0.186 A 
ATOM     50  O10 Y5H d          -2.551  12.803  24.320  0.00  0.00    -0.301 OA
ATOM     51  C9  Y5H d          -2.664  13.328  23.043  0.00  0.00     0.047 A 
ATOM     52  H3  Y5H d          -2.954  14.351  22.807  0.00  0.00     0.126 H 
BRANCH  49  53
ATOM     53  C20 Y5H d          -2.010  10.651  25.234  0.00  0.00     0.059 A 
ATOM     54  C22 Y5H d          -2.907  10.521  26.287  0.00  0.00    -0.060 A 
ATOM     55  C24 Y5H d          -2.584   9.467  27.173  0.00  0.00    -0.054 A 
ATOM     56  H2  Y5H d          -3.774  11.167  26.418  0.00  0.00     0.085 H 
ATOM     57  C25 Y5H d          -1.485   8.777  26.731  0.00  0.00     0.075 A 
ATOM     58  H1  Y5H d          -3.134   9.235  28.084  0.00  0.00     0.086 H 
ATOM     59 CL1  Y5H d          -0.742   7.370  27.461  0.00  0.00    -0.076 Cl
ATOM     60  S1  Y5H d          -0.761   9.449  25.298  0.00  0.00    -0.074 SA
ENDBRANCH  49  53
ENDBRANCH   1  47
TORSDOF 9
ENDMDL
MODEL 6
REMARK VINA RESULT:      -6.1      3.944      7.157
REMARK  9 active torsions:
REMARK  status: ('A' for Active; 'I' for Inactive)
REMARK    1  A    between atoms: C20_6  and  C17_7 
REMARK    2  A    between atoms: C4_11  and  C1_12 
REMARK    3  A    between atoms: N12_24  and  C19_25 
REMARK    4  A    between atoms: C19_25  and  C21_26 
REMARK    5  A    between atoms: C21_26  and  C23_27 
REMARK    6  A    between atoms: C23_27  and  N29_28 
REMARK    7  A    between atoms: N29_28  and  C32_29 
REMARK    8  A    between atoms: N29_28  and  C31_30 
REMARK    9  A    between atoms: N29_28  and  C30_31 
ROOT
ATOM      1  C1  Y5H d          -3.346  14.241  17.119  0.00  0.00     0.160 C 
ATOM      2  N3  Y5H d          -1.919  13.840  17.010  0.00  0.00    -0.055 N 
ATOM      3  C7  Y5H d          -1.196  15.105  17.221  0.00  0.00     0.117 C 
ATOM      4  C14 Y5H d          -1.257  15.834  15.867  0.00  0.00    -0.036 C 
ATOM      5  C15 Y5H d          -1.304  14.683  14.847  0.00  0.00    -0.040 C 
ATOM      6  C8  Y5H d          -1.538  13.388  15.648  0.00  0.00     0.085 C 
ATOM      7  C5  Y5H d          -1.910  15.831  18.356  0.00  0.00     0.066 A 
ATOM      8  C2  Y5H d          -3.329  15.202  18.355  0.00  0.00     0.071 A 
ATOM      9  C6  Y5H d          -3.404  14.544  19.726  0.00  0.00     0.234 A 
ATOM     10  O13 Y5H d          -4.342  13.945  20.224  0.00  0.00    -0.272 OA
ATOM     11  C11 Y5H d          -1.299  15.480  19.689  0.00  0.00     0.233 A 
ATOM     12  O18 Y5H d          -0.200  15.788  20.149  0.00  0.00    -0.272 OA
ATOM     13  N12 Y5H d          -2.192  14.675  20.423  0.00  0.00    -0.288 N 
ATOM     14  H4  Y5H d          -3.666  14.773  16.210  0.00  0.00     0.096 H 
ATOM     15  H5  Y5H d          -1.686  13.138  17.696  0.00  0.00     0.281 HD
ATOM     16  H6  Y5H d          -0.147  14.926  17.501  0.00  0.00     0.086 H 
ATOM     17  H7  Y5H d          -0.364  16.458  15.714  0.00  0.00     0.036 H 
ATOM     18  H8  Y5H d          -2.159  16.459  15.796  0.00  0.00     0.036 H 
ATOM     19  H9  Y5H d          -0.352  14.623  14.300  0.00  0.00     0.035 H 
ATOM     20  H10 Y5H d          -2.127  14.842  14.135  0.00  0.00     0.035 H 
ATOM     21  H11 Y5H d          -2.347  12.795  15.197  0.00  0.00     0.076 H 
ATOM     22  H12 Y5H d          -0.619  12.785  15.684  0.00  0.00     0.076 H 
ATOM     23  H13 Y5H d          -1.926  16.919  18.198  0.00  0.00     0.059 H 
ATOM     24  H14 Y5H d          -4.125  15.956  18.252  0.00  0.00     0.059 H 
ENDROOT
BRANCH  13  25
ATOM     25  C19 Y5H d          -1.961  14.133  21.772  0.00  0.00     0.007 C 
ATOM     26  H15 Y5H d          -2.922  13.813  22.202  0.00  0.00     0.065 H 
ATOM     27  H16 Y5H d          -1.518  14.915  22.405  0.00  0.00     0.065 H 
BRANCH  25  28
ATOM     28  C21 Y5H d          -1.010  12.930  21.711  0.00  0.00    -0.027 C 
ATOM     29  H17 Y5H d           0.028  13.263  21.562  0.00  0.00     0.037 H 
ATOM     30  H18 Y5H d          -1.296  12.248  20.897  0.00  0.00     0.037 H 
BRANCH  28  31
ATOM     31  C23 Y5H d          -1.168  12.241  23.080  0.00  0.00     0.086 C 
ATOM     32  H19 Y5H d          -1.840  12.853  23.700  0.00  0.00     0.076 H 
ATOM     33  H20 Y5H d          -0.179  12.186  23.557  0.00  0.00     0.076 H 
BRANCH  31  34
ATOM     34  N29 Y5H d          -1.739  10.839  22.998  0.00  0.00    -0.079 N 
BRANCH  34  35
ATOM     35  C32 Y5H d          -3.161  10.836  23.483  0.00  0.00     0.067 C 
ATOM     36  H21 Y5H d          -3.786  10.263  22.782  0.00  0.00     0.068 H 
ATOM     37  H22 Y5H d          -3.530  11.870  23.543  0.00  0.00     0.068 H 
ATOM     38  H23 Y5H d          -3.207  10.371  24.479  0.00  0.00     0.068 H 
ENDBRANCH  34  35
BRANCH  34  39
ATOM     39  C31 Y5H d          -0.938  10.005  23.972  0.00  0.00     0.067 C 
ATOM     40  H24 Y5H d           0.007   9.698  23.501  0.00  0.00     0.068 H 
ATOM     41  H25 Y5H d          -1.516   9.112  24.251  0.00  0.00     0.068 H 
ATOM     42  H26 Y5H d          -0.724  10.598  24.873  0.00  0.00     0.068 H 
ENDBRANCH  34  39
BRANCH  34  43
ATOM     43  C30 Y5H d          -1.679  10.261  21.625  0.00  0.00     0.067 C 
ATOM     44  H27 Y5H d          -0.689   9.809  21.461  0.00  0.00     0.068 H 
ATOM     45  H28 Y5H d          -1.846  11.056  20.885  0.00  0.00     0.068 H 
ATOM     46  H29 Y5H d          -2.456   9.490  21.518  0.00  0.00     0.068 H 
ENDBRANCH  34  43
ENDBRANCH  31  34
ENDBRANCH  28  31
ENDBRANCH  25  28
ENDBRANCH  13  25
BRANCH   1  47
ATOM     47  C4  Y5H d          -4.279  13.081  17.355  0.00  0.00     0.091 A 
ATOM     48  N16 Y5H d          -3.854  11.812  17.676  0.00  0.00    -0.224 NA
ATOM     49  C17 Y5H d          -4.966  11.122  17.826  0.00  0.00     0.186 A 
ATOM     50  O10 Y5H d          -6.095  11.813  17.525  0.00  0.00    -0.301 OA
ATOM     51  C9  Y5H d          -5.611  13.085  17.260  0.00  0.00     0.047 A 
ATOM     52  H3  Y5H d          -6.222  13.952  17.013  0.00  0.00     0.126 H 
BRANCH  49  53
ATOM     53  C20 Y5H d          -5.105   9.689  18.041  0.00  0.00     0.059 A 
ATOM     54  C22 Y5H d          -4.820   8.978  19.200  0.00  0.00    -0.060 A 
ATOM     55  C24 Y5H d          -5.199   7.617  19.131  0.00  0.00    -0.054 A 
ATOM     56  H2  Y5H d          -4.352   9.424  20.076  0.00  0.00     0.085 H 
ATOM     57  C25 Y5H d          -5.826   7.344  17.943  0.00  0.00     0.075 A 
ATOM     58  H1  Y5H d          -5.016   6.884  19.916  0.00  0.00     0.086 H 
ATOM     59 CL1  Y5H d          -6.513   5.820  17.422  0.00  0.00    -0.076 Cl
ATOM     60  S1  Y5H d          -5.878   8.695  16.847  0.00  0.00    -0.074 SA
ENDBRANCH  49  53
ENDBRANCH   1  47
TORSDOF 9
ENDMDL
MODEL 7
REMARK VINA RESULT:      -5.9      4.072      6.885
REMARK  9 active torsions:
REMARK  status: ('A' for Active; 'I' for Inactive)
REMARK    1  A    between atoms: C20_6  and  C17_7 
REMARK    2  A    between atoms: C4_11  and  C1_12 
REMARK    3  A    between atoms: N12_24  and  C19_25 
REMARK    4  A    between atoms: C19_25  and  C21_26 
REMARK    5  A    between atoms: C21_26  and  C23_27 
REMARK    6  A    between atoms: C23_27  and  N29_28 
REMARK    7  A    between atoms: N29_28  and  C32_29 
REMARK    8  A    between atoms: N29_28  and  C31_30 
REMARK    9  A    between atoms: N29_28  and  C30_31 
ROOT
ATOM      1  C1  Y5H d          -6.565   9.645  18.837  0.00  0.00     0.160 C 
ATOM      2  N3  Y5H d          -5.224   9.074  18.545  0.00  0.00    -0.055 N 
ATOM      3  C7  Y5H d          -5.347   8.622  17.148  0.00  0.00     0.117 C 
ATOM      4  C14 Y5H d          -6.079   7.270  17.227  0.00  0.00    -0.036 C 
ATOM      5  C15 Y5H d          -5.643   6.710  18.591  0.00  0.00    -0.040 C 
ATOM      6  C8  Y5H d          -4.921   7.852  19.331  0.00  0.00     0.085 C 
ATOM      7  C5  Y5H d          -6.117   9.709  16.405  0.00  0.00     0.066 A 
ATOM      8  C2  Y5H d          -6.873  10.458  17.535  0.00  0.00     0.071 A 
ATOM      9  C6  Y5H d          -6.287  11.860  17.457  0.00  0.00     0.234 A 
ATOM     10  O13 Y5H d          -6.585  12.840  18.120  0.00  0.00    -0.272 OA
ATOM     11  C11 Y5H d          -5.174  10.716  15.796  0.00  0.00     0.233 A 
ATOM     12  O18 Y5H d          -4.395  10.585  14.851  0.00  0.00    -0.272 OA
ATOM     13  N12 Y5H d          -5.271  11.938  16.490  0.00  0.00    -0.288 N 
ATOM     14  H4  Y5H d          -7.302   8.841  18.984  0.00  0.00     0.096 H 
ATOM     15  H5  Y5H d          -4.500   9.765  18.668  0.00  0.00     0.281 HD
ATOM     16  H6  Y5H d          -4.361   8.485  16.682  0.00  0.00     0.086 H 
ATOM     17  H7  Y5H d          -5.765   6.605  16.409  0.00  0.00     0.036 H 
ATOM     18  H8  Y5H d          -7.170   7.410  17.189  0.00  0.00     0.036 H 
ATOM     19  H9  Y5H d          -4.960   5.859  18.450  0.00  0.00     0.035 H 
ATOM     20  H10 Y5H d          -6.523   6.383  19.164  0.00  0.00     0.035 H 
ATOM     21  H11 Y5H d          -5.303   7.949  20.358  0.00  0.00     0.076 H 
ATOM     22  H12 Y5H d          -3.837   7.670  19.360  0.00  0.00     0.076 H 
ATOM     23  H13 Y5H d          -6.792   9.286  15.648  0.00  0.00     0.059 H 
ATOM     24  H14 Y5H d          -7.960  10.491  17.365  0.00  0.00     0.059 H 
ENDROOT
BRANCH  13  25
ATOM     25  C19 Y5H d          -4.515  13.165  16.195  0.00  0.00     0.007 C 
ATOM     26  H15 Y5H d          -5.126  14.040  16.463  0.00  0.00     0.065 H 
ATOM     27  H16 Y5H d          -4.281  13.196  15.120  0.00  0.00     0.065 H 
BRANCH  25  28
ATOM     28  C21 Y5H d          -3.207  13.196  16.998  0.00  0.00    -0.027 C 
ATOM     29  H17 Y5H d          -3.101  12.285  17.604  0.00  0.00     0.037 H 
ATOM     30  H18 Y5H d          -3.175  14.079  17.654  0.00  0.00     0.037 H 
BRANCH  28  31
ATOM     31  C23 Y5H d          -2.098  13.271  15.930  0.00  0.00     0.086 C 
ATOM     32  H19 Y5H d          -2.426  13.960  15.138  0.00  0.00     0.076 H 
ATOM     33  H20 Y5H d          -1.958  12.265  15.506  0.00  0.00     0.076 H 
BRANCH  31  34
ATOM     34  N29 Y5H d          -0.765  13.754  16.464  0.00  0.00    -0.079 N 
BRANCH  34  35
ATOM     35  C32 Y5H d          -0.479  15.137  15.949  0.00  0.00     0.067 C 
ATOM     36  H21 Y5H d           0.048  15.068  14.986  0.00  0.00     0.068 H 
ATOM     37  H22 Y5H d           0.151  15.675  16.674  0.00  0.00     0.068 H 
ATOM     38  H23 Y5H d          -1.426  15.679  15.811  0.00  0.00     0.068 H 
ENDBRANCH  34  35
BRANCH  34  39
ATOM     39  C31 Y5H d           0.280  12.838  15.870  0.00  0.00     0.067 C 
ATOM     40  H24 Y5H d           1.114  13.438  15.478  0.00  0.00     0.068 H 
ATOM     41  H25 Y5H d          -0.167  12.252  15.054  0.00  0.00     0.068 H 
ATOM     42  H26 Y5H d           0.653  12.156  16.648  0.00  0.00     0.068 H 
ENDBRANCH  34  39
BRANCH  34  43
ATOM     43  C30 Y5H d          -0.693  13.752  17.953  0.00  0.00     0.067 C 
ATOM     44  H27 Y5H d           0.233  13.254  18.275  0.00  0.00     0.068 H 
ATOM     45  H28 Y5H d          -1.560  13.213  18.361  0.00  0.00     0.068 H 
ATOM     46  H29 Y5H d          -0.699  14.789  18.322  0.00  0.00     0.068 H 
ENDBRANCH  34  43
ENDBRANCH  31  34
ENDBRANCH  28  31
ENDBRANCH  25  28
ENDBRANCH  13  25
BRANCH   1  47
ATOM     47  C4  Y5H d          -6.583  10.544  20.047  0.00  0.00     0.091 A 
ATOM     48  N16 Y5H d          -5.448  11.051  20.638  0.00  0.00    -0.224 NA
ATOM     49  C17 Y5H d          -5.900  11.800  21.624  0.00  0.00     0.186 A 
ATOM     50  O10 Y5H d          -7.245  11.742  21.796  0.00  0.00    -0.301 OA
ATOM     51  C9  Y5H d          -7.653  10.949  20.736  0.00  0.00     0.047 A 
ATOM     52  H3  Y5H d          -8.686  10.696  20.500  0.00  0.00     0.126 H 
BRANCH  49  53
ATOM     53  C20 Y5H d          -5.128  12.470  22.660  0.00  0.00     0.059 A 
ATOM     54  C22 Y5H d          -3.811  12.909  22.582  0.00  0.00    -0.060 A 
ATOM     55  C24 Y5H d          -3.399  13.652  23.713  0.00  0.00    -0.054 A 
ATOM     56  H2  Y5H d          -3.161  12.701  21.734  0.00  0.00     0.085 H 
ATOM     57  C25 Y5H d          -4.437  13.819  24.593  0.00  0.00     0.075 A 
ATOM     58  H1  Y5H d          -2.393  14.039  23.864  0.00  0.00     0.086 H 
ATOM     59 CL1  Y5H d          -4.426  14.704  26.103  0.00  0.00    -0.076 Cl
ATOM     60  S1  Y5H d          -5.897  12.996  24.124  0.00  0.00    -0.074 SA
ENDBRANCH  49  53
ENDBRANCH   1  47
TORSDOF 9
ENDMDL
MODEL 8
REMARK VINA RESULT:      -5.9      1.622      2.073
REMARK  9 active torsions:
REMARK  status: ('A' for Active; 'I' for Inactive)
REMARK    1  A    between atoms: C20_6  and  C17_7 
REMARK    2  A    between atoms: C4_11  and  C1_12 
REMARK    3  A    between atoms: N12_24  and  C19_25 
REMARK    4  A    between atoms: C19_25  and  C21_26 
REMARK    5  A    between atoms: C21_26  and  C23_27 
REMARK    6  A    between atoms: C23_27  and  N29_28 
REMARK    7  A    between atoms: N29_28  and  C32_29 
REMARK    8  A    between atoms: N29_28  and  C31_30 
REMARK    9  A    between atoms: N29_28  and  C30_31 
ROOT
ATOM      1  C1  Y5H d          -2.717  13.218  22.791  0.00  0.00     0.160 C 
ATOM      2  N3  Y5H d          -3.929  13.832  22.187  0.00  0.00    -0.055 N 
ATOM      3  C7  Y5H d          -3.456  14.290  20.870  0.00  0.00     0.117 C 
ATOM      4  C14 Y5H d          -2.728  15.618  21.144  0.00  0.00    -0.036 C 
ATOM      5  C15 Y5H d          -3.469  16.182  22.368  0.00  0.00    -0.040 C 
ATOM      6  C8  Y5H d          -4.382  15.057  22.894  0.00  0.00     0.085 C 
ATOM      7  C5  Y5H d          -2.559  13.185  20.322  0.00  0.00     0.066 A 
ATOM      8  C2  Y5H d          -2.122  12.406  21.591  0.00  0.00     0.071 A 
ATOM      9  C6  Y5H d          -2.711  11.022  21.353  0.00  0.00     0.234 A 
ATOM     10  O13 Y5H d          -2.612  10.030  22.054  0.00  0.00    -0.272 OA
ATOM     11  C11 Y5H d          -3.351  12.212  19.486  0.00  0.00     0.233 A 
ATOM     12  O18 Y5H d          -3.871  12.374  18.382  0.00  0.00    -0.272 OA
ATOM     13  N12 Y5H d          -3.461  10.983  20.166  0.00  0.00    -0.288 N 
ATOM     14  H4  Y5H d          -2.017  13.999  23.124  0.00  0.00     0.096 H 
ATOM     15  H5  Y5H d          -4.680  13.162  22.120  0.00  0.00     0.281 HD
ATOM     16  H6  Y5H d          -4.294  14.460  20.179  0.00  0.00     0.086 H 
ATOM     17  H7  Y5H d          -2.814  16.299  20.285  0.00  0.00     0.036 H 
ATOM     18  H8  Y5H d          -1.666  15.446  21.372  0.00  0.00     0.036 H 
ATOM     19  H9  Y5H d          -4.073  17.054  22.077  0.00  0.00     0.035 H 
ATOM     20  H10 Y5H d          -2.748  16.477  23.144  0.00  0.00     0.035 H 
ATOM     21  H11 Y5H d          -4.266  14.941  23.981  0.00  0.00     0.076 H 
ATOM     22  H12 Y5H d          -5.435  15.272  22.659  0.00  0.00     0.076 H 
ATOM     23  H13 Y5H d          -1.707  13.593  19.759  0.00  0.00     0.059 H 
ATOM     24  H14 Y5H d          -1.028  12.341  21.692  0.00  0.00     0.059 H 
ENDROOT
BRANCH  13  25
ATOM     25  C19 Y5H d          -4.156   9.781  19.677  0.00  0.00     0.007 C 
ATOM     26  H15 Y5H d          -4.068   8.982  20.427  0.00  0.00     0.065 H 
ATOM     27  H16 Y5H d          -3.691   9.453  18.735  0.00  0.00     0.065 H 
BRANCH  25  28
ATOM     28  C21 Y5H d          -5.640  10.082  19.430  0.00  0.00    -0.027 C 
ATOM     29  H17 Y5H d          -5.863  11.139  19.641  0.00  0.00     0.037 H 
ATOM     30  H18 Y5H d          -6.276   9.441  20.057  0.00  0.00     0.037 H 
BRANCH  28  31
ATOM     31  C23 Y5H d          -5.856   9.769  17.937  0.00  0.00     0.086 C 
ATOM     32  H19 Y5H d          -6.155   8.715  17.843  0.00  0.00     0.076 H 
ATOM     33  H20 Y5H d          -4.905   9.929  17.408  0.00  0.00     0.076 H 
BRANCH  31  34
ATOM     34  N29 Y5H d          -6.919  10.627  17.278  0.00  0.00    -0.079 N 
BRANCH  34  35
ATOM     35  C32 Y5H d          -7.671  11.401  18.323  0.00  0.00     0.067 C 
ATOM     36  H21 Y5H d          -7.347  12.452  18.304  0.00  0.00     0.068 H 
ATOM     37  H22 Y5H d          -7.467  10.972  19.316  0.00  0.00     0.068 H 
ATOM     38  H23 Y5H d          -8.749  11.347  18.114  0.00  0.00     0.068 H 
ENDBRANCH  34  35
BRANCH  34  39
ATOM     39  C31 Y5H d          -7.901   9.665  16.649  0.00  0.00     0.067 C 
ATOM     40  H24 Y5H d          -7.608   9.472  15.607  0.00  0.00     0.068 H 
ATOM     41  H25 Y5H d          -8.909  10.104  16.672  0.00  0.00     0.068 H 
ATOM     42  H26 Y5H d          -7.900   8.720  17.212  0.00  0.00     0.068 H 
ENDBRANCH  34  39
BRANCH  34  43
ATOM     43  C30 Y5H d          -6.367  11.567  16.262  0.00  0.00     0.067 C 
ATOM     44  H27 Y5H d          -5.580  11.061  15.683  0.00  0.00     0.068 H 
ATOM     45  H28 Y5H d          -5.941  12.446  16.768  0.00  0.00     0.068 H 
ATOM     46  H29 Y5H d          -7.171  11.888  15.583  0.00  0.00     0.068 H 
ENDBRANCH  34  43
ENDBRANCH  31  34
ENDBRANCH  28  31
ENDBRANCH  25  28
ENDBRANCH  13  25
BRANCH   1  47
ATOM     47  C4  Y5H d          -3.021  12.310  23.955  0.00  0.00     0.091 A 
ATOM     48  N16 Y5H d          -2.100  11.455  24.516  0.00  0.00    -0.224 NA
ATOM     49  C17 Y5H d          -2.751  10.879  25.508  0.00  0.00     0.186 A 
ATOM     50  O10 Y5H d          -4.065  11.212  25.578  0.00  0.00    -0.301 OA
ATOM     51  C9  Y5H d          -4.192  12.164  24.580  0.00  0.00     0.047 A 
ATOM     52  H3  Y5H d          -5.104  12.710  24.343  0.00  0.00     0.126 H 
BRANCH  49  53
ATOM     53  C20 Y5H d          -2.297   9.789  26.358  0.00  0.00     0.059 A 
ATOM     54  C22 Y5H d          -2.962   9.232  27.444  0.00  0.00    -0.060 A 
ATOM     55  C24 Y5H d          -2.317   8.089  27.971  0.00  0.00    -0.054 A 
ATOM     56  H2  Y5H d          -3.889   9.635  27.849  0.00  0.00     0.085 H 
ATOM     57  C25 Y5H d          -1.212   7.765  27.228  0.00  0.00     0.075 A 
ATOM     58  H1  Y5H d          -2.653   7.541  28.850  0.00  0.00     0.086 H 
ATOM     59 CL1  Y5H d          -0.127   6.411  27.460  0.00  0.00    -0.076 Cl
ATOM     60  S1  Y5H d          -0.872   8.890  25.945  0.00  0.00    -0.074 SA
ENDBRANCH  49  53
ENDBRANCH   1  47
TORSDOF 9
ENDMDL
MODEL 9
REMARK VINA RESULT:      -5.8      3.844      6.862
REMARK  9 active torsions:
REMARK  status: ('A' for Active; 'I' for Inactive)
REMARK    1  A    between atoms: C20_6  and  C17_7 
REMARK    2  A    between atoms: C4_11  and  C1_12 
REMARK    3  A    between atoms: N12_24  and  C19_25 
REMARK    4  A    between atoms: C19_25  and  C21_26 
REMARK    5  A    between atoms: C21_26  and  C23_27 
REMARK    6  A    between atoms: C23_27  and  N29_28 
REMARK    7  A    between atoms: N29_28  and  C32_29 
REMARK    8  A    between atoms: N29_28  and  C31_30 
REMARK    9  A    between atoms: N29_28  and  C30_31 
ROOT
ATOM      1  C1  Y5H d          -6.467   8.722  19.259  0.00  0.00     0.160 C 
ATOM      2  N3  Y5H d          -5.844   8.005  18.115  0.00  0.00    -0.055 N 
ATOM      3  C7  Y5H d          -6.999   7.630  17.282  0.00  0.00     0.117 C 
ATOM      4  C14 Y5H d          -7.587   6.376  17.952  0.00  0.00    -0.036 C 
ATOM      5  C15 Y5H d          -6.360   5.710  18.596  0.00  0.00    -0.040 C 
ATOM      6  C8  Y5H d          -5.203   6.723  18.504  0.00  0.00     0.085 C 
ATOM      7  C5  Y5H d          -7.936   8.833  17.272  0.00  0.00     0.066 A 
ATOM      8  C2  Y5H d          -7.534   9.620  18.548  0.00  0.00     0.071 A 
ATOM      9  C6  Y5H d          -7.038  10.943  17.981  0.00  0.00     0.234 A 
ATOM     10  O13 Y5H d          -6.642  11.923  18.590  0.00  0.00    -0.272 OA
ATOM     11  C11 Y5H d          -7.634   9.742  16.108  0.00  0.00     0.233 A 
ATOM     12  O18 Y5H d          -7.816   9.557  14.904  0.00  0.00    -0.272 OA
ATOM     13  N12 Y5H d          -7.053  10.937  16.577  0.00  0.00    -0.288 N 
ATOM     14  H4  Y5H d          -6.946   8.008  19.945  0.00  0.00     0.096 H 
ATOM     15  H5  Y5H d          -5.188   8.597  17.629  0.00  0.00     0.281 HD
ATOM     16  H6  Y5H d          -6.692   7.394  16.253  0.00  0.00     0.086 H 
ATOM     17  H7  Y5H d          -8.049   5.712  17.207  0.00  0.00     0.036 H 
ATOM     18  H8  Y5H d          -8.332   6.648  18.714  0.00  0.00     0.036 H 
ATOM     19  H9  Y5H d          -6.100   4.789  18.054  0.00  0.00     0.035 H 
ATOM     20  H10 Y5H d          -6.569   5.469  19.649  0.00  0.00     0.035 H 
ATOM     21  H11 Y5H d          -4.698   6.823  19.476  0.00  0.00     0.076 H 
ATOM     22  H12 Y5H d          -4.474   6.409  17.743  0.00  0.00     0.076 H 
ATOM     23  H13 Y5H d          -8.993   8.527  17.275  0.00  0.00     0.059 H 
ATOM     24  H14 Y5H d          -8.385   9.792  19.224  0.00  0.00     0.059 H 
ENDROOT
BRANCH  13  25
ATOM     25  C19 Y5H d          -6.622  12.074  15.749  0.00  0.00     0.007 C 
ATOM     26  H15 Y5H d          -6.920  13.013  16.240  0.00  0.00     0.065 H 
ATOM     27  H16 Y5H d          -7.103  12.007  14.762  0.00  0.00     0.065 H 
BRANCH  25  28
ATOM     28  C21 Y5H d          -5.097  12.060  15.570  0.00  0.00    -0.027 C 
ATOM     29  H17 Y5H d          -4.826  11.666  14.579  0.00  0.00     0.037 H 
ATOM     30  H18 Y5H d          -4.620  11.450  16.350  0.00  0.00     0.037 H 
BRANCH  28  31
ATOM     31  C23 Y5H d          -4.678  13.537  15.700  0.00  0.00     0.086 C 
ATOM     32  H19 Y5H d          -5.416  14.052  16.333  0.00  0.00     0.076 H 
ATOM     33  H20 Y5H d          -4.678  13.987  14.696  0.00  0.00     0.076 H 
BRANCH  31  34
ATOM     34  N29 Y5H d          -3.305  13.733  16.311  0.00  0.00    -0.079 N 
BRANCH  34  35
ATOM     35  C32 Y5H d          -2.297  12.884  15.588  0.00  0.00     0.067 C 
ATOM     36  H21 Y5H d          -1.304  13.030  16.038  0.00  0.00     0.068 H 
ATOM     37  H22 Y5H d          -2.266  13.176  14.528  0.00  0.00     0.068 H 
ATOM     38  H23 Y5H d          -2.584  11.825  15.670  0.00  0.00     0.068 H 
ENDBRANCH  34  35
BRANCH  34  39
ATOM     39  C31 Y5H d          -3.397  13.202  17.723  0.00  0.00     0.067 C 
ATOM     40  H24 Y5H d          -2.952  13.929  18.418  0.00  0.00     0.068 H 
ATOM     41  H25 Y5H d          -2.853  12.248  17.793  0.00  0.00     0.068 H 
ATOM     42  H26 Y5H d          -4.452  13.041  17.986  0.00  0.00     0.068 H 
ENDBRANCH  34  39
BRANCH  34  43
ATOM     43  C30 Y5H d          -2.856  15.154  16.303  0.00  0.00     0.067 C 
ATOM     44  H27 Y5H d          -3.304  15.685  17.157  0.00  0.00     0.068 H 
ATOM     45  H28 Y5H d          -3.173  15.634  15.366  0.00  0.00     0.068 H 
ATOM     46  H29 Y5H d          -1.760  15.193  16.383  0.00  0.00     0.068 H 
ENDBRANCH  34  43
ENDBRANCH  31  34
ENDBRANCH  28  31
ENDBRANCH  25  28
ENDBRANCH  13  25
BRANCH   1  47
ATOM     47  C4  Y5H d          -5.492   9.566  20.040  0.00  0.00     0.091 A 
ATOM     48  N16 Y5H d          -5.802  10.189  21.228  0.00  0.00    -0.224 NA
ATOM     49  C17 Y5H d          -4.683  10.784  21.587  0.00  0.00     0.186 A 
ATOM     50  O10 Y5H d          -3.684  10.689  20.673  0.00  0.00    -0.301 OA
ATOM     51  C9  Y5H d          -4.234   9.865  19.705  0.00  0.00     0.047 A 
ATOM     52  H3  Y5H d          -3.722   9.515  18.810  0.00  0.00     0.126 H 
BRANCH  49  53
ATOM     53  C20 Y5H d          -4.476  11.697  22.701  0.00  0.00     0.059 A 
ATOM     54  C22 Y5H d          -3.363  11.779  23.531  0.00  0.00    -0.060 A 
ATOM     55  C24 Y5H d          -3.412  12.869  24.430  0.00  0.00    -0.054 A 
ATOM     56  H2  Y5H d          -2.536  11.072  23.493  0.00  0.00     0.085 H 
ATOM     57  C25 Y5H d          -4.531  13.632  24.213  0.00  0.00     0.075 A 
ATOM     58  H1  Y5H d          -2.663  13.076  25.192  0.00  0.00     0.086 H 
ATOM     59 CL1  Y5H d          -4.999  15.103  25.038  0.00  0.00    -0.076 Cl
ATOM     60  S1  Y5H d          -5.595  12.990  22.994  0.00  0.00    -0.074 SA
ENDBRANCH  49  53
ENDBRANCH   1  47
TORSDOF 9
ENDMDL
MODEL 10
REMARK VINA RESULT:      -5.8      3.616      6.461
REMARK  9 active torsions:
REMARK  status: ('A' for Active; 'I' for Inactive)
REMARK    1  A    between atoms: C20_6  and  C17_7 
REMARK    2  A    between atoms: C4_11  and  C1_12 
REMARK    3  A    between atoms: N12_24  and  C19_25 
REMARK    4  A    between atoms: C19_25  and  C21_26 
REMARK    5  A    between atoms: C21_26  and  C23_27 
REMARK    6  A    between atoms: C23_27  and  N29_28 
REMARK    7  A    between atoms: N29_28  and  C32_29 
REMARK    8  A    between atoms: N29_28  and  C31_30 
REMARK    9  A    between atoms: N29_28  and  C30_31 
ROOT
ATOM      1  C1  Y5H d          -6.373  10.419  19.293  0.00  0.00     0.160 C 
ATOM      2  N3  Y5H d          -5.052   9.755  19.130  0.00  0.00    -0.055 N 
ATOM      3  C7  Y5H d          -4.962   9.536  17.677  0.00  0.00     0.117 C 
ATOM      4  C14 Y5H d          -5.804   8.277  17.407  0.00  0.00    -0.036 C 
ATOM      5  C15 Y5H d          -5.665   7.472  18.710  0.00  0.00    -0.040 C 
ATOM      6  C8  Y5H d          -4.995   8.402  19.739  0.00  0.00     0.085 C 
ATOM      7  C5  Y5H d          -5.495  10.801  17.012  0.00  0.00     0.066 A 
ATOM      8  C2  Y5H d          -6.377  11.448  18.113  0.00  0.00     0.071 A 
ATOM      9  C6  Y5H d          -5.673  12.774  18.368  0.00  0.00     0.234 A 
ATOM     10  O13 Y5H d          -6.003  13.668  19.129  0.00  0.00    -0.272 OA
ATOM     11  C11 Y5H d          -4.380  11.779  16.741  0.00  0.00     0.233 A 
ATOM     12  O18 Y5H d          -3.459  11.708  15.927  0.00  0.00    -0.272 OA
ATOM     13  N12 Y5H d          -4.499  12.885  17.606  0.00  0.00    -0.288 N 
ATOM     14  H4  Y5H d          -7.187   9.687  19.181  0.00  0.00     0.096 H 
ATOM     15  H5  Y5H d          -4.308  10.337  19.484  0.00  0.00     0.281 HD
ATOM     16  H6  Y5H d          -3.923   9.365  17.361  0.00  0.00     0.086 H 
ATOM     17  H7  Y5H d          -5.406   7.712  16.552  0.00  0.00     0.036 H 
ATOM     18  H8  Y5H d          -6.855   8.539  17.217  0.00  0.00     0.036 H 
ATOM     19  H9  Y5H d          -5.040   6.583  18.541  0.00  0.00     0.035 H 
ATOM     20  H10 Y5H d          -6.656   7.160  19.070  0.00  0.00     0.035 H 
ATOM     21  H11 Y5H d          -5.544   8.384  20.692  0.00  0.00     0.076 H 
ATOM     22  H12 Y5H d          -3.952   8.101  19.912  0.00  0.00     0.076 H 
ATOM     23  H13 Y5H d          -6.057  10.574  16.095  0.00  0.00     0.059 H 
ATOM     24  H14 Y5H d          -7.410  11.625  17.777  0.00  0.00     0.059 H 
ENDROOT
BRANCH  13  25
ATOM     25  C19 Y5H d          -3.604  14.053  17.647  0.00  0.00     0.007 C 
ATOM     26  H15 Y5H d          -4.152  14.914  18.059  0.00  0.00     0.065 H 
ATOM     27  H16 Y5H d          -3.267  14.286  16.627  0.00  0.00     0.065 H 
BRANCH  25  28
ATOM     28  C21 Y5H d          -2.382  13.762  18.530  0.00  0.00    -0.027 C 
ATOM     29  H17 Y5H d          -1.453  14.043  18.013  0.00  0.00     0.037 H 
ATOM     30  H18 Y5H d          -2.343  12.697  18.801  0.00  0.00     0.037 H 
BRANCH  28  31
ATOM     31  C23 Y5H d          -2.592  14.636  19.782  0.00  0.00     0.086 C 
ATOM     32  H19 Y5H d          -3.670  14.681  19.996  0.00  0.00     0.076 H 
ATOM     33  H20 Y5H d          -2.218  15.647  19.566  0.00  0.00     0.076 H 
BRANCH  31  34
ATOM     34  N29 Y5H d          -1.882  14.117  21.017  0.00  0.00    -0.079 N 
BRANCH  34  35
ATOM     35  C32 Y5H d          -2.034  12.625  21.106  0.00  0.00     0.067 C 
ATOM     36  H21 Y5H d          -1.065  12.172  21.362  0.00  0.00     0.068 H 
ATOM     37  H22 Y5H d          -2.378  12.233  20.137  0.00  0.00     0.068 H 
ATOM     38  H23 Y5H d          -2.771  12.378  21.884  0.00  0.00     0.068 H 
ENDBRANCH  34  35
BRANCH  34  39
ATOM     39  C31 Y5H d          -2.615  14.707  22.199  0.00  0.00     0.067 C 
ATOM     40  H24 Y5H d          -1.960  14.691  23.082  0.00  0.00     0.068 H 
ATOM     41  H25 Y5H d          -3.520  14.115  22.402  0.00  0.00     0.068 H 
ATOM     42  H26 Y5H d          -2.900  15.745  21.973  0.00  0.00     0.068 H 
ENDBRANCH  34  39
BRANCH  34  43
ATOM     43  C30 Y5H d          -0.435  14.474  21.054  0.00  0.00     0.067 C 
ATOM     44  H27 Y5H d          -0.045  14.534  20.027  0.00  0.00     0.068 H 
ATOM     45  H28 Y5H d           0.118  13.704  21.611  0.00  0.00     0.068 H 
ATOM     46  H29 Y5H d          -0.309  15.447  21.551  0.00  0.00     0.068 H 
ENDBRANCH  34  43
ENDBRANCH  31  34
ENDBRANCH  28  31
ENDBRANCH  25  28
ENDBRANCH  13  25
BRANCH   1  47
ATOM     47  C4  Y5H d          -6.532  11.121  20.617  0.00  0.00     0.091 A 
ATOM     48  N16 Y5H d          -5.475  11.471  21.428  0.00  0.00    -0.224 NA
ATOM     49  C17 Y5H d          -6.037  12.082  22.451  0.00  0.00     0.186 A 
ATOM     50  O10 Y5H d          -7.394  12.069  22.431  0.00  0.00    -0.301 OA
ATOM     51  C9  Y5H d          -7.674  11.471  21.213  0.00  0.00     0.047 A 
ATOM     52  H3  Y5H d          -8.671  11.311  20.805  0.00  0.00     0.126 H 
BRANCH  49  53
ATOM     53  C20 Y5H d          -5.397  12.543  23.674  0.00  0.00     0.059 A 
ATOM     54  C22 Y5H d          -4.211  12.081  24.234  0.00  0.00    -0.060 A 
ATOM     55  C24 Y5H d          -3.786  12.837  25.351  0.00  0.00    -0.054 A 
ATOM     56  H2  Y5H d          -3.664  11.222  23.850  0.00  0.00     0.085 H 
ATOM     57  C25 Y5H d          -4.624  13.899  25.571  0.00  0.00     0.075 A 
ATOM     58  H1  Y5H d          -2.910  12.606  25.955  0.00  0.00     0.086 H 
ATOM     59 CL1  Y5H d          -4.481  15.137  26.800  0.00  0.00    -0.076 Cl
ATOM     60  S1  Y5H d          -5.997  13.946  24.502  0.00  0.00    -0.074 SA
ENDBRANCH  49  53
ENDBRANCH   1  47
TORSDOF 9
ENDMDL
