MODEL 1
REMARK VINA RESULT:      -8.6      0.000      0.000
REMARK  29 active torsions:
REMARK  status: ('A' for Active; 'I' for Inactive)
REMARK    1  A    between atoms: CR1_1  and  OR1_7 
REMARK    2  A    between atoms: CR2_2  and  OR2_8 
REMARK    3  A    between atoms: CR3_3  and  OR3_9 
REMARK    4  A    between atoms: OR4_10  and  CR4_4 
REMARK    5  A    between atoms: CR5_5  and  CR6_6 
REMARK    6  A    between atoms: CR6_6  and  OR6_12 
REMARK    7  A    between atoms: CV1_13  and  OR4_10 
REMARK    8  A    between atoms: CV2_14  and  OV2_19 
REMARK    9  A    between atoms: CV3_15  and  OV3_20 
REMARK   10  A    between atoms: NV4_21  and  CV4_16 
REMARK   11  A    between atoms: CV5_17  and  CV6_18 
REMARK   12  A    between atoms: CY1_45  and  NV4_21 
REMARK   13  A    between atoms: OY4_51  and  CQ1_23 
REMARK   14  A    between atoms: CQ2_24  and  OQ2_29 
REMARK   15  A    between atoms: CQ3_25  and  OQ3_30 
REMARK   16  A    between atoms: CQ4_26  and  OQ4_31 
REMARK   17  A    between atoms: CQ5_27  and  CQ6_28 
REMARK   18  A    between atoms: CQ6_28  and  OQ6_33 
REMARK   19  A    between atoms: OQ4_31  and  CW1_34 
REMARK   20  A    between atoms: CW2_35  and  OW2_40 
REMARK   21  A    between atoms: CW3_36  and  OW3_41 
REMARK   22  A    between atoms: CW4_37  and  OW4_42 
REMARK   23  A    between atoms: CW5_38  and  CW6_39 
REMARK   24  A    between atoms: CW6_39  and  OW6_44 
REMARK   25  A    between atoms: CY2_46  and  OY2_47 
REMARK   26  A    between atoms: CY3_48  and  OY3_49 
REMARK   27  A    between atoms: CY4_50  and  OY4_51 
REMARK   28  A    between atoms: CY5_52  and  CY7_54 
REMARK   29  A    between atoms: CY7_54  and  OY7_55 
ROOT
ATOM      1  CY1 MOL d          10.206  17.495  44.959  0.00  0.00     0.130 C 
ATOM      2  CY2 MOL d          11.182  18.730  44.837  0.00  0.00     0.090 C 
ATOM      3  CY3 MOL d          11.784  18.797  43.363  0.00  0.00     0.087 C 
ATOM      4  CY4 MOL d          12.541  17.431  42.973  0.00  0.00     0.074 C 
ATOM      5  CY5 MOL d          11.792  16.186  43.449  0.00  0.00    -0.004 C 
ATOM      6  CY6 MOL d          11.142  16.276  44.629  0.00  0.00    -0.028 C 
ATOM      7  H45 MOL d           9.830  17.392  45.988  0.00  0.00     0.088 H 
ATOM      8  H46 MOL d          12.008  18.596  45.552  0.00  0.00     0.090 H 
ATOM      9  H48 MOL d          10.947  18.935  42.663  0.00  0.00     0.091 H 
ATOM     10  H50 MOL d          13.554  17.447  43.400  0.00  0.00     0.088 H 
ATOM     11  H51 MOL d          11.009  16.022  42.693  0.00  0.00     0.047 H 
ATOM     12  H52 MOL d          10.517  15.374  44.710  0.00  0.00     0.036 H 
ATOM     13  H53 MOL d          11.916  16.257  45.412  0.00  0.00     0.036 H 
ENDROOT
BRANCH   1  14
ATOM     14  NV4 MOL d           9.002  17.727  44.032  0.00  0.00    -0.059 N 
ATOM     15  H22 MOL d           8.248  18.053  44.616  0.00  0.00     0.278 HD
ATOM     16  H23 MOL d           9.270  18.456  43.390  0.00  0.00     0.278 HD
BRANCH  14  17
ATOM     17  CV4 MOL d           8.456  16.623  43.213  0.00  0.00     0.153 C 
ATOM     18  CV3 MOL d           7.169  16.073  43.868  0.00  0.00     0.094 C 
ATOM     19  CV2 MOL d           6.627  14.933  43.011  0.00  0.00     0.110 C 
ATOM     20  H14 MOL d           6.421  16.877  43.943  0.00  0.00     0.090 H 
ATOM     21  CV1 MOL d           6.333  15.377  41.583  0.00  0.00     0.159 C 
ATOM     22  H13 MOL d           7.397  14.147  42.977  0.00  0.00     0.094 H 
ATOM     23  OV5 MOL d           7.516  16.003  41.015  0.00  0.00    -0.351 OA
ATOM     24  H12 MOL d           6.101  14.475  40.997  0.00  0.00     0.133 H 
ATOM     25  CV5 MOL d           8.061  17.138  41.784  0.00  0.00     0.068 C 
ATOM     26  H16 MOL d           7.295  17.923  41.875  0.00  0.00     0.086 H 
ATOM     27  H15 MOL d           9.208  15.824  43.129  0.00  0.00     0.092 H 
BRANCH  18  28
ATOM     28  OV3 MOL d           7.447  15.563  45.151  0.00  0.00    -0.391 OA
ATOM     29  H21 MOL d           6.832  15.929  45.776  0.00  0.00     0.210 HD
ENDBRANCH  18  28
BRANCH  19  30
ATOM     30  OV2 MOL d           5.452  14.378  43.558  0.00  0.00    -0.388 OA
ATOM     31  H20 MOL d           5.653  13.536  43.950  0.00  0.00     0.210 HD
ENDBRANCH  19  30
BRANCH  21  32
ATOM     32  OR4 MOL d           5.252  16.242  41.464  0.00  0.00    -0.348 OA
BRANCH  32  33
ATOM     33  CR4 MOL d           4.396  15.977  40.354  0.00  0.00     0.096 C 
ATOM     34  CR3 MOL d           5.257  15.915  39.067  0.00  0.00     0.092 C 
ATOM     35  CR2 MOL d           4.337  15.621  37.875  0.00  0.00     0.110 C 
ATOM     36  H3  MOL d           6.016  15.125  39.165  0.00  0.00     0.091 H 
ATOM     37  CR1 MOL d           3.614  14.264  38.093  0.00  0.00     0.156 C 
ATOM     38  H2  MOL d           3.592  16.425  37.789  0.00  0.00     0.094 H 
ATOM     39  OR5 MOL d           2.846  14.303  39.362  0.00  0.00    -0.349 OA
ATOM     40  H1  MOL d           2.911  14.112  37.260  0.00  0.00     0.133 H 
ATOM     41  CR5 MOL d           3.667  14.567  40.550  0.00  0.00     0.089 C 
ATOM     42  H5  MOL d           4.431  13.781  40.651  0.00  0.00     0.090 H 
ATOM     43  H4  MOL d           3.644  16.775  40.266  0.00  0.00     0.091 H 
BRANCH  34  44
ATOM     44  OR3 MOL d           5.883  17.157  38.839  0.00  0.00    -0.390 OA
ATOM     45  H10 MOL d           5.736  17.425  37.940  0.00  0.00     0.210 HD
ENDBRANCH  34  44
BRANCH  35  46
ATOM     46  OR2 MOL d           5.083  15.547  36.681  0.00  0.00    -0.388 OA
ATOM     47  H9  MOL d           5.068  16.392  36.245  0.00  0.00     0.210 HD
ENDBRANCH  35  46
BRANCH  37  48
ATOM     48  OR1 MOL d           4.520  13.173  38.113  0.00  0.00    -0.369 OA
ATOM     49  H8  MOL d           5.398  13.490  37.935  0.00  0.00     0.212 HD
ENDBRANCH  37  48
BRANCH  41  50
ATOM     50  CR6 MOL d           2.834  14.552  41.718  0.00  0.00     0.043 C 
ATOM     51  H6  MOL d           3.461  14.336  42.596  0.00  0.00     0.078 H 
ATOM     52  H7  MOL d           2.079  13.761  41.603  0.00  0.00     0.078 H 
BRANCH  50  53
ATOM     53  OR6 MOL d           2.166  15.791  41.928  0.00  0.00    -0.398 OA
ATOM     54  H11 MOL d           1.520  15.921  41.245  0.00  0.00     0.209 HD
ENDBRANCH  50  53
ENDBRANCH  41  50
ENDBRANCH  32  33
ENDBRANCH  21  32
BRANCH  25  55
ATOM     55  CV6 MOL d           9.278  17.709  41.072  0.00  0.00    -0.050 C 
ATOM     56  H17 MOL d           9.449  18.742  41.409  0.00  0.00     0.031 H 
ATOM     57  H18 MOL d           9.104  17.702  39.985  0.00  0.00     0.031 H 
ATOM     58  H19 MOL d          10.160  17.096  41.305  0.00  0.00     0.031 H 
ENDBRANCH  25  55
ENDBRANCH  14  17
ENDBRANCH   1  14
BRANCH   2  59
ATOM     59  OY2 MOL d          10.529  19.921  45.135  0.00  0.00    -0.391 OA
ATOM     60  H47 MOL d          10.899  20.623  44.612  0.00  0.00     0.210 HD
ENDBRANCH   2  59
BRANCH   3  61
ATOM     61  OY3 MOL d          12.653  19.889  43.225  0.00  0.00    -0.390 OA
ATOM     62  H49 MOL d          12.614  20.424  44.009  0.00  0.00     0.210 HD
ENDBRANCH   3  61
BRANCH   5  63
ATOM     63  CY7 MOL d          12.674  14.909  43.450  0.00  0.00     0.022 C 
ATOM     64  H54 MOL d          12.547  14.378  42.496  0.00  0.00     0.074 H 
ATOM     65  H55 MOL d          12.364  14.253  44.278  0.00  0.00     0.074 H 
BRANCH  63  66
ATOM     66  OY7 MOL d          14.067  15.261  43.618  0.00  0.00    -0.400 OA
ATOM     67  H56 MOL d          14.422  14.798  44.369  0.00  0.00     0.209 HD
ENDBRANCH  63  66
ENDBRANCH   5  63
BRANCH   4  68
ATOM     68  OY4 MOL d          12.595  17.305  41.556  0.00  0.00    -0.350 OA
BRANCH  68  69
ATOM     69  CQ1 MOL d          13.773  17.791  40.953  0.00  0.00     0.159 C 
ATOM     70  CQ2 MOL d          13.494  18.143  39.475  0.00  0.00     0.110 C 
ATOM     71  CQ3 MOL d          13.356  16.877  38.576  0.00  0.00     0.092 C 
ATOM     72  H25 MOL d          14.327  18.755  39.098  0.00  0.00     0.094 H 
ATOM     73  CQ4 MOL d          14.634  16.043  38.685  0.00  0.00     0.096 C 
ATOM     74  H26 MOL d          12.498  16.272  38.905  0.00  0.00     0.091 H 
ATOM     75  CQ5 MOL d          14.727  15.612  40.211  0.00  0.00     0.089 C 
ATOM     76  H27 MOL d          15.514  16.634  38.390  0.00  0.00     0.091 H 
ATOM     77  OQ5 MOL d          14.817  16.789  41.051  0.00  0.00    -0.348 OA
ATOM     78  H28 MOL d          13.818  15.047  40.465  0.00  0.00     0.090 H 
ATOM     79  H24 MOL d          14.099  18.699  41.481  0.00  0.00     0.133 H 
BRANCH  70  80
ATOM     80  OQ2 MOL d          12.292  18.887  39.391  0.00  0.00    -0.388 OA
ATOM     81  H31 MOL d          11.572  18.300  39.192  0.00  0.00     0.210 HD
ENDBRANCH  70  80
BRANCH  71  82
ATOM     82  OQ3 MOL d          13.140  17.328  37.238  0.00  0.00    -0.390 OA
ATOM     83  H32 MOL d          12.336  16.950  36.903  0.00  0.00     0.210 HD
ENDBRANCH  71  82
BRANCH  73  84
ATOM     84  OQ4 MOL d          14.532  14.904  37.878  0.00  0.00    -0.348 OA
BRANCH  84  85
ATOM     85  CW1 MOL d          15.052  15.158  36.564  0.00  0.00     0.159 C 
ATOM     86  CW2 MOL d          14.280  14.403  35.455  0.00  0.00     0.110 C 
ATOM     87  CW3 MOL d          14.464  12.877  35.665  0.00  0.00     0.092 C 
ATOM     88  H35 MOL d          14.674  14.684  34.467  0.00  0.00     0.094 H 
ATOM     89  CW4 MOL d          15.969  12.574  35.553  0.00  0.00     0.090 C 
ATOM     90  H36 MOL d          14.085  12.576  36.653  0.00  0.00     0.091 H 
ATOM     91  CW5 MOL d          16.728  13.364  36.688  0.00  0.00     0.089 C 
ATOM     92  H37 MOL d          16.340  12.885  34.566  0.00  0.00     0.091 H 
ATOM     93  OW5 MOL d          16.475  14.785  36.508  0.00  0.00    -0.348 OA
ATOM     94  H38 MOL d          16.357  13.041  37.671  0.00  0.00     0.090 H 
ATOM     95  H34 MOL d          14.963  16.237  36.367  0.00  0.00     0.133 H 
BRANCH  86  96
ATOM     96  OW2 MOL d          12.925  14.774  35.541  0.00  0.00    -0.388 OA
ATOM     97  H41 MOL d          12.832  15.493  36.155  0.00  0.00     0.210 HD
ENDBRANCH  86  96
BRANCH  87  98
ATOM     98  OW3 MOL d          13.772  12.188  34.651  0.00  0.00    -0.390 OA
ATOM     99  H42 MOL d          13.088  11.656  35.040  0.00  0.00     0.210 HD
ENDBRANCH  87  98
BRANCH  89 100
ATOM    100  OW4 MOL d          16.183  11.183  35.729  0.00  0.00    -0.390 OA
ATOM    101  H43 MOL d          16.812  11.047  36.428  0.00  0.00     0.210 HD
ENDBRANCH  89 100
BRANCH  91 102
ATOM    102  CW6 MOL d          18.248  13.113  36.607  0.00  0.00     0.043 C 
ATOM    103  H39 MOL d          18.772  13.939  37.109  0.00  0.00     0.078 H 
ATOM    104  H40 MOL d          18.547  13.077  35.549  0.00  0.00     0.078 H 
BRANCH 102 105
ATOM    105  OW6 MOL d          18.609  11.906  37.221  0.00  0.00    -0.398 OA
ATOM    106  H44 MOL d          18.798  12.063  38.139  0.00  0.00     0.209 HD
ENDBRANCH 102 105
ENDBRANCH  91 102
ENDBRANCH  84  85
ENDBRANCH  73  84
BRANCH  75 107
ATOM    107  CQ6 MOL d          15.945  14.752  40.529  0.00  0.00     0.043 C 
ATOM    108  H29 MOL d          16.771  15.035  39.859  0.00  0.00     0.078 H 
ATOM    109  H30 MOL d          15.691  13.694  40.371  0.00  0.00     0.078 H 
BRANCH 107 110
ATOM    110  OQ6 MOL d          16.352  14.935  41.866  0.00  0.00    -0.398 OA
ATOM    111  H33 MOL d          16.623  15.837  41.993  0.00  0.00     0.209 HD
ENDBRANCH 107 110
ENDBRANCH  75 107
ENDBRANCH  68  69
ENDBRANCH   4  68
TORSDOF 29
ENDMDL
MODEL 2
REMARK VINA RESULT:      -6.5      1.642      2.446
REMARK  29 active torsions:
REMARK  status: ('A' for Active; 'I' for Inactive)
REMARK    1  A    between atoms: CR1_1  and  OR1_7 
REMARK    2  A    between atoms: CR2_2  and  OR2_8 
REMARK    3  A    between atoms: CR3_3  and  OR3_9 
REMARK    4  A    between atoms: OR4_10  and  CR4_4 
REMARK    5  A    between atoms: CR5_5  and  CR6_6 
REMARK    6  A    between atoms: CR6_6  and  OR6_12 
REMARK    7  A    between atoms: CV1_13  and  OR4_10 
REMARK    8  A    between atoms: CV2_14  and  OV2_19 
REMARK    9  A    between atoms: CV3_15  and  OV3_20 
REMARK   10  A    between atoms: NV4_21  and  CV4_16 
REMARK   11  A    between atoms: CV5_17  and  CV6_18 
REMARK   12  A    between atoms: CY1_45  and  NV4_21 
REMARK   13  A    between atoms: OY4_51  and  CQ1_23 
REMARK   14  A    between atoms: CQ2_24  and  OQ2_29 
REMARK   15  A    between atoms: CQ3_25  and  OQ3_30 
REMARK   16  A    between atoms: CQ4_26  and  OQ4_31 
REMARK   17  A    between atoms: CQ5_27  and  CQ6_28 
REMARK   18  A    between atoms: CQ6_28  and  OQ6_33 
REMARK   19  A    between atoms: OQ4_31  and  CW1_34 
REMARK   20  A    between atoms: CW2_35  and  OW2_40 
REMARK   21  A    between atoms: CW3_36  and  OW3_41 
REMARK   22  A    between atoms: CW4_37  and  OW4_42 
REMARK   23  A    between atoms: CW5_38  and  CW6_39 
REMARK   24  A    between atoms: CW6_39  and  OW6_44 
REMARK   25  A    between atoms: CY2_46  and  OY2_47 
REMARK   26  A    between atoms: CY3_48  and  OY3_49 
REMARK   27  A    between atoms: CY4_50  and  OY4_51 
REMARK   28  A    between atoms: CY5_52  and  CY7_54 
REMARK   29  A    between atoms: CY7_54  and  OY7_55 
ROOT
ATOM      1  CY1 MOL d           8.598  16.285  43.996  0.00  0.00     0.130 C 
ATOM      2  CY2 MOL d           8.888  17.673  43.302  0.00  0.00     0.090 C 
ATOM      3  CY3 MOL d           9.866  17.461  42.062  0.00  0.00     0.087 C 
ATOM      4  CY4 MOL d          11.238  16.749  42.508  0.00  0.00     0.074 C 
ATOM      5  CY5 MOL d          11.016  15.625  43.521  0.00  0.00    -0.004 C 
ATOM      6  CY6 MOL d          10.030  15.803  44.427  0.00  0.00    -0.028 C 
ATOM      7  H45 MOL d           7.977  16.417  44.894  0.00  0.00     0.088 H 
ATOM      8  H46 MOL d           9.379  18.334  44.033  0.00  0.00     0.090 H 
ATOM      9  H48 MOL d           9.358  16.803  41.341  0.00  0.00     0.091 H 
ATOM     10  H50 MOL d          11.917  17.505  42.928  0.00  0.00     0.088 H 
ATOM     11  H51 MOL d          10.709  14.758  42.918  0.00  0.00     0.047 H 
ATOM     12  H52 MOL d           9.894  14.836  44.932  0.00  0.00     0.036 H 
ATOM     13  H53 MOL d          10.403  16.544  45.150  0.00  0.00     0.036 H 
ENDROOT
BRANCH   1  14
ATOM     14  NV4 MOL d           7.825  15.395  43.009  0.00  0.00    -0.059 N 
ATOM     15  H22 MOL d           8.445  15.218  42.234  0.00  0.00     0.278 HD
ATOM     16  H23 MOL d           7.633  14.531  43.490  0.00  0.00     0.278 HD
BRANCH  14  17
ATOM     17  CV4 MOL d           6.542  15.849  42.427  0.00  0.00     0.153 C 
ATOM     18  CV3 MOL d           6.667  15.935  40.889  0.00  0.00     0.094 C 
ATOM     19  CV2 MOL d           5.336  16.411  40.313  0.00  0.00     0.110 C 
ATOM     20  H14 MOL d           6.922  14.945  40.484  0.00  0.00     0.090 H 
ATOM     21  CV1 MOL d           4.184  15.486  40.689  0.00  0.00     0.159 C 
ATOM     22  H13 MOL d           5.130  17.408  40.730  0.00  0.00     0.094 H 
ATOM     23  OV5 MOL d           4.150  15.314  42.131  0.00  0.00    -0.351 OA
ATOM     24  H12 MOL d           3.251  15.976  40.374  0.00  0.00     0.133 H 
ATOM     25  CV5 MOL d           5.399  14.819  42.739  0.00  0.00     0.068 C 
ATOM     26  H16 MOL d           5.658  13.842  42.305  0.00  0.00     0.086 H 
ATOM     27  H15 MOL d           6.282  16.835  42.841  0.00  0.00     0.092 H 
BRANCH  18  28
ATOM     28  OV3 MOL d           7.659  16.866  40.526  0.00  0.00    -0.391 OA
ATOM     29  H21 MOL d           7.829  17.448  41.258  0.00  0.00     0.210 HD
ENDBRANCH  18  28
BRANCH  19  30
ATOM     30  OV2 MOL d           5.382  16.520  38.908  0.00  0.00    -0.388 OA
ATOM     31  H20 MOL d           4.673  16.014  38.529  0.00  0.00     0.210 HD
ENDBRANCH  19  30
BRANCH  21  32
ATOM     32  OR4 MOL d           4.229  14.240  40.077  0.00  0.00    -0.348 OA
BRANCH  32  33
ATOM     33  CR4 MOL d           3.653  14.194  38.772  0.00  0.00     0.096 C 
ATOM     34  CR3 MOL d           4.594  13.388  37.841  0.00  0.00     0.092 C 
ATOM     35  CR2 MOL d           3.969  13.332  36.442  0.00  0.00     0.110 C 
ATOM     36  H3  MOL d           4.729  12.371  38.239  0.00  0.00     0.091 H 
ATOM     37  CR1 MOL d           2.580  12.641  36.515  0.00  0.00     0.156 C 
ATOM     38  H2  MOL d           3.851  14.356  36.059  0.00  0.00     0.094 H 
ATOM     39  OR5 MOL d           1.704  13.375  37.461  0.00  0.00    -0.349 OA
ATOM     40  H1  MOL d           2.125  12.676  35.513  0.00  0.00     0.133 H 
ATOM     41  CR5 MOL d           2.234  13.457  38.827  0.00  0.00     0.089 C 
ATOM     42  H5  MOL d           2.374  12.442  39.228  0.00  0.00     0.090 H 
ATOM     43  H4  MOL d           3.526  15.216  38.386  0.00  0.00     0.091 H 
BRANCH  34  44
ATOM     44  OR3 MOL d           5.843  14.032  37.736  0.00  0.00    -0.390 OA
ATOM     45  H10 MOL d           5.766  14.924  38.054  0.00  0.00     0.210 HD
ENDBRANCH  34  44
BRANCH  35  46
ATOM     46  OR2 MOL d           4.791  12.597  35.562  0.00  0.00    -0.388 OA
ATOM     47  H9  MOL d           4.285  11.897  35.167  0.00  0.00     0.210 HD
ENDBRANCH  35  46
BRANCH  37  48
ATOM     48  OR1 MOL d           2.680  11.282  36.908  0.00  0.00    -0.369 OA
ATOM     49  H8  MOL d           2.188  11.150  37.710  0.00  0.00     0.212 HD
ENDBRANCH  37  48
BRANCH  41  50
ATOM     50  CR6 MOL d           1.299  14.157  39.660  0.00  0.00     0.043 C 
ATOM     51  H6  MOL d           0.280  13.947  39.301  0.00  0.00     0.078 H 
ATOM     52  H7  MOL d           1.499  15.236  39.586  0.00  0.00     0.078 H 
BRANCH  50  53
ATOM     53  OR6 MOL d           1.388  13.770  41.027  0.00  0.00    -0.398 OA
ATOM     54  H11 MOL d           0.516  13.718  41.398  0.00  0.00     0.209 HD
ENDBRANCH  50  53
ENDBRANCH  41  50
ENDBRANCH  32  33
ENDBRANCH  21  32
BRANCH  25  55
ATOM     55  CV6 MOL d           5.219  14.667  44.242  0.00  0.00    -0.050 C 
ATOM     56  H17 MOL d           4.184  14.921  44.515  0.00  0.00     0.031 H 
ATOM     57  H18 MOL d           5.912  15.342  44.765  0.00  0.00     0.031 H 
ATOM     58  H19 MOL d           5.431  13.628  44.534  0.00  0.00     0.031 H 
ENDBRANCH  25  55
ENDBRANCH  14  17
ENDBRANCH   1  14
BRANCH   2  59
ATOM     59  OY2 MOL d           7.712  18.281  42.878  0.00  0.00    -0.391 OA
ATOM     60  H47 MOL d           6.992  17.668  42.962  0.00  0.00     0.210 HD
ENDBRANCH   2  59
BRANCH   3  61
ATOM     61  OY3 MOL d          10.138  18.680  41.423  0.00  0.00    -0.390 OA
ATOM     62  H49 MOL d           9.340  19.017  41.034  0.00  0.00     0.210 HD
ENDBRANCH   3  61
BRANCH   5  63
ATOM     63  CY7 MOL d          12.316  15.206  44.260  0.00  0.00     0.022 C 
ATOM     64  H54 MOL d          13.009  14.745  43.541  0.00  0.00     0.074 H 
ATOM     65  H55 MOL d          12.068  14.479  45.048  0.00  0.00     0.074 H 
BRANCH  63  66
ATOM     66  OY7 MOL d          12.948  16.361  44.859  0.00  0.00    -0.400 OA
ATOM     67  H56 MOL d          12.331  17.084  44.880  0.00  0.00     0.209 HD
ENDBRANCH  63  66
ENDBRANCH   5  63
BRANCH   4  68
ATOM     68  OY4 MOL d          11.832  16.112  41.382  0.00  0.00    -0.350 OA
BRANCH  68  69
ATOM     69  CQ1 MOL d          12.720  16.913  40.637  0.00  0.00     0.159 C 
ATOM     70  CQ2 MOL d          12.266  16.962  39.161  0.00  0.00     0.110 C 
ATOM     71  CQ3 MOL d          12.563  15.633  38.402  0.00  0.00     0.092 C 
ATOM     72  H25 MOL d          12.799  17.783  38.658  0.00  0.00     0.094 H 
ATOM     73  CQ4 MOL d          14.062  15.335  38.480  0.00  0.00     0.096 C 
ATOM     74  H26 MOL d          12.003  14.804  38.859  0.00  0.00     0.091 H 
ATOM     75  CQ5 MOL d          14.374  15.152  40.027  0.00  0.00     0.089 C 
ATOM     76  H27 MOL d          14.649  16.163  38.056  0.00  0.00     0.091 H 
ATOM     77  OQ5 MOL d          14.064  16.375  40.740  0.00  0.00    -0.348 OA
ATOM     78  H28 MOL d          13.749  14.332  40.410  0.00  0.00     0.090 H 
ATOM     79  H24 MOL d          12.713  17.934  41.046  0.00  0.00     0.133 H 
BRANCH  70  80
ATOM     80  OQ2 MOL d          10.872  17.206  39.110  0.00  0.00    -0.388 OA
ATOM     81  H31 MOL d          10.416  16.392  38.932  0.00  0.00     0.210 HD
ENDBRANCH  70  80
BRANCH  71  82
ATOM     82  OQ3 MOL d          12.137  15.812  37.050  0.00  0.00    -0.390 OA
ATOM     83  H32 MOL d          12.138  14.973  36.605  0.00  0.00     0.210 HD
ENDBRANCH  71  82
BRANCH  73  84
ATOM     84  OQ4 MOL d          14.350  14.148  37.797  0.00  0.00    -0.348 OA
BRANCH  84  85
ATOM     85  CW1 MOL d          14.863  14.423  36.484  0.00  0.00     0.159 C 
ATOM     86  CW2 MOL d          14.214  13.544  35.389  0.00  0.00     0.110 C 
ATOM     87  CW3 MOL d          14.579  12.059  35.653  0.00  0.00     0.092 C 
ATOM     88  H35 MOL d          14.592  13.839  34.399  0.00  0.00     0.094 H 
ATOM     89  CW4 MOL d          16.112  11.941  35.578  0.00  0.00     0.090 C 
ATOM     90  H36 MOL d          14.219  11.745  36.644  0.00  0.00     0.091 H 
ATOM     91  CW5 MOL d          16.744  12.854  36.699  0.00  0.00     0.089 C 
ATOM     92  H37 MOL d          16.464  12.264  34.588  0.00  0.00     0.091 H 
ATOM     93  OW5 MOL d          16.322  14.226  36.466  0.00  0.00    -0.348 OA
ATOM     94  H38 MOL d          16.394  12.519  37.686  0.00  0.00     0.090 H 
ATOM     95  H34 MOL d          14.646  15.476  36.249  0.00  0.00     0.133 H 
BRANCH  86  96
ATOM     96  OW2 MOL d          12.822  13.747  35.438  0.00  0.00    -0.388 OA
ATOM     97  H41 MOL d          12.620  14.626  35.140  0.00  0.00     0.210 HD
ENDBRANCH  86  96
BRANCH  87  98
ATOM     98  OW3 MOL d          13.999  11.259  34.651  0.00  0.00    -0.390 OA
ATOM     99  H42 MOL d          14.468  10.434  34.595  0.00  0.00     0.210 HD
ENDBRANCH  87  98
BRANCH  89 100
ATOM    100  OW4 MOL d          16.491  10.593  35.805  0.00  0.00    -0.390 OA
ATOM    101  H43 MOL d          16.087  10.283  36.607  0.00  0.00     0.210 HD
ENDBRANCH  89 100
BRANCH  91 102
ATOM    102  CW6 MOL d          18.284  12.790  36.654  0.00  0.00     0.043 C 
ATOM    103  H39 MOL d          18.690  13.764  36.963  0.00  0.00     0.078 H 
ATOM    104  H40 MOL d          18.601  12.571  35.623  0.00  0.00     0.078 H 
BRANCH 102 105
ATOM    105  OW6 MOL d          18.789  11.797  37.505  0.00  0.00    -0.398 OA
ATOM    106  H44 MOL d          19.341  11.206  37.007  0.00  0.00     0.209 HD
ENDBRANCH 102 105
ENDBRANCH  91 102
ENDBRANCH  84  85
ENDBRANCH  73  84
BRANCH  75 107
ATOM    107  CQ6 MOL d          15.837  14.834  40.320  0.00  0.00     0.043 C 
ATOM    108  H29 MOL d          15.959  13.744  40.403  0.00  0.00     0.078 H 
ATOM    109  H30 MOL d          16.126  15.309  41.269  0.00  0.00     0.078 H 
BRANCH 107 110
ATOM    110  OQ6 MOL d          16.670  15.316  39.290  0.00  0.00    -0.398 OA
ATOM    111  H33 MOL d          16.578  16.259  39.225  0.00  0.00     0.209 HD
ENDBRANCH 107 110
ENDBRANCH  75 107
ENDBRANCH  68  69
ENDBRANCH   4  68
TORSDOF 29
ENDMDL
MODEL 3
REMARK VINA RESULT:      -6.4      1.789      3.409
REMARK  29 active torsions:
REMARK  status: ('A' for Active; 'I' for Inactive)
REMARK    1  A    between atoms: CR1_1  and  OR1_7 
REMARK    2  A    between atoms: CR2_2  and  OR2_8 
REMARK    3  A    between atoms: CR3_3  and  OR3_9 
REMARK    4  A    between atoms: OR4_10  and  CR4_4 
REMARK    5  A    between atoms: CR5_5  and  CR6_6 
REMARK    6  A    between atoms: CR6_6  and  OR6_12 
REMARK    7  A    between atoms: CV1_13  and  OR4_10 
REMARK    8  A    between atoms: CV2_14  and  OV2_19 
REMARK    9  A    between atoms: CV3_15  and  OV3_20 
REMARK   10  A    between atoms: NV4_21  and  CV4_16 
REMARK   11  A    between atoms: CV5_17  and  CV6_18 
REMARK   12  A    between atoms: CY1_45  and  NV4_21 
REMARK   13  A    between atoms: OY4_51  and  CQ1_23 
REMARK   14  A    between atoms: CQ2_24  and  OQ2_29 
REMARK   15  A    between atoms: CQ3_25  and  OQ3_30 
REMARK   16  A    between atoms: CQ4_26  and  OQ4_31 
REMARK   17  A    between atoms: CQ5_27  and  CQ6_28 
REMARK   18  A    between atoms: CQ6_28  and  OQ6_33 
REMARK   19  A    between atoms: OQ4_31  and  CW1_34 
REMARK   20  A    between atoms: CW2_35  and  OW2_40 
REMARK   21  A    between atoms: CW3_36  and  OW3_41 
REMARK   22  A    between atoms: CW4_37  and  OW4_42 
REMARK   23  A    between atoms: CW5_38  and  CW6_39 
REMARK   24  A    between atoms: CW6_39  and  OW6_44 
REMARK   25  A    between atoms: CY2_46  and  OY2_47 
REMARK   26  A    between atoms: CY3_48  and  OY3_49 
REMARK   27  A    between atoms: CY4_50  and  OY4_51 
REMARK   28  A    between atoms: CY5_52  and  CY7_54 
REMARK   29  A    between atoms: CY7_54  and  OY7_55 
ROOT
ATOM      1  CY1 MOL d           8.885  15.688  43.983  0.00  0.00     0.130 C 
ATOM      2  CY2 MOL d          10.211  16.157  44.699  0.00  0.00     0.090 C 
ATOM      3  CY3 MOL d          11.028  17.129  43.737  0.00  0.00     0.087 C 
ATOM      4  CY4 MOL d          11.360  16.424  42.329  0.00  0.00     0.074 C 
ATOM      5  CY5 MOL d          10.186  15.605  41.790  0.00  0.00    -0.004 C 
ATOM      6  CY6 MOL d           9.421  14.960  42.697  0.00  0.00    -0.028 C 
ATOM      7  H45 MOL d           8.337  14.964  44.604  0.00  0.00     0.088 H 
ATOM      8  H46 MOL d          10.826  15.270  44.913  0.00  0.00     0.090 H 
ATOM      9  H48 MOL d          10.401  18.011  43.537  0.00  0.00     0.091 H 
ATOM     10  H50 MOL d          12.244  15.780  42.449  0.00  0.00     0.088 H 
ATOM     11  H51 MOL d           9.523  16.342  41.315  0.00  0.00     0.047 H 
ATOM     12  H52 MOL d           8.537  14.595  42.154  0.00  0.00     0.036 H 
ATOM     13  H53 MOL d          10.014  14.102  43.049  0.00  0.00     0.036 H 
ENDROOT
BRANCH   1  14
ATOM     14  NV4 MOL d           7.981  16.913  43.770  0.00  0.00    -0.059 N 
ATOM     15  H22 MOL d           7.552  17.112  44.660  0.00  0.00     0.278 HD
ATOM     16  H23 MOL d           8.587  17.675  43.510  0.00  0.00     0.278 HD
BRANCH  14  17
ATOM     17  CV4 MOL d           6.889  16.882  42.773  0.00  0.00     0.153 C 
ATOM     18  CV3 MOL d           7.471  17.075  41.354  0.00  0.00     0.094 C 
ATOM     19  CV2 MOL d           6.327  17.046  40.344  0.00  0.00     0.110 C 
ATOM     20  H14 MOL d           8.187  16.270  41.136  0.00  0.00     0.090 H 
ATOM     21  CV1 MOL d           5.538  15.744  40.407  0.00  0.00     0.159 C 
ATOM     22  H13 MOL d           5.646  17.875  40.588  0.00  0.00     0.094 H 
ATOM     23  OV5 MOL d           5.097  15.508  41.772  0.00  0.00    -0.351 OA
ATOM     24  H12 MOL d           4.649  15.864  39.770  0.00  0.00     0.133 H 
ATOM     25  CV5 MOL d           6.167  15.487  42.787  0.00  0.00     0.068 C 
ATOM     26  H16 MOL d           6.892  14.696  42.542  0.00  0.00     0.086 H 
ATOM     27  H15 MOL d           6.166  17.680  42.997  0.00  0.00     0.092 H 
BRANCH  18  28
ATOM     28  OV3 MOL d           8.114  18.324  41.251  0.00  0.00    -0.391 OA
ATOM     29  H21 MOL d           7.938  18.700  40.396  0.00  0.00     0.210 HD
ENDBRANCH  18  28
BRANCH  19  30
ATOM     30  OV2 MOL d           6.788  17.226  39.024  0.00  0.00    -0.388 OA
ATOM     31  H20 MOL d           7.647  17.632  39.042  0.00  0.00     0.210 HD
ENDBRANCH  19  30
BRANCH  21  32
ATOM     32  OR4 MOL d           6.233  14.631  39.948  0.00  0.00    -0.348 OA
BRANCH  32  33
ATOM     33  CR4 MOL d           5.608  13.941  38.868  0.00  0.00     0.096 C 
ATOM     34  CR3 MOL d           4.096  14.284  38.868  0.00  0.00     0.092 C 
ATOM     35  CR2 MOL d           3.426  13.549  37.700  0.00  0.00     0.110 C 
ATOM     36  H3  MOL d           3.961  15.370  38.762  0.00  0.00     0.091 H 
ATOM     37  CR1 MOL d           4.069  13.998  36.360  0.00  0.00     0.156 C 
ATOM     38  H2  MOL d           3.565  12.466  37.829  0.00  0.00     0.094 H 
ATOM     39  OR5 MOL d           5.529  13.733  36.390  0.00  0.00    -0.349 OA
ATOM     40  H1  MOL d           3.620  13.407  35.548  0.00  0.00     0.133 H 
ATOM     41  CR5 MOL d           6.239  14.417  37.477  0.00  0.00     0.089 C 
ATOM     42  H5  MOL d           6.104  15.505  37.377  0.00  0.00     0.090 H 
ATOM     43  H4  MOL d           5.748  12.857  38.988  0.00  0.00     0.091 H 
BRANCH  34  44
ATOM     44  OR3 MOL d           3.497  13.840  40.064  0.00  0.00    -0.390 OA
ATOM     45  H10 MOL d           2.554  13.941  40.002  0.00  0.00     0.210 HD
ENDBRANCH  34  44
BRANCH  35  46
ATOM     46  OR2 MOL d           2.047  13.841  37.658  0.00  0.00    -0.388 OA
ATOM     47  H9  MOL d           1.865  14.403  36.914  0.00  0.00     0.210 HD
ENDBRANCH  35  46
BRANCH  37  48
ATOM     48  OR1 MOL d           3.836  15.371  36.090  0.00  0.00    -0.369 OA
ATOM     49  H8  MOL d           3.076  15.664  36.579  0.00  0.00     0.212 HD
ENDBRANCH  37  48
BRANCH  41  50
ATOM     50  CR6 MOL d           7.640  14.117  37.395  0.00  0.00     0.043 C 
ATOM     51  H6  MOL d           7.906  13.963  36.338  0.00  0.00     0.078 H 
ATOM     52  H7  MOL d           7.837  13.196  37.961  0.00  0.00     0.078 H 
BRANCH  50  53
ATOM     53  OR6 MOL d           8.454  15.159  37.921  0.00  0.00    -0.398 OA
ATOM     54  H11 MOL d           8.222  15.981  37.506  0.00  0.00     0.209 HD
ENDBRANCH  50  53
ENDBRANCH  41  50
ENDBRANCH  32  33
ENDBRANCH  21  32
BRANCH  25  55
ATOM     55  CV6 MOL d           5.573  15.213  44.160  0.00  0.00    -0.050 C 
ATOM     56  H17 MOL d           5.338  14.142  44.251  0.00  0.00     0.031 H 
ATOM     57  H18 MOL d           4.653  15.802  44.286  0.00  0.00     0.031 H 
ATOM     58  H19 MOL d           6.298  15.496  44.937  0.00  0.00     0.031 H 
ENDBRANCH  25  55
ENDBRANCH  14  17
ENDBRANCH   1  14
BRANCH   2  59
ATOM     59  OY2 MOL d           9.935  16.802  45.899  0.00  0.00    -0.391 OA
ATOM     60  H47 MOL d           9.837  16.157  46.589  0.00  0.00     0.210 HD
ENDBRANCH   2  59
BRANCH   3  61
ATOM     61  OY3 MOL d          12.211  17.566  44.351  0.00  0.00    -0.390 OA
ATOM     62  H49 MOL d          12.082  17.603  45.291  0.00  0.00     0.210 HD
ENDBRANCH   3  61
BRANCH   5  63
ATOM     63  CY7 MOL d          10.602  14.608  40.674  0.00  0.00     0.022 C 
ATOM     64  H54 MOL d           9.785  13.892  40.504  0.00  0.00     0.074 H 
ATOM     65  H55 MOL d          11.506  14.065  40.990  0.00  0.00     0.074 H 
BRANCH  63  66
ATOM     66  OY7 MOL d          10.878  15.317  39.444  0.00  0.00    -0.400 OA
ATOM     67  H56 MOL d          11.174  14.700  38.783  0.00  0.00     0.209 HD
ENDBRANCH  63  66
ENDBRANCH   5  63
BRANCH   4  68
ATOM     68  OY4 MOL d          11.594  17.420  41.341  0.00  0.00    -0.350 OA
BRANCH  68  69
ATOM     69  CQ1 MOL d          12.842  18.071  41.426  0.00  0.00     0.159 C 
ATOM     70  CQ2 MOL d          13.183  18.723  40.068  0.00  0.00     0.110 C 
ATOM     71  CQ3 MOL d          13.614  17.677  38.996  0.00  0.00     0.092 C 
ATOM     72  H25 MOL d          14.009  19.435  40.219  0.00  0.00     0.094 H 
ATOM     73  CQ4 MOL d          14.819  16.891  39.519  0.00  0.00     0.096 C 
ATOM     74  H26 MOL d          12.787  16.981  38.793  0.00  0.00     0.091 H 
ATOM     75  CQ5 MOL d          14.301  16.144  40.821  0.00  0.00     0.089 C 
ATOM     76  H27 MOL d          15.653  17.566  39.759  0.00  0.00     0.091 H 
ATOM     77  OQ5 MOL d          13.864  17.114  41.805  0.00  0.00    -0.348 OA
ATOM     78  H28 MOL d          13.455  15.501  40.536  0.00  0.00     0.090 H 
ATOM     79  H24 MOL d          12.786  18.856  42.195  0.00  0.00     0.133 H 
BRANCH  70  80
ATOM     80  OQ2 MOL d          12.048  19.419  39.586  0.00  0.00    -0.388 OA
ATOM     81  H31 MOL d          12.327  20.218  39.156  0.00  0.00     0.210 HD
ENDBRANCH  70  80
BRANCH  71  82
ATOM     82  OQ3 MOL d          13.939  18.398  37.806  0.00  0.00    -0.390 OA
ATOM     83  H32 MOL d          13.700  19.311  37.915  0.00  0.00     0.210 HD
ENDBRANCH  71  82
BRANCH  73  84
ATOM     84  OQ4 MOL d          15.226  15.950  38.566  0.00  0.00    -0.348 OA
BRANCH  84  85
ATOM     85  CW1 MOL d          14.533  14.706  38.746  0.00  0.00     0.159 C 
ATOM     86  CW2 MOL d          15.334  13.489  38.224  0.00  0.00     0.110 C 
ATOM     87  CW3 MOL d          15.513  13.625  36.689  0.00  0.00     0.092 C 
ATOM     88  H35 MOL d          14.790  12.559  38.445  0.00  0.00     0.094 H 
ATOM     89  CW4 MOL d          14.108  13.632  36.060  0.00  0.00     0.090 C 
ATOM     90  H36 MOL d          16.047  14.555  36.445  0.00  0.00     0.091 H 
ATOM     91  CW5 MOL d          13.312  14.875  36.618  0.00  0.00     0.089 C 
ATOM     92  H37 MOL d          13.579  12.703  36.317  0.00  0.00     0.091 H 
ATOM     93  OW5 MOL d          13.228  14.757  38.065  0.00  0.00    -0.348 OA
ATOM     94  H38 MOL d          13.843  15.801  36.350  0.00  0.00     0.090 H 
ATOM     95  H34 MOL d          14.362  14.565  39.824  0.00  0.00     0.133 H 
BRANCH  86  96
ATOM     96  OW2 MOL d          16.577  13.473  38.886  0.00  0.00    -0.388 OA
ATOM     97  H41 MOL d          16.457  13.741  39.789  0.00  0.00     0.210 HD
ENDBRANCH  86  96
BRANCH  87  98
ATOM     98  OW3 MOL d          16.233  12.513  36.211  0.00  0.00    -0.390 OA
ATOM     99  H42 MOL d          15.819  12.185  35.421  0.00  0.00     0.210 HD
ENDBRANCH  87  98
BRANCH  89 100
ATOM    100  OW4 MOL d          14.224  13.745  34.651  0.00  0.00    -0.390 OA
ATOM    101  H43 MOL d          15.012  13.300  34.363  0.00  0.00     0.210 HD
ENDBRANCH  89 100
BRANCH  91 102
ATOM    102  CW6 MOL d          11.885  14.918  36.035  0.00  0.00     0.043 C 
ATOM    103  H39 MOL d          11.261  14.186  36.568  0.00  0.00     0.078 H 
ATOM    104  H40 MOL d          11.928  14.656  34.968  0.00  0.00     0.078 H 
BRANCH 102 105
ATOM    105  OW6 MOL d          11.307  16.189  36.168  0.00  0.00    -0.398 OA
ATOM    106  H44 MOL d          10.426  16.173  35.812  0.00  0.00     0.209 HD
ENDBRANCH 102 105
ENDBRANCH  91 102
ENDBRANCH  84  85
ENDBRANCH  73  84
BRANCH  75 107
ATOM    107  CQ6 MOL d          15.365  15.286  41.496  0.00  0.00     0.043 C 
ATOM    108  H29 MOL d          15.221  14.235  41.202  0.00  0.00     0.078 H 
ATOM    109  H30 MOL d          15.265  15.378  42.588  0.00  0.00     0.078 H 
BRANCH 107 110
ATOM    110  OQ6 MOL d          16.658  15.699  41.114  0.00  0.00    -0.398 OA
ATOM    111  H33 MOL d          16.662  16.640  40.983  0.00  0.00     0.209 HD
ENDBRANCH 107 110
ENDBRANCH  75 107
ENDBRANCH  68  69
ENDBRANCH   4  68
TORSDOF 29
ENDMDL
MODEL 4
REMARK VINA RESULT:      -6.2      1.965      3.964
REMARK  29 active torsions:
REMARK  status: ('A' for Active; 'I' for Inactive)
REMARK    1  A    between atoms: CR1_1  and  OR1_7 
REMARK    2  A    between atoms: CR2_2  and  OR2_8 
REMARK    3  A    between atoms: CR3_3  and  OR3_9 
REMARK    4  A    between atoms: OR4_10  and  CR4_4 
REMARK    5  A    between atoms: CR5_5  and  CR6_6 
REMARK    6  A    between atoms: CR6_6  and  OR6_12 
REMARK    7  A    between atoms: CV1_13  and  OR4_10 
REMARK    8  A    between atoms: CV2_14  and  OV2_19 
REMARK    9  A    between atoms: CV3_15  and  OV3_20 
REMARK   10  A    between atoms: NV4_21  and  CV4_16 
REMARK   11  A    between atoms: CV5_17  and  CV6_18 
REMARK   12  A    between atoms: CY1_45  and  NV4_21 
REMARK   13  A    between atoms: OY4_51  and  CQ1_23 
REMARK   14  A    between atoms: CQ2_24  and  OQ2_29 
REMARK   15  A    between atoms: CQ3_25  and  OQ3_30 
REMARK   16  A    between atoms: CQ4_26  and  OQ4_31 
REMARK   17  A    between atoms: CQ5_27  and  CQ6_28 
REMARK   18  A    between atoms: CQ6_28  and  OQ6_33 
REMARK   19  A    between atoms: OQ4_31  and  CW1_34 
REMARK   20  A    between atoms: CW2_35  and  OW2_40 
REMARK   21  A    between atoms: CW3_36  and  OW3_41 
REMARK   22  A    between atoms: CW4_37  and  OW4_42 
REMARK   23  A    between atoms: CW5_38  and  CW6_39 
REMARK   24  A    between atoms: CW6_39  and  OW6_44 
REMARK   25  A    between atoms: CY2_46  and  OY2_47 
REMARK   26  A    between atoms: CY3_48  and  OY3_49 
REMARK   27  A    between atoms: CY4_50  and  OY4_51 
REMARK   28  A    between atoms: CY5_52  and  CY7_54 
REMARK   29  A    between atoms: CY7_54  and  OY7_55 
ROOT
ATOM      1  CY1 MOL d           7.057  15.793  43.248  0.00  0.00     0.130 C 
ATOM      2  CY2 MOL d           7.054  17.132  42.411  0.00  0.00     0.090 C 
ATOM      3  CY3 MOL d           8.463  17.321  41.693  0.00  0.00     0.087 C 
ATOM      4  CY4 MOL d           9.672  17.315  42.755  0.00  0.00     0.074 C 
ATOM      5  CY5 MOL d           9.493  16.257  43.845  0.00  0.00    -0.004 C 
ATOM      6  CY6 MOL d           8.232  16.020  44.266  0.00  0.00    -0.028 C 
ATOM      7  H45 MOL d           6.116  15.675  43.804  0.00  0.00     0.088 H 
ATOM      8  H46 MOL d           6.890  17.974  43.100  0.00  0.00     0.090 H 
ATOM      9  H48 MOL d           8.609  16.473  41.007  0.00  0.00     0.091 H 
ATOM     10  H50 MOL d           9.757  18.313  43.210  0.00  0.00     0.088 H 
ATOM     11  H51 MOL d           9.833  15.318  43.385  0.00  0.00     0.047 H 
ATOM     12  H52 MOL d           8.279  15.117  44.893  0.00  0.00     0.036 H 
ATOM     13  H53 MOL d           7.944  16.881  44.887  0.00  0.00     0.036 H 
ENDROOT
BRANCH   1  14
ATOM     14  NV4 MOL d           7.187  14.608  42.277  0.00  0.00    -0.059 N 
ATOM     15  H22 MOL d           7.935  14.838  41.641  0.00  0.00     0.278 HD
ATOM     16  H23 MOL d           7.452  13.809  42.832  0.00  0.00     0.278 HD
BRANCH  14  17
ATOM     17  CV4 MOL d           6.040  14.183  41.445  0.00  0.00     0.153 C 
ATOM     18  CV3 MOL d           4.791  15.016  41.812  0.00  0.00     0.094 C 
ATOM     19  CV2 MOL d           3.621  14.557  40.947  0.00  0.00     0.110 C 
ATOM     20  H14 MOL d           4.994  16.083  41.636  0.00  0.00     0.090 H 
ATOM     21  CV1 MOL d           3.917  14.695  39.458  0.00  0.00     0.159 C 
ATOM     22  H13 MOL d           3.442  13.493  41.166  0.00  0.00     0.094 H 
ATOM     23  OV5 MOL d           5.160  14.010  39.144  0.00  0.00    -0.351 OA
ATOM     24  H12 MOL d           3.100  14.203  38.911  0.00  0.00     0.133 H 
ATOM     25  CV5 MOL d           6.335  14.442  39.924  0.00  0.00     0.068 C 
ATOM     26  H16 MOL d           6.511  15.515  39.762  0.00  0.00     0.086 H 
ATOM     27  H15 MOL d           5.844  13.113  41.612  0.00  0.00     0.092 H 
BRANCH  18  28
ATOM     28  OV3 MOL d           4.444  14.815  43.162  0.00  0.00    -0.391 OA
ATOM     29  H21 MOL d           3.936  15.557  43.470  0.00  0.00     0.210 HD
ENDBRANCH  18  28
BRANCH  19  30
ATOM     30  OV2 MOL d           2.441  15.273  41.236  0.00  0.00    -0.388 OA
ATOM     31  H20 MOL d           2.647  16.196  41.327  0.00  0.00     0.210 HD
ENDBRANCH  19  30
BRANCH  21  32
ATOM     32  OR4 MOL d           3.989  16.009  39.010  0.00  0.00    -0.348 OA
BRANCH  32  33
ATOM     33  CR4 MOL d           3.961  16.157  37.591  0.00  0.00     0.096 C 
ATOM     34  CR3 MOL d           2.585  16.740  37.180  0.00  0.00     0.092 C 
ATOM     35  CR2 MOL d           2.559  16.908  35.656  0.00  0.00     0.110 C 
ATOM     36  H3  MOL d           2.430  17.711  37.672  0.00  0.00     0.091 H 
ATOM     37  CR1 MOL d           3.694  17.872  35.215  0.00  0.00     0.156 C 
ATOM     38  H2  MOL d           2.707  15.927  35.183  0.00  0.00     0.094 H 
ATOM     39  OR5 MOL d           5.004  17.346  35.671  0.00  0.00    -0.349 OA
ATOM     40  H1  MOL d           3.697  17.920  34.116  0.00  0.00     0.133 H 
ATOM     41  CR5 MOL d           5.106  17.173  37.125  0.00  0.00     0.089 C 
ATOM     42  H5  MOL d           4.949  18.141  37.623  0.00  0.00     0.090 H 
ATOM     43  H4  MOL d           4.114  15.179  37.112  0.00  0.00     0.091 H 
BRANCH  34  44
ATOM     44  OR3 MOL d           1.552  15.850  37.539  0.00  0.00    -0.390 OA
ATOM     45  H10 MOL d           1.582  15.087  36.973  0.00  0.00     0.210 HD
ENDBRANCH  34  44
BRANCH  35  46
ATOM     46  OR2 MOL d           1.324  17.446  35.238  0.00  0.00    -0.388 OA
ATOM     47  H9  MOL d           1.288  17.455  34.289  0.00  0.00     0.210 HD
ENDBRANCH  35  46
BRANCH  37  48
ATOM     48  OR1 MOL d           3.503  19.185  35.715  0.00  0.00    -0.369 OA
ATOM     49  H8  MOL d           3.308  19.772  34.994  0.00  0.00     0.212 HD
ENDBRANCH  37  48
BRANCH  41  50
ATOM     50  CR6 MOL d           6.416  16.691  37.457  0.00  0.00     0.043 C 
ATOM     51  H6  MOL d           7.072  16.822  36.584  0.00  0.00     0.078 H 
ATOM     52  H7  MOL d           6.346  15.623  37.707  0.00  0.00     0.078 H 
BRANCH  50  53
ATOM     53  OR6 MOL d           6.988  17.381  38.563  0.00  0.00    -0.398 OA
ATOM     54  H11 MOL d           7.706  16.871  38.916  0.00  0.00     0.209 HD
ENDBRANCH  50  53
ENDBRANCH  41  50
ENDBRANCH  32  33
ENDBRANCH  21  32
BRANCH  25  55
ATOM     55  CV6 MOL d           7.564  13.662  39.484  0.00  0.00    -0.050 C 
ATOM     56  H17 MOL d           8.220  14.316  38.889  0.00  0.00     0.031 H 
ATOM     57  H18 MOL d           7.253  12.801  38.872  0.00  0.00     0.031 H 
ATOM     58  H19 MOL d           8.109  13.304  40.370  0.00  0.00     0.031 H 
ENDBRANCH  25  55
ENDBRANCH  14  17
ENDBRANCH   1  14
BRANCH   2  59
ATOM     59  OY2 MOL d           6.037  17.132  41.463  0.00  0.00    -0.391 OA
ATOM     60  H47 MOL d           6.399  16.915  40.612  0.00  0.00     0.210 HD
ENDBRANCH   2  59
BRANCH   3  61
ATOM     61  OY3 MOL d           8.488  18.502  40.938  0.00  0.00    -0.390 OA
ATOM     62  H49 MOL d           7.666  18.966  41.051  0.00  0.00     0.210 HD
ENDBRANCH   3  61
BRANCH   5  63
ATOM     63  CY7 MOL d          10.404  16.495  45.080  0.00  0.00     0.022 C 
ATOM     64  H54 MOL d           9.865  16.201  45.992  0.00  0.00     0.074 H 
ATOM     65  H55 MOL d          10.667  17.563  45.137  0.00  0.00     0.074 H 
BRANCH  63  66
ATOM     66  OY7 MOL d          11.616  15.712  44.968  0.00  0.00    -0.400 OA
ATOM     67  H56 MOL d          12.226  16.154  44.389  0.00  0.00     0.209 HD
ENDBRANCH  63  66
ENDBRANCH   5  63
BRANCH   4  68
ATOM     68  OY4 MOL d          10.883  16.959  42.097  0.00  0.00    -0.350 OA
BRANCH  68  69
ATOM     69  CQ1 MOL d          11.979  17.807  42.353  0.00  0.00     0.159 C 
ATOM     70  CQ2 MOL d          12.301  18.637  41.092  0.00  0.00     0.110 C 
ATOM     71  CQ3 MOL d          12.999  17.792  39.983  0.00  0.00     0.092 C 
ATOM     72  H25 MOL d          12.969  19.464  41.377  0.00  0.00     0.094 H 
ATOM     73  CQ4 MOL d          14.283  17.182  40.552  0.00  0.00     0.096 C 
ATOM     74  H26 MOL d          12.331  16.985  39.647  0.00  0.00     0.091 H 
ATOM     75  CQ5 MOL d          13.809  16.233  41.734  0.00  0.00     0.089 C 
ATOM     76  H27 MOL d          14.958  17.966  40.924  0.00  0.00     0.091 H 
ATOM     77  OQ5 MOL d          13.127  17.011  42.748  0.00  0.00    -0.348 OA
ATOM     78  H28 MOL d          13.120  15.483  41.319  0.00  0.00     0.090 H 
ATOM     79  H24 MOL d          11.720  18.491  43.174  0.00  0.00     0.133 H 
BRANCH  70  80
ATOM     80  OQ2 MOL d          11.099  19.167  40.562  0.00  0.00    -0.388 OA
ATOM     81  H31 MOL d          11.284  19.987  40.119  0.00  0.00     0.210 HD
ENDBRANCH  70  80
BRANCH  71  82
ATOM     82  OQ3 MOL d          13.279  18.671  38.892  0.00  0.00    -0.390 OA
ATOM     83  H32 MOL d          13.610  18.167  38.157  0.00  0.00     0.210 HD
ENDBRANCH  71  82
BRANCH  73  84
ATOM     84  OQ4 MOL d          14.928  16.424  39.568  0.00  0.00    -0.348 OA
BRANCH  84  85
ATOM     85  CW1 MOL d          14.455  15.068  39.573  0.00  0.00     0.159 C 
ATOM     86  CW2 MOL d          15.536  14.052  39.131  0.00  0.00     0.110 C 
ATOM     87  CW3 MOL d          15.917  14.334  37.654  0.00  0.00     0.092 C 
ATOM     88  H35 MOL d          15.144  13.028  39.216  0.00  0.00     0.094 H 
ATOM     89  CW4 MOL d          14.647  14.145  36.806  0.00  0.00     0.090 C 
ATOM     90  H36 MOL d          16.302  15.358  37.545  0.00  0.00     0.091 H 
ATOM     91  CW5 MOL d          13.562  15.186  37.285  0.00  0.00     0.089 C 
ATOM     92  H37 MOL d          14.264  13.122  36.928  0.00  0.00     0.091 H 
ATOM     93  OW5 MOL d          13.282  14.944  38.692  0.00  0.00    -0.348 OA
ATOM     94  H38 MOL d          13.949  16.207  37.152  0.00  0.00     0.090 H 
ATOM     95  H34 MOL d          14.152  14.818  40.601  0.00  0.00     0.133 H 
BRANCH  86  96
ATOM     96  OW2 MOL d          16.646  14.201  39.985  0.00  0.00    -0.388 OA
ATOM     97  H41 MOL d          16.445  13.823  40.833  0.00  0.00     0.210 HD
ENDBRANCH  86  96
BRANCH  87  98
ATOM     98  OW3 MOL d          16.892  13.403  37.247  0.00  0.00    -0.390 OA
ATOM     99  H42 MOL d          16.508  12.534  37.221  0.00  0.00     0.210 HD
ENDBRANCH  87  98
BRANCH  89 100
ATOM    100  OW4 MOL d          14.952  14.384  35.442  0.00  0.00    -0.390 OA
ATOM    101  H43 MOL d          15.891  14.322  35.314  0.00  0.00     0.210 HD
ENDBRANCH  89 100
BRANCH  91 102
ATOM    102  CW6 MOL d          12.256  15.025  36.481  0.00  0.00     0.043 C 
ATOM    103  H39 MOL d          12.162  13.977  36.160  0.00  0.00     0.078 H 
ATOM    104  H40 MOL d          12.300  15.678  35.596  0.00  0.00     0.078 H 
BRANCH 102 105
ATOM    105  OW6 MOL d          11.130  15.369  37.243  0.00  0.00    -0.398 OA
ATOM    106  H44 MOL d          10.388  15.505  36.665  0.00  0.00     0.209 HD
ENDBRANCH 102 105
ENDBRANCH  91 102
ENDBRANCH  84  85
ENDBRANCH  73  84
BRANCH  75 107
ATOM    107  CQ6 MOL d          14.956  15.512  42.434  0.00  0.00     0.043 C 
ATOM    108  H29 MOL d          15.765  16.231  42.635  0.00  0.00     0.078 H 
ATOM    109  H30 MOL d          15.332  14.711  41.780  0.00  0.00     0.078 H 
BRANCH 107 110
ATOM    110  OQ6 MOL d          14.525  14.949  43.652  0.00  0.00    -0.398 OA
ATOM    111  H33 MOL d          14.051  15.604  44.152  0.00  0.00     0.209 HD
ENDBRANCH 107 110
ENDBRANCH  75 107
ENDBRANCH  68  69
ENDBRANCH   4  68
TORSDOF 29
ENDMDL
MODEL 5
REMARK VINA RESULT:      -6.0      1.749      3.212
REMARK  29 active torsions:
REMARK  status: ('A' for Active; 'I' for Inactive)
REMARK    1  A    between atoms: CR1_1  and  OR1_7 
REMARK    2  A    between atoms: CR2_2  and  OR2_8 
REMARK    3  A    between atoms: CR3_3  and  OR3_9 
REMARK    4  A    between atoms: OR4_10  and  CR4_4 
REMARK    5  A    between atoms: CR5_5  and  CR6_6 
REMARK    6  A    between atoms: CR6_6  and  OR6_12 
REMARK    7  A    between atoms: CV1_13  and  OR4_10 
REMARK    8  A    between atoms: CV2_14  and  OV2_19 
REMARK    9  A    between atoms: CV3_15  and  OV3_20 
REMARK   10  A    between atoms: NV4_21  and  CV4_16 
REMARK   11  A    between atoms: CV5_17  and  CV6_18 
REMARK   12  A    between atoms: CY1_45  and  NV4_21 
REMARK   13  A    between atoms: OY4_51  and  CQ1_23 
REMARK   14  A    between atoms: CQ2_24  and  OQ2_29 
REMARK   15  A    between atoms: CQ3_25  and  OQ3_30 
REMARK   16  A    between atoms: CQ4_26  and  OQ4_31 
REMARK   17  A    between atoms: CQ5_27  and  CQ6_28 
REMARK   18  A    between atoms: CQ6_28  and  OQ6_33 
REMARK   19  A    between atoms: OQ4_31  and  CW1_34 
REMARK   20  A    between atoms: CW2_35  and  OW2_40 
REMARK   21  A    between atoms: CW3_36  and  OW3_41 
REMARK   22  A    between atoms: CW4_37  and  OW4_42 
REMARK   23  A    between atoms: CW5_38  and  CW6_39 
REMARK   24  A    between atoms: CW6_39  and  OW6_44 
REMARK   25  A    between atoms: CY2_46  and  OY2_47 
REMARK   26  A    between atoms: CY3_48  and  OY3_49 
REMARK   27  A    between atoms: CY4_50  and  OY4_51 
REMARK   28  A    between atoms: CY5_52  and  CY7_54 
REMARK   29  A    between atoms: CY7_54  and  OY7_55 
ROOT
ATOM      1  CY1 MOL d           8.583  15.792  43.863  0.00  0.00     0.130 C 
ATOM      2  CY2 MOL d           8.639  17.305  43.417  0.00  0.00     0.090 C 
ATOM      3  CY3 MOL d           9.729  17.487  42.268  0.00  0.00     0.087 C 
ATOM      4  CY4 MOL d          11.180  16.979  42.745  0.00  0.00     0.074 C 
ATOM      5  CY5 MOL d          11.113  15.681  43.552  0.00  0.00    -0.004 C 
ATOM      6  CY6 MOL d          10.047  15.521  44.366  0.00  0.00    -0.028 C 
ATOM      7  H45 MOL d           7.884  15.656  44.701  0.00  0.00     0.088 H 
ATOM      8  H46 MOL d           8.933  17.916  44.284  0.00  0.00     0.090 H 
ATOM      9  H48 MOL d           9.418  16.874  41.409  0.00  0.00     0.091 H 
ATOM     10  H50 MOL d          11.659  17.769  43.341  0.00  0.00     0.088 H 
ATOM     11  H51 MOL d          11.031  14.885  42.799  0.00  0.00     0.047 H 
ATOM     12  H52 MOL d          10.071  14.475  44.706  0.00  0.00     0.036 H 
ATOM     13  H53 MOL d          10.210  16.189  45.226  0.00  0.00     0.036 H 
ENDROOT
BRANCH   1  14
ATOM     14  NV4 MOL d           8.080  14.949  42.681  0.00  0.00    -0.059 N 
ATOM     15  H22 MOL d           8.888  14.727  42.121  0.00  0.00     0.278 HD
ATOM     16  H23 MOL d           7.698  14.103  43.072  0.00  0.00     0.278 HD
BRANCH  14  17
ATOM     17  CV4 MOL d           7.058  15.484  41.753  0.00  0.00     0.153 C 
ATOM     18  CV3 MOL d           7.514  15.270  40.293  0.00  0.00     0.094 C 
ATOM     19  CV2 MOL d           6.450  15.833  39.356  0.00  0.00     0.110 C 
ATOM     20  H14 MOL d           7.653  14.195  40.103  0.00  0.00     0.090 H 
ATOM     21  CV1 MOL d           5.089  15.182  39.574  0.00  0.00     0.159 C 
ATOM     22  H13 MOL d           6.355  16.909  39.567  0.00  0.00     0.094 H 
ATOM     23  OV5 MOL d           4.722  15.281  40.977  0.00  0.00    -0.351 OA
ATOM     24  H12 MOL d           4.354  15.745  38.981  0.00  0.00     0.133 H 
ATOM     25  CV5 MOL d           5.699  14.716  41.927  0.00  0.00     0.068 C 
ATOM     26  H16 MOL d           5.850  13.648  41.710  0.00  0.00     0.086 H 
ATOM     27  H15 MOL d           6.911  16.556  41.950  0.00  0.00     0.092 H 
BRANCH  18  28
ATOM     28  OV3 MOL d           8.720  15.955  40.048  0.00  0.00    -0.391 OA
ATOM     29  H21 MOL d           9.048  15.719  39.187  0.00  0.00     0.210 HD
ENDBRANCH  18  28
BRANCH  19  30
ATOM     30  OV2 MOL d           6.808  15.678  38.000  0.00  0.00    -0.388 OA
ATOM     31  H20 MOL d           6.075  15.928  37.450  0.00  0.00     0.210 HD
ENDBRANCH  19  30
BRANCH  21  32
ATOM     32  OR4 MOL d           5.021  13.853  39.172  0.00  0.00    -0.348 OA
BRANCH  32  33
ATOM     33  CR4 MOL d           4.482  13.652  37.867  0.00  0.00     0.096 C 
ATOM     34  CR3 MOL d           5.373  12.631  37.114  0.00  0.00     0.092 C 
ATOM     35  CR2 MOL d           4.789  12.408  35.714  0.00  0.00     0.110 C 
ATOM     36  H3  MOL d           5.403  11.682  37.669  0.00  0.00     0.091 H 
ATOM     37  CR1 MOL d           3.341  11.858  35.831  0.00  0.00     0.156 C 
ATOM     38  H2  MOL d           4.775  13.365  35.173  0.00  0.00     0.094 H 
ATOM     39  OR5 MOL d           2.507  12.805  36.614  0.00  0.00    -0.349 OA
ATOM     40  H1  MOL d           2.921  11.774  34.818  0.00  0.00     0.133 H 
ATOM     41  CR5 MOL d           3.001  13.056  37.973  0.00  0.00     0.089 C 
ATOM     42  H5  MOL d           3.036  12.109  38.531  0.00  0.00     0.090 H 
ATOM     43  H4  MOL d           4.461  14.607  37.322  0.00  0.00     0.091 H 
BRANCH  34  44
ATOM     44  OR3 MOL d           6.679  13.142  36.965  0.00  0.00    -0.390 OA
ATOM     45  H10 MOL d           7.047  13.323  37.822  0.00  0.00     0.210 HD
ENDBRANCH  34  44
BRANCH  35  46
ATOM     46  OR2 MOL d           5.567  11.477  34.995  0.00  0.00    -0.388 OA
ATOM     47  H9  MOL d           4.997  10.829  34.598  0.00  0.00     0.210 HD
ENDBRANCH  35  46
BRANCH  37  48
ATOM     48  OR1 MOL d           3.304  10.576  36.435  0.00  0.00    -0.369 OA
ATOM     49  H8  MOL d           2.417  10.385  36.716  0.00  0.00     0.212 HD
ENDBRANCH  37  48
BRANCH  41  50
ATOM     50  CR6 MOL d           2.109  13.956  38.646  0.00  0.00     0.043 C 
ATOM     51  H6  MOL d           1.089  13.790  38.268  0.00  0.00     0.078 H 
ATOM     52  H7  MOL d           2.418  14.988  38.426  0.00  0.00     0.078 H 
BRANCH  50  53
ATOM     53  OR6 MOL d           2.108  13.771  40.057  0.00  0.00    -0.398 OA
ATOM     54  H11 MOL d           1.684  12.948  40.266  0.00  0.00     0.209 HD
ENDBRANCH  50  53
ENDBRANCH  41  50
ENDBRANCH  32  33
ENDBRANCH  21  32
BRANCH  25  55
ATOM     55  CV6 MOL d           5.184  14.868  43.350  0.00  0.00    -0.050 C 
ATOM     56  H17 MOL d           4.104  14.659  43.374  0.00  0.00     0.031 H 
ATOM     57  H18 MOL d           5.366  15.895  43.699  0.00  0.00     0.031 H 
ATOM     58  H19 MOL d           5.708  14.160  44.008  0.00  0.00     0.031 H 
ENDBRANCH  25  55
ENDBRANCH  14  17
ENDBRANCH   1  14
BRANCH   2  59
ATOM     59  OY2 MOL d           7.400  17.745  42.966  0.00  0.00    -0.391 OA
ATOM     60  H47 MOL d           7.314  18.675  43.138  0.00  0.00     0.210 HD
ENDBRANCH   2  59
BRANCH   3  61
ATOM     61  OY3 MOL d           9.798  18.823  41.848  0.00  0.00    -0.390 OA
ATOM     62  H49 MOL d           9.915  19.386  42.605  0.00  0.00     0.210 HD
ENDBRANCH   3  61
BRANCH   5  63
ATOM     63  CY7 MOL d          12.412  15.396  44.353  0.00  0.00     0.022 C 
ATOM     64  H54 MOL d          12.927  14.530  43.913  0.00  0.00     0.074 H 
ATOM     65  H55 MOL d          12.153  15.176  45.400  0.00  0.00     0.074 H 
BRANCH  63  66
ATOM     66  OY7 MOL d          13.291  16.545  44.312  0.00  0.00    -0.400 OA
ATOM     67  H56 MOL d          13.426  16.806  43.408  0.00  0.00     0.209 HD
ENDBRANCH  63  66
ENDBRANCH   5  63
BRANCH   4  68
ATOM     68  OY4 MOL d          11.970  16.659  41.606  0.00  0.00    -0.350 OA
BRANCH  68  69
ATOM     69  CQ1 MOL d          12.803  17.697  41.141  0.00  0.00     0.159 C 
ATOM     70  CQ2 MOL d          12.525  17.957  39.644  0.00  0.00     0.110 C 
ATOM     71  CQ3 MOL d          13.115  16.845  38.725  0.00  0.00     0.092 C 
ATOM     72  H25 MOL d          12.977  18.921  39.366  0.00  0.00     0.094 H 
ATOM     73  CQ4 MOL d          14.623  16.742  38.968  0.00  0.00     0.096 C 
ATOM     74  H26 MOL d          12.643  15.878  38.953  0.00  0.00     0.091 H 
ATOM     75  CQ5 MOL d          14.775  16.318  40.492  0.00  0.00     0.089 C 
ATOM     76  H27 MOL d          15.117  17.706  38.778  0.00  0.00     0.091 H 
ATOM     77  OQ5 MOL d          14.193  17.333  41.346  0.00  0.00    -0.348 OA
ATOM     78  H28 MOL d          14.246  15.365  40.639  0.00  0.00     0.090 H 
ATOM     79  H24 MOL d          12.587  18.614  41.709  0.00  0.00     0.133 H 
BRANCH  70  80
ATOM     80  OQ2 MOL d          11.126  18.018  39.433  0.00  0.00    -0.388 OA
ATOM     81  H31 MOL d          10.784  17.137  39.334  0.00  0.00     0.210 HD
ENDBRANCH  70  80
BRANCH  71  82
ATOM     82  OQ3 MOL d          12.829  17.214  37.375  0.00  0.00    -0.390 OA
ATOM     83  H32 MOL d          12.339  16.517  36.954  0.00  0.00     0.210 HD
ENDBRANCH  71  82
BRANCH  73  84
ATOM     84  OQ4 MOL d          15.173  15.752  38.146  0.00  0.00    -0.348 OA
BRANCH  84  85
ATOM     85  CW1 MOL d          14.571  14.475  38.409  0.00  0.00     0.159 C 
ATOM     86  CW2 MOL d          15.587  13.309  38.359  0.00  0.00     0.110 C 
ATOM     87  CW3 MOL d          16.150  13.193  36.917  0.00  0.00     0.092 C 
ATOM     88  H35 MOL d          15.090  12.366  38.631  0.00  0.00     0.094 H 
ATOM     89  CW4 MOL d          14.965  12.892  35.983  0.00  0.00     0.090 C 
ATOM     90  H36 MOL d          16.644  14.130  36.621  0.00  0.00     0.091 H 
ATOM     91  CW5 MOL d          13.942  14.092  36.063  0.00  0.00     0.089 C 
ATOM     92  H37 MOL d          14.473  11.959  36.292  0.00  0.00     0.091 H 
ATOM     93  OW5 MOL d          13.492  14.222  37.439  0.00  0.00    -0.348 OA
ATOM     94  H38 MOL d          14.440  15.020  35.744  0.00  0.00     0.090 H 
ATOM     95  H34 MOL d          14.136  14.505  39.419  0.00  0.00     0.133 H 
BRANCH  86  96
ATOM     96  OW2 MOL d          16.609  13.584  39.288  0.00  0.00    -0.388 OA
ATOM     97  H41 MOL d          16.249  14.075  40.017  0.00  0.00     0.210 HD
ENDBRANCH  86  96
BRANCH  87  98
ATOM     98  OW3 MOL d          17.067  12.125  36.867  0.00  0.00    -0.390 OA
ATOM     99  H42 MOL d          17.519  12.058  37.700  0.00  0.00     0.210 HD
ENDBRANCH  87  98
BRANCH  89 100
ATOM    100  OW4 MOL d          15.436  12.769  34.651  0.00  0.00    -0.390 OA
ATOM    101  H43 MOL d          15.646  11.859  34.474  0.00  0.00     0.210 HD
ENDBRANCH  89 100
BRANCH  91 102
ATOM    102  CW6 MOL d          12.721  13.831  35.159  0.00  0.00     0.043 C 
ATOM    103  H39 MOL d          12.535  12.748  35.116  0.00  0.00     0.078 H 
ATOM    104  H40 MOL d          12.939  14.207  34.148  0.00  0.00     0.078 H 
BRANCH 102 105
ATOM    105  OW6 MOL d          11.570  14.470  35.642  0.00  0.00    -0.398 OA
ATOM    106  H44 MOL d          10.859  13.843  35.694  0.00  0.00     0.209 HD
ENDBRANCH 102 105
ENDBRANCH  91 102
ENDBRANCH  84  85
ENDBRANCH  73  84
BRANCH  75 107
ATOM    107  CQ6 MOL d          16.224  16.150  40.936  0.00  0.00     0.043 C 
ATOM    108  H29 MOL d          16.526  17.031  41.523  0.00  0.00     0.078 H 
ATOM    109  H30 MOL d          16.866  16.066  40.047  0.00  0.00     0.078 H 
BRANCH 107 110
ATOM    110  OQ6 MOL d          16.374  14.993  41.727  0.00  0.00    -0.398 OA
ATOM    111  H33 MOL d          16.282  15.223  42.644  0.00  0.00     0.209 HD
ENDBRANCH 107 110
ENDBRANCH  75 107
ENDBRANCH  68  69
ENDBRANCH   4  68
TORSDOF 29
ENDMDL
MODEL 6
REMARK VINA RESULT:      -5.9      2.047      4.202
REMARK  29 active torsions:
REMARK  status: ('A' for Active; 'I' for Inactive)
REMARK    1  A    between atoms: CR1_1  and  OR1_7 
REMARK    2  A    between atoms: CR2_2  and  OR2_8 
REMARK    3  A    between atoms: CR3_3  and  OR3_9 
REMARK    4  A    between atoms: OR4_10  and  CR4_4 
REMARK    5  A    between atoms: CR5_5  and  CR6_6 
REMARK    6  A    between atoms: CR6_6  and  OR6_12 
REMARK    7  A    between atoms: CV1_13  and  OR4_10 
REMARK    8  A    between atoms: CV2_14  and  OV2_19 
REMARK    9  A    between atoms: CV3_15  and  OV3_20 
REMARK   10  A    between atoms: NV4_21  and  CV4_16 
REMARK   11  A    between atoms: CV5_17  and  CV6_18 
REMARK   12  A    between atoms: CY1_45  and  NV4_21 
REMARK   13  A    between atoms: OY4_51  and  CQ1_23 
REMARK   14  A    between atoms: CQ2_24  and  OQ2_29 
REMARK   15  A    between atoms: CQ3_25  and  OQ3_30 
REMARK   16  A    between atoms: CQ4_26  and  OQ4_31 
REMARK   17  A    between atoms: CQ5_27  and  CQ6_28 
REMARK   18  A    between atoms: CQ6_28  and  OQ6_33 
REMARK   19  A    between atoms: OQ4_31  and  CW1_34 
REMARK   20  A    between atoms: CW2_35  and  OW2_40 
REMARK   21  A    between atoms: CW3_36  and  OW3_41 
REMARK   22  A    between atoms: CW4_37  and  OW4_42 
REMARK   23  A    between atoms: CW5_38  and  CW6_39 
REMARK   24  A    between atoms: CW6_39  and  OW6_44 
REMARK   25  A    between atoms: CY2_46  and  OY2_47 
REMARK   26  A    between atoms: CY3_48  and  OY3_49 
REMARK   27  A    between atoms: CY4_50  and  OY4_51 
REMARK   28  A    between atoms: CY5_52  and  CY7_54 
REMARK   29  A    between atoms: CY7_54  and  OY7_55 
ROOT
ATOM      1  CY1 MOL d           6.985  15.102  42.691  0.00  0.00     0.130 C 
ATOM      2  CY2 MOL d           7.928  15.558  43.872  0.00  0.00     0.090 C 
ATOM      3  CY3 MOL d           8.935  16.679  43.354  0.00  0.00     0.087 C 
ATOM      4  CY4 MOL d           9.802  16.159  42.100  0.00  0.00     0.074 C 
ATOM      5  CY5 MOL d           8.971  15.344  41.108  0.00  0.00    -0.004 C 
ATOM      6  CY6 MOL d           8.001  14.558  41.622  0.00  0.00    -0.028 C 
ATOM      7  H45 MOL d           6.324  14.282  43.009  0.00  0.00     0.088 H 
ATOM      8  H46 MOL d           8.509  14.688  44.212  0.00  0.00     0.090 H 
ATOM      9  H48 MOL d           8.338  17.541  43.022  0.00  0.00     0.091 H 
ATOM     10  H50 MOL d          10.644  15.556  42.470  0.00  0.00     0.088 H 
ATOM     11  H51 MOL d           8.449  16.094  40.495  0.00  0.00     0.047 H 
ATOM     12  H52 MOL d           7.399  14.210  40.769  0.00  0.00     0.036 H 
ATOM     13  H53 MOL d           8.510  13.700  42.085  0.00  0.00     0.036 H 
ENDROOT
BRANCH   1  14
ATOM     14  NV4 MOL d           6.103  16.291  42.279  0.00  0.00    -0.059 N 
ATOM     15  H22 MOL d           5.754  16.700  43.132  0.00  0.00     0.278 HD
ATOM     16  H23 MOL d           6.706  16.950  41.813  0.00  0.00     0.278 HD
BRANCH  14  17
ATOM     17  CV4 MOL d           4.931  16.093  41.397  0.00  0.00     0.153 C 
ATOM     18  CV3 MOL d           5.384  16.093  39.919  0.00  0.00     0.094 C 
ATOM     19  CV2 MOL d           4.161  15.894  39.029  0.00  0.00     0.110 C 
ATOM     20  H14 MOL d           6.107  15.280  39.755  0.00  0.00     0.090 H 
ATOM     21  CV1 MOL d           3.424  14.597  39.346  0.00  0.00     0.159 C 
ATOM     22  H13 MOL d           3.475  16.734  39.212  0.00  0.00     0.094 H 
ATOM     23  OV5 MOL d           3.109  14.551  40.763  0.00  0.00    -0.351 OA
ATOM     24  H12 MOL d           2.482  14.606  38.779  0.00  0.00     0.133 H 
ATOM     25  CV5 MOL d           4.261  14.700  41.673  0.00  0.00     0.068 C 
ATOM     26  H16 MOL d           4.989  13.898  41.480  0.00  0.00     0.086 H 
ATOM     27  H15 MOL d           4.204  16.900  41.569  0.00  0.00     0.092 H 
BRANCH  18  28
ATOM     28  OV3 MOL d           5.974  17.327  39.584  0.00  0.00    -0.391 OA
ATOM     29  H21 MOL d           6.639  17.543  40.227  0.00  0.00     0.210 HD
ENDBRANCH  18  28
BRANCH  19  30
ATOM     30  OV2 MOL d           4.502  15.891  37.661  0.00  0.00    -0.388 OA
ATOM     31  H20 MOL d           4.377  16.762  37.303  0.00  0.00     0.210 HD
ENDBRANCH  19  30
BRANCH  21  32
ATOM     32  OR4 MOL d           4.115  13.446  38.989  0.00  0.00    -0.348 OA
BRANCH  32  33
ATOM     33  CR4 MOL d           4.469  13.365  37.610  0.00  0.00     0.096 C 
ATOM     34  CR3 MOL d           5.921  12.833  37.499  0.00  0.00     0.092 C 
ATOM     35  CR2 MOL d           6.297  12.738  36.016  0.00  0.00     0.110 C 
ATOM     36  H3  MOL d           5.993  11.844  37.975  0.00  0.00     0.091 H 
ATOM     37  CR1 MOL d           5.324  11.769  35.289  0.00  0.00     0.156 C 
ATOM     38  H2  MOL d           6.227  13.736  35.562  0.00  0.00     0.094 H 
ATOM     39  OR5 MOL d           3.927  12.242  35.457  0.00  0.00    -0.349 OA
ATOM     40  H1  MOL d           5.571  11.773  34.217  0.00  0.00     0.133 H 
ATOM     41  CR5 MOL d           3.493  12.345  36.855  0.00  0.00     0.089 C 
ATOM     42  H5  MOL d           3.566  11.358  37.336  0.00  0.00     0.090 H 
ATOM     43  H4  MOL d           4.396  14.360  37.148  0.00  0.00     0.091 H 
BRANCH  34  44
ATOM     44  OR3 MOL d           6.815  13.730  38.119  0.00  0.00    -0.390 OA
ATOM     45  H10 MOL d           7.708  13.476  37.918  0.00  0.00     0.210 HD
ENDBRANCH  34  44
BRANCH  35  46
ATOM     46  OR2 MOL d           7.612  12.249  35.869  0.00  0.00    -0.388 OA
ATOM     47  H9  MOL d           8.128  12.875  35.375  0.00  0.00     0.210 HD
ENDBRANCH  35  46
BRANCH  37  48
ATOM     48  OR1 MOL d           5.440  10.439  35.767  0.00  0.00    -0.369 OA
ATOM     49  H8  MOL d           4.808  10.296  36.461  0.00  0.00     0.212 HD
ENDBRANCH  37  48
BRANCH  41  50
ATOM     50  CR6 MOL d           2.127  12.780  36.899  0.00  0.00     0.043 C 
ATOM     51  H6  MOL d           1.737  12.616  37.915  0.00  0.00     0.078 H 
ATOM     52  H7  MOL d           1.544  12.184  36.182  0.00  0.00     0.078 H 
BRANCH  50  53
ATOM     53  OR6 MOL d           1.981  14.157  36.573  0.00  0.00    -0.398 OA
ATOM     54  H11 MOL d           2.648  14.661  37.023  0.00  0.00     0.209 HD
ENDBRANCH  50  53
ENDBRANCH  41  50
ENDBRANCH  32  33
ENDBRANCH  21  32
BRANCH  25  55
ATOM     55  CV6 MOL d           3.795  14.614  43.118  0.00  0.00    -0.050 C 
ATOM     56  H17 MOL d           2.720  14.846  43.171  0.00  0.00     0.031 H 
ATOM     57  H18 MOL d           4.356  15.337  43.728  0.00  0.00     0.031 H 
ATOM     58  H19 MOL d           3.969  13.598  43.500  0.00  0.00     0.031 H 
ENDBRANCH  25  55
ENDBRANCH  14  17
ENDBRANCH   1  14
BRANCH   2  59
ATOM     59  OY2 MOL d           7.192  16.044  44.946  0.00  0.00    -0.391 OA
ATOM     60  H47 MOL d           7.178  15.395  45.639  0.00  0.00     0.210 HD
ENDBRANCH   2  59
BRANCH   3  61
ATOM     61  OY3 MOL d           9.784  17.106  44.385  0.00  0.00    -0.390 OA
ATOM     62  H49 MOL d           9.291  17.166  45.195  0.00  0.00     0.210 HD
ENDBRANCH   3  61
BRANCH   5  63
ATOM     63  CY7 MOL d           9.840  14.507  40.131  0.00  0.00     0.022 C 
ATOM     64  H54 MOL d           9.891  15.021  39.160  0.00  0.00     0.074 H 
ATOM     65  H55 MOL d           9.383  13.515  39.997  0.00  0.00     0.074 H 
BRANCH  63  66
ATOM     66  OY7 MOL d          11.178  14.349  40.658  0.00  0.00    -0.400 OA
ATOM     67  H56 MOL d          11.803  14.360  39.942  0.00  0.00     0.209 HD
ENDBRANCH  63  66
ENDBRANCH   5  63
BRANCH   4  68
ATOM     68  OY4 MOL d          10.272  17.275  41.353  0.00  0.00    -0.350 OA
BRANCH  68  69
ATOM     69  CQ1 MOL d          11.296  18.023  41.968  0.00  0.00     0.159 C 
ATOM     70  CQ2 MOL d          11.984  18.926  40.920  0.00  0.00     0.110 C 
ATOM     71  CQ3 MOL d          12.916  18.124  39.962  0.00  0.00     0.092 C 
ATOM     72  H25 MOL d          12.585  19.680  41.448  0.00  0.00     0.094 H 
ATOM     73  CQ4 MOL d          13.970  17.385  40.790  0.00  0.00     0.096 C 
ATOM     74  H26 MOL d          12.328  17.393  39.387  0.00  0.00     0.091 H 
ATOM     75  CQ5 MOL d          13.152  16.381  41.711  0.00  0.00     0.089 C 
ATOM     76  H27 MOL d          14.554  18.090  41.400  0.00  0.00     0.091 H 
ATOM     77  OQ5 MOL d          12.258  17.123  42.576  0.00  0.00    -0.348 OA
ATOM     78  H28 MOL d          12.568  15.714  41.059  0.00  0.00     0.090 H 
ATOM     79  H24 MOL d          10.856  18.657  42.752  0.00  0.00     0.133 H 
BRANCH  70  80
ATOM     80  OQ2 MOL d          10.994  19.576  40.143  0.00  0.00    -0.388 OA
ATOM     81  H31 MOL d          11.054  19.278  39.243  0.00  0.00     0.210 HD
ENDBRANCH  70  80
BRANCH  71  82
ATOM     82  OQ3 MOL d          13.519  19.064  39.070  0.00  0.00    -0.390 OA
ATOM     83  H32 MOL d          12.956  19.825  38.986  0.00  0.00     0.210 HD
ENDBRANCH  71  82
BRANCH  73  84
ATOM     84  OQ4 MOL d          14.822  16.664  39.946  0.00  0.00    -0.348 OA
BRANCH  84  85
ATOM     85  CW1 MOL d          14.272  15.372  39.644  0.00  0.00     0.159 C 
ATOM     86  CW2 MOL d          15.349  14.341  39.232  0.00  0.00     0.110 C 
ATOM     87  CW3 MOL d          16.013  14.807  37.910  0.00  0.00     0.092 C 
ATOM     88  H35 MOL d          14.885  13.355  39.077  0.00  0.00     0.094 H 
ATOM     89  CW4 MOL d          14.911  14.867  36.837  0.00  0.00     0.090 C 
ATOM     90  H36 MOL d          16.475  15.797  38.040  0.00  0.00     0.091 H 
ATOM     91  CW5 MOL d          13.824  15.918  37.289  0.00  0.00     0.089 C 
ATOM     92  H37 MOL d          14.449  13.876  36.720  0.00  0.00     0.091 H 
ATOM     93  OW5 MOL d          13.275  15.492  38.567  0.00  0.00    -0.348 OA
ATOM     94  H38 MOL d          14.292  16.907  37.396  0.00  0.00     0.090 H 
ATOM     95  H34 MOL d          13.769  14.997  40.549  0.00  0.00     0.133 H 
BRANCH  86  96
ATOM     96  OW2 MOL d          16.290  14.256  40.276  0.00  0.00    -0.388 OA
ATOM     97  H41 MOL d          17.067  13.806  39.966  0.00  0.00     0.210 HD
ENDBRANCH  86  96
BRANCH  87  98
ATOM     98  OW3 MOL d          16.986  13.864  37.527  0.00  0.00    -0.390 OA
ATOM     99  H42 MOL d          17.631  14.284  36.970  0.00  0.00     0.210 HD
ENDBRANCH  87  98
BRANCH  89 100
ATOM    100  OW4 MOL d          15.476  15.282  35.604  0.00  0.00    -0.390 OA
ATOM    101  H43 MOL d          16.170  15.909  35.771  0.00  0.00     0.210 HD
ENDBRANCH  89 100
BRANCH  91 102
ATOM    102  CW6 MOL d          12.681  16.002  36.257  0.00  0.00     0.043 C 
ATOM    103  H39 MOL d          11.792  16.427  36.745  0.00  0.00     0.078 H 
ATOM    104  H40 MOL d          12.452  14.988  35.897  0.00  0.00     0.078 H 
BRANCH 102 105
ATOM    105  OW6 MOL d          13.026  16.806  35.162  0.00  0.00    -0.398 OA
ATOM    106  H44 MOL d          12.437  17.550  35.119  0.00  0.00     0.209 HD
ENDBRANCH 102 105
ENDBRANCH  91 102
ENDBRANCH  84  85
ENDBRANCH  73  84
BRANCH  75 107
ATOM    107  CQ6 MOL d          14.035  15.531  42.619  0.00  0.00     0.043 C 
ATOM    108  H29 MOL d          14.828  16.163  43.046  0.00  0.00     0.078 H 
ATOM    109  H30 MOL d          14.490  14.724  42.026  0.00  0.00     0.078 H 
BRANCH 107 110
ATOM    110  OQ6 MOL d          13.279  14.966  43.666  0.00  0.00    -0.398 OA
ATOM    111  H33 MOL d          12.432  14.694  43.332  0.00  0.00     0.209 HD
ENDBRANCH 107 110
ENDBRANCH  75 107
ENDBRANCH  68  69
ENDBRANCH   4  68
TORSDOF 29
ENDMDL
