MODEL 1
REMARK VINA RESULT:      -8.6      0.000      0.000
REMARK  17 active torsions:
REMARK  status: ('A' for Active; 'I' for Inactive)
REMARK    1  A    between atoms: C24_4  and  C22_7 
REMARK    2  A    between atoms: C22_7  and  O23_8 
REMARK    3  A    between atoms: O23_8  and  C21_9 
REMARK       I    between atoms: C21_9  and  N20_11 
REMARK    4  A    between atoms: N20_11  and  C19_12 
REMARK    5  A    between atoms: C19_12  and  C32_13 
REMARK    6  A    between atoms: C19_12  and  C17_20 
REMARK    7  A    between atoms: C32_13  and  C38_14 
REMARK    8  A    between atoms: C17_20  and  O18_21 
REMARK    9  A    between atoms: C17_20  and  C16_22 
REMARK   10  A    between atoms: C16_22  and  N11_23 
REMARK   11  A    between atoms: N11_23  and  C12_24 
REMARK   12  A    between atoms: N11_23  and  S8_29 
REMARK   13  A    between atoms: C12_24  and  C13_25 
REMARK   14  A    between atoms: C13_25  and  C14_26 
REMARK   15  A    between atoms: C13_25  and  C15_27 
REMARK   16  A    between atoms: C15_27  and  C18_28 
REMARK   17  A    between atoms: S8_29  and  C5_32 
ROOT
ATOM      1  C17 MOL d          18.997  31.274  15.535  0.00  0.00     0.067 C 
ATOM      2  H18 MOL d          19.467  30.422  15.023  0.00  0.00     0.088 H 
ENDROOT
BRANCH   1   3
ATOM      3  C19 MOL d          17.713  31.623  14.779  0.00  0.00     0.044 C 
ATOM      4  H10 MOL d          17.843  32.624  14.342  0.00  0.00     0.077 H 
BRANCH   3   5
ATOM      5  N20 MOL d          17.505  30.665  13.705  0.00  0.00    -0.329 N 
ATOM      6  C21 MOL d          18.164  30.633  12.551  0.00  0.00     0.361 C 
ATOM      7  O22 MOL d          19.087  31.366  12.234  0.00  0.00    -0.239 OA
ATOM      8  H9  MOL d          16.803  29.967  13.848  0.00  0.00     0.165 HD
BRANCH   6   9
ATOM      9  O23 MOL d          17.698  29.652  11.586  0.00  0.00    -0.302 OA
BRANCH   9  10
ATOM     10  C22 MOL d          17.538  28.288  11.980  0.00  0.00     0.049 C 
ATOM     11  H7  MOL d          17.903  28.144  13.008  0.00  0.00     0.078 H 
ATOM     12  H8  MOL d          16.479  27.998  11.922  0.00  0.00     0.078 H 
BRANCH  10  13
ATOM     13  C24 MOL d          18.363  27.461  11.009  0.00  0.00     0.034 C 
ATOM     14  N29 MOL d          18.362  26.084  11.424  0.00  0.00    -0.354 N 
ATOM     15  C27 MOL d          17.688  25.280  10.620  0.00  0.00     0.218 C 
ATOM     16  H1  MOL d          18.829  25.763  12.249  0.00  0.00     0.162 HD
ATOM     17  O28 MOL d          17.536  24.091  10.776  0.00  0.00    -0.274 OA
ATOM     18  C26 MOL d          17.141  26.039   9.439  0.00  0.00     0.011 C 
ATOM     19  C25 MOL d          17.758  27.418   9.605  0.00  0.00    -0.036 C 
ATOM     20  H5  MOL d          16.042  26.090   9.475  0.00  0.00     0.047 H 
ATOM     21  H6  MOL d          17.454  25.577   8.491  0.00  0.00     0.047 H 
ATOM     22  H3  MOL d          18.542  27.577   8.850  0.00  0.00     0.036 H 
ATOM     23  H4  MOL d          16.986  28.195   9.501  0.00  0.00     0.036 H 
ATOM     24  H2  MOL d          19.386  27.860  10.973  0.00  0.00     0.075 H 
ENDBRANCH  10  13
ENDBRANCH   9  10
ENDBRANCH   6   9
ENDBRANCH   3   5
BRANCH   3  25
ATOM     25  C32 MOL d          16.454  31.650  15.651  0.00  0.00    -0.020 C 
ATOM     26  H11 MOL d          16.637  31.062  16.563  0.00  0.00     0.043 H 
ATOM     27  H12 MOL d          15.619  31.206  15.090  0.00  0.00     0.043 H 
BRANCH  25  28
ATOM     28  C38 MOL d          16.084  33.072  16.046  0.00  0.00    -0.056 A 
ATOM     29  C37 MOL d          15.314  33.291  17.182  0.00  0.00    -0.077 A 
ATOM     30  C36 MOL d          14.972  34.588  17.558  0.00  0.00    -0.082 A 
ATOM     31  H13 MOL d          14.979  32.449  17.777  0.00  0.00     0.084 H 
ATOM     32  C35 MOL d          15.404  35.672  16.803  0.00  0.00    -0.083 A 
ATOM     33  H14 MOL d          14.367  34.753  18.442  0.00  0.00     0.083 H 
ATOM     34  C34 MOL d          16.176  35.456  15.668  0.00  0.00    -0.082 A 
ATOM     35  H15 MOL d          15.140  36.682  17.098  0.00  0.00     0.083 H 
ATOM     36  C33 MOL d          16.519  34.158  15.299  0.00  0.00    -0.077 A 
ATOM     37  H16 MOL d          16.512  36.296  15.071  0.00  0.00     0.083 H 
ATOM     38  H17 MOL d          17.132  33.993  14.420  0.00  0.00     0.084 H 
ENDBRANCH  25  28
ENDBRANCH   3  25
ENDBRANCH   1   3
BRANCH   1  39
ATOM     39  O18 MOL d          18.687  30.892  16.879  0.00  0.00    -0.392 OA
ATOM     40  H19 MOL d          18.887  29.972  16.999  0.00  0.00     0.210 HD
ENDBRANCH   1  39
BRANCH   1  41
ATOM     41  C16 MOL d          20.013  32.424  15.583  0.00  0.00     0.019 C 
ATOM     42  H20 MOL d          19.783  33.086  16.430  0.00  0.00     0.061 H 
ATOM     43  H21 MOL d          19.966  32.998  14.646  0.00  0.00     0.061 H 
BRANCH  41  44
ATOM     44  N11 MOL d          21.376  31.853  15.750  0.00  0.00    -0.204 NA
BRANCH  44  45
ATOM     45  C12 MOL d          22.129  32.521  16.838  0.00  0.00    -0.004 C 
ATOM     46  H22 MOL d          23.196  32.537  16.574  0.00  0.00     0.058 H 
ATOM     47  H23 MOL d          21.990  31.950  17.768  0.00  0.00     0.058 H 
BRANCH  45  48
ATOM     48  C13 MOL d          21.649  33.965  17.063  0.00  0.00    -0.046 C 
ATOM     49  H24 MOL d          20.615  34.034  16.693  0.00  0.00     0.041 H 
BRANCH  48  50
ATOM     50  C14 MOL d          21.640  34.404  18.528  0.00  0.00    -0.072 C 
ATOM     51  H25 MOL d          22.003  35.439  18.602  0.00  0.00     0.028 H 
ATOM     52  H26 MOL d          22.296  33.742  19.112  0.00  0.00     0.028 H 
ATOM     53  H27 MOL d          20.614  34.345  18.922  0.00  0.00     0.028 H 
ENDBRANCH  48  50
BRANCH  48  54
ATOM     54  C15 MOL d          22.523  34.914  16.235  0.00  0.00    -0.064 C 
ATOM     55  H28 MOL d          22.117  34.960  15.214  0.00  0.00     0.033 H 
ATOM     56  H29 MOL d          23.545  34.508  16.206  0.00  0.00     0.033 H 
BRANCH  54  57
ATOM     57  C18 MOL d          22.586  36.329  16.791  0.00  0.00    -0.076 C 
ATOM     58  H30 MOL d          22.930  36.297  17.835  0.00  0.00     0.027 H 
ATOM     59  H31 MOL d          21.585  36.784  16.749  0.00  0.00     0.027 H 
ATOM     60  H32 MOL d          23.287  36.928  16.191  0.00  0.00     0.027 H 
ENDBRANCH  54  57
ENDBRANCH  48  54
ENDBRANCH  45  48
ENDBRANCH  44  45
BRANCH  44  61
ATOM     61  S8  MOL d          22.224  31.694  14.369  0.00  0.00     0.243 S 
ATOM     62  O10 MOL d          23.598  31.936  14.688  0.00  0.00    -0.206 OA
ATOM     63  O9  MOL d          21.650  32.644  13.445  0.00  0.00    -0.206 OA
BRANCH  61  64
ATOM     64  C5  MOL d          22.043  30.190  13.728  0.00  0.00     0.076 A 
ATOM     65  C6  MOL d          21.115  29.332  14.322  0.00  0.00    -0.059 A 
ATOM     66  C7  MOL d          20.861  28.064  13.801  0.00  0.00    -0.052 A 
ATOM     67  H33 MOL d          20.581  29.659  15.207  0.00  0.00     0.086 H 
ATOM     68  C2  MOL d          21.534  27.609  12.686  0.00  0.00     0.074 A 
ATOM     69  H34 MOL d          20.124  27.428  14.278  0.00  0.00     0.087 H 
ATOM     70  C3  MOL d          22.482  28.433  12.075  0.00  0.00     0.036 A 
ATOM     71  N1  MOL d          21.440  26.425  12.037  0.00  0.00    -0.253 NA
ATOM     72  C4  MOL d          22.726  29.714  12.598  0.00  0.00    -0.042 A 
ATOM     73  S1  MOL d          23.256  27.754  10.707  0.00  0.00    -0.081 SA
ATOM     74  H35 MOL d          23.461  30.350  12.118  0.00  0.00     0.088 H 
ATOM     75  C1  MOL d          22.273  26.349  10.987  0.00  0.00     0.041 A 
ATOM     76  H36 MOL d          22.330  25.465  10.352  0.00  0.00     0.126 H 
ENDBRANCH  61  64
ENDBRANCH  44  61
ENDBRANCH  41  44
ENDBRANCH   1  41
TORSDOF 17
ENDMDL
MODEL 2
REMARK VINA RESULT:      -8.5      2.726      6.947
REMARK  17 active torsions:
REMARK  status: ('A' for Active; 'I' for Inactive)
REMARK    1  A    between atoms: C24_4  and  C22_7 
REMARK    2  A    between atoms: C22_7  and  O23_8 
REMARK    3  A    between atoms: O23_8  and  C21_9 
REMARK       I    between atoms: C21_9  and  N20_11 
REMARK    4  A    between atoms: N20_11  and  C19_12 
REMARK    5  A    between atoms: C19_12  and  C32_13 
REMARK    6  A    between atoms: C19_12  and  C17_20 
REMARK    7  A    between atoms: C32_13  and  C38_14 
REMARK    8  A    between atoms: C17_20  and  O18_21 
REMARK    9  A    between atoms: C17_20  and  C16_22 
REMARK   10  A    between atoms: C16_22  and  N11_23 
REMARK   11  A    between atoms: N11_23  and  C12_24 
REMARK   12  A    between atoms: N11_23  and  S8_29 
REMARK   13  A    between atoms: C12_24  and  C13_25 
REMARK   14  A    between atoms: C13_25  and  C14_26 
REMARK   15  A    between atoms: C13_25  and  C15_27 
REMARK   16  A    between atoms: C15_27  and  C18_28 
REMARK   17  A    between atoms: S8_29  and  C5_32 
ROOT
ATOM      1  C17 MOL d          20.095  29.340  15.121  0.00  0.00     0.067 C 
ATOM      2  H18 MOL d          21.131  29.690  15.008  0.00  0.00     0.088 H 
ENDROOT
BRANCH   1   3
ATOM      3  C19 MOL d          19.575  28.964  13.732  0.00  0.00     0.044 C 
ATOM      4  H10 MOL d          19.291  29.894  13.218  0.00  0.00     0.077 H 
BRANCH   3   5
ATOM      5  N20 MOL d          20.632  28.313  12.976  0.00  0.00    -0.329 N 
ATOM      6  C21 MOL d          21.378  28.879  12.033  0.00  0.00     0.361 C 
ATOM      7  O22 MOL d          21.333  30.050  11.692  0.00  0.00    -0.239 OA
ATOM      8  H9  MOL d          20.815  27.352  13.185  0.00  0.00     0.165 HD
BRANCH   6   9
ATOM      9  O23 MOL d          22.293  27.992  11.336  0.00  0.00    -0.302 OA
BRANCH   9  10
ATOM     10  C22 MOL d          22.332  26.604  11.673  0.00  0.00     0.049 C 
ATOM     11  H7  MOL d          22.229  26.473  12.760  0.00  0.00     0.078 H 
ATOM     12  H8  MOL d          21.522  26.066  11.159  0.00  0.00     0.078 H 
BRANCH  10  13
ATOM     13  C24 MOL d          23.682  26.086  11.208  0.00  0.00     0.034 C 
ATOM     14  N29 MOL d          23.544  24.739  10.723  0.00  0.00    -0.354 N 
ATOM     15  C27 MOL d          23.708  24.618   9.417  0.00  0.00     0.218 C 
ATOM     16  H1  MOL d          23.341  23.964  11.320  0.00  0.00     0.162 HD
ATOM     17  O28 MOL d          23.620  23.591   8.787  0.00  0.00    -0.274 OA
ATOM     18  C26 MOL d          24.053  25.948   8.795  0.00  0.00     0.011 C 
ATOM     19  C25 MOL d          24.228  26.853  10.003  0.00  0.00    -0.036 C 
ATOM     20  H5  MOL d          23.239  26.305   8.147  0.00  0.00     0.047 H 
ATOM     21  H6  MOL d          24.983  25.882   8.211  0.00  0.00     0.047 H 
ATOM     22  H3  MOL d          25.293  27.086  10.152  0.00  0.00     0.036 H 
ATOM     23  H4  MOL d          23.665  27.788   9.862  0.00  0.00     0.036 H 
ATOM     24  H2  MOL d          24.394  26.132  12.045  0.00  0.00     0.075 H 
ENDBRANCH  10  13
ENDBRANCH   9  10
ENDBRANCH   6   9
ENDBRANCH   3   5
BRANCH   3  25
ATOM     25  C32 MOL d          18.352  28.041  13.744  0.00  0.00    -0.020 C 
ATOM     26  H11 MOL d          17.512  28.567  14.222  0.00  0.00     0.043 H 
ATOM     27  H12 MOL d          18.592  27.136  14.319  0.00  0.00     0.043 H 
BRANCH  25  28
ATOM     28  C38 MOL d          17.947  27.640  12.334  0.00  0.00    -0.056 A 
ATOM     29  C37 MOL d          17.548  28.617  11.430  0.00  0.00    -0.077 A 
ATOM     30  C36 MOL d          17.179  28.265  10.133  0.00  0.00    -0.082 A 
ATOM     31  H13 MOL d          17.524  29.657  11.735  0.00  0.00     0.084 H 
ATOM     32  C35 MOL d          17.214  26.934   9.733  0.00  0.00    -0.083 A 
ATOM     33  H14 MOL d          16.864  29.031   9.434  0.00  0.00     0.083 H 
ATOM     34  C34 MOL d          17.616  25.956  10.635  0.00  0.00    -0.082 A 
ATOM     35  H15 MOL d          16.930  26.661   8.723  0.00  0.00     0.083 H 
ATOM     36  C33 MOL d          17.987  26.314  11.928  0.00  0.00    -0.077 A 
ATOM     37  H16 MOL d          17.639  24.915  10.332  0.00  0.00     0.083 H 
ATOM     38  H17 MOL d          18.311  25.549  12.624  0.00  0.00     0.084 H 
ENDBRANCH  25  28
ENDBRANCH   3  25
ENDBRANCH   1   3
BRANCH   1  39
ATOM     39  O18 MOL d          20.086  28.192  15.976  0.00  0.00    -0.392 OA
ATOM     40  H19 MOL d          20.281  27.416  15.464  0.00  0.00     0.210 HD
ENDBRANCH   1  39
BRANCH   1  41
ATOM     41  C16 MOL d          19.285  30.453  15.801  0.00  0.00     0.019 C 
ATOM     42  H20 MOL d          19.574  30.528  16.859  0.00  0.00     0.061 H 
ATOM     43  H21 MOL d          18.212  30.225  15.730  0.00  0.00     0.061 H 
BRANCH  41  44
ATOM     44  N11 MOL d          19.568  31.740  15.113  0.00  0.00    -0.204 NA
BRANCH  44  45
ATOM     45  C12 MOL d          20.388  32.649  15.948  0.00  0.00    -0.004 C 
ATOM     46  H22 MOL d          20.309  32.334  16.999  0.00  0.00     0.058 H 
ATOM     47  H23 MOL d          20.003  33.674  15.842  0.00  0.00     0.058 H 
BRANCH  45  48
ATOM     48  C13 MOL d          21.869  32.628  15.531  0.00  0.00    -0.046 C 
ATOM     49  H24 MOL d          22.364  31.829  16.102  0.00  0.00     0.041 H 
BRANCH  48  50
ATOM     50  C14 MOL d          22.100  32.339  14.047  0.00  0.00    -0.072 C 
ATOM     51  H25 MOL d          21.372  32.903  13.446  0.00  0.00     0.028 H 
ATOM     52  H26 MOL d          21.975  31.262  13.859  0.00  0.00     0.028 H 
ATOM     53  H27 MOL d          23.120  32.644  13.769  0.00  0.00     0.028 H 
ENDBRANCH  48  50
BRANCH  48  54
ATOM     54  C15 MOL d          22.512  33.966  15.913  0.00  0.00    -0.064 C 
ATOM     55  H28 MOL d          23.329  34.173  15.206  0.00  0.00     0.033 H 
ATOM     56  H29 MOL d          22.920  33.878  16.930  0.00  0.00     0.033 H 
BRANCH  54  57
ATOM     57  C18 MOL d          21.545  35.139  15.884  0.00  0.00    -0.076 C 
ATOM     58  H30 MOL d          22.039  36.032  16.295  0.00  0.00     0.027 H 
ATOM     59  H31 MOL d          20.658  34.899  16.490  0.00  0.00     0.027 H 
ATOM     60  H32 MOL d          21.237  35.335  14.846  0.00  0.00     0.027 H 
ENDBRANCH  54  57
ENDBRANCH  48  54
ENDBRANCH  45  48
ENDBRANCH  44  45
BRANCH  44  61
ATOM     61  S8  MOL d          18.267  32.459  14.446  0.00  0.00     0.243 S 
ATOM     62  O10 MOL d          17.484  31.428  13.837  0.00  0.00    -0.206 OA
ATOM     63  O9  MOL d          18.790  33.437  13.521  0.00  0.00    -0.206 OA
BRANCH  61  64
ATOM     64  C5  MOL d          17.380  33.256  15.579  0.00  0.00     0.076 A 
ATOM     65  C6  MOL d          16.235  32.629  16.076  0.00  0.00    -0.059 A 
ATOM     66  C7  MOL d          15.465  33.213  17.080  0.00  0.00    -0.052 A 
ATOM     67  H33 MOL d          15.939  31.668  15.671  0.00  0.00     0.086 H 
ATOM     68  C2  MOL d          15.803  34.443  17.606  0.00  0.00     0.074 A 
ATOM     69  H34 MOL d          14.589  32.694  17.453  0.00  0.00     0.087 H 
ATOM     70  C3  MOL d          16.933  35.107  17.123  0.00  0.00     0.036 A 
ATOM     71  N1  MOL d          15.192  35.175  18.568  0.00  0.00    -0.253 NA
ATOM     72  C4  MOL d          17.710  34.509  16.118  0.00  0.00    -0.042 A 
ATOM     73  S1  MOL d          17.242  36.628  17.848  0.00  0.00    -0.081 SA
ATOM     74  H35 MOL d          18.587  35.029  15.748  0.00  0.00     0.088 H 
ATOM     75  C1  MOL d          15.822  36.337  18.804  0.00  0.00     0.041 A 
ATOM     76  H36 MOL d          15.466  37.050  19.547  0.00  0.00     0.126 H 
ENDBRANCH  61  64
ENDBRANCH  44  61
ENDBRANCH  41  44
ENDBRANCH   1  41
TORSDOF 17
ENDMDL
MODEL 3
REMARK VINA RESULT:      -8.4      2.488      6.995
REMARK  17 active torsions:
REMARK  status: ('A' for Active; 'I' for Inactive)
REMARK    1  A    between atoms: C24_4  and  C22_7 
REMARK    2  A    between atoms: C22_7  and  O23_8 
REMARK    3  A    between atoms: O23_8  and  C21_9 
REMARK       I    between atoms: C21_9  and  N20_11 
REMARK    4  A    between atoms: N20_11  and  C19_12 
REMARK    5  A    between atoms: C19_12  and  C32_13 
REMARK    6  A    between atoms: C19_12  and  C17_20 
REMARK    7  A    between atoms: C32_13  and  C38_14 
REMARK    8  A    between atoms: C17_20  and  O18_21 
REMARK    9  A    between atoms: C17_20  and  C16_22 
REMARK   10  A    between atoms: C16_22  and  N11_23 
REMARK   11  A    between atoms: N11_23  and  C12_24 
REMARK   12  A    between atoms: N11_23  and  S8_29 
REMARK   13  A    between atoms: C12_24  and  C13_25 
REMARK   14  A    between atoms: C13_25  and  C14_26 
REMARK   15  A    between atoms: C13_25  and  C15_27 
REMARK   16  A    between atoms: C15_27  and  C18_28 
REMARK   17  A    between atoms: S8_29  and  C5_32 
ROOT
ATOM      1  C17 MOL d          20.214  31.239  12.865  0.00  0.00     0.067 C 
ATOM      2  H18 MOL d          19.845  30.243  12.582  0.00  0.00     0.088 H 
ENDROOT
BRANCH   1   3
ATOM      3  C19 MOL d          21.563  31.056  13.565  0.00  0.00     0.044 C 
ATOM      4  H10 MOL d          21.363  30.731  14.596  0.00  0.00     0.077 H 
BRANCH   3   5
ATOM      5  N20 MOL d          22.327  30.022  12.885  0.00  0.00    -0.329 N 
ATOM      6  C21 MOL d          22.184  28.711  13.052  0.00  0.00     0.361 C 
ATOM      7  O22 MOL d          21.351  28.167  13.757  0.00  0.00    -0.239 OA
ATOM      8  H9  MOL d          23.023  30.325  12.234  0.00  0.00     0.165 HD
BRANCH   6   9
ATOM      9  O23 MOL d          23.144  27.879  12.348  0.00  0.00    -0.302 OA
BRANCH   9  10
ATOM     10  C22 MOL d          22.821  27.359  11.057  0.00  0.00     0.049 C 
ATOM     11  H7  MOL d          21.960  27.897  10.634  0.00  0.00     0.078 H 
ATOM     12  H8  MOL d          23.684  27.457  10.381  0.00  0.00     0.078 H 
BRANCH  10  13
ATOM     13  C24 MOL d          22.477  25.893  11.257  0.00  0.00     0.034 C 
ATOM     14  N29 MOL d          21.113  25.772  11.698  0.00  0.00    -0.354 N 
ATOM     15  C27 MOL d          20.304  25.232  10.803  0.00  0.00     0.218 C 
ATOM     16  H1  MOL d          20.804  26.071  12.601  0.00  0.00     0.162 HD
ATOM     17  O28 MOL d          19.117  25.048  10.943  0.00  0.00    -0.274 OA
ATOM     18  C26 MOL d          21.064  24.838   9.562  0.00  0.00     0.011 C 
ATOM     19  C25 MOL d          22.511  25.093   9.955  0.00  0.00    -0.036 C 
ATOM     20  H5  MOL d          20.772  25.461   8.704  0.00  0.00     0.047 H 
ATOM     21  H6  MOL d          20.902  23.778   9.318  0.00  0.00     0.047 H 
ATOM     22  H3  MOL d          23.036  24.139  10.109  0.00  0.00     0.036 H 
ATOM     23  H4  MOL d          23.021  25.670   9.169  0.00  0.00     0.036 H 
ATOM     24  H2  MOL d          23.168  25.457  11.992  0.00  0.00     0.075 H 
ENDBRANCH  10  13
ENDBRANCH   9  10
ENDBRANCH   6   9
ENDBRANCH   3   5
BRANCH   3  25
ATOM     25  C32 MOL d          22.419  32.325  13.629  0.00  0.00    -0.020 C 
ATOM     26  H11 MOL d          22.058  33.039  12.873  0.00  0.00     0.043 H 
ATOM     27  H12 MOL d          23.465  32.063  13.415  0.00  0.00     0.043 H 
BRANCH  25  28
ATOM     28  C38 MOL d          22.341  32.977  15.001  0.00  0.00    -0.056 A 
ATOM     29  C37 MOL d          22.218  32.180  16.133  0.00  0.00    -0.077 A 
ATOM     30  C36 MOL d          22.151  32.762  17.397  0.00  0.00    -0.082 A 
ATOM     31  H13 MOL d          22.175  31.101  16.031  0.00  0.00     0.084 H 
ATOM     32  C35 MOL d          22.214  34.143  17.535  0.00  0.00    -0.083 A 
ATOM     33  H14 MOL d          22.050  32.136  18.276  0.00  0.00     0.083 H 
ATOM     34  C34 MOL d          22.339  34.942  16.405  0.00  0.00    -0.082 A 
ATOM     35  H15 MOL d          22.164  34.596  18.519  0.00  0.00     0.083 H 
ATOM     36  C33 MOL d          22.410  34.355  15.144  0.00  0.00    -0.077 A 
ATOM     37  H16 MOL d          22.382  36.021  16.504  0.00  0.00     0.083 H 
ATOM     38  H17 MOL d          22.520  34.981  14.266  0.00  0.00     0.084 H 
ENDBRANCH  25  28
ENDBRANCH   3  25
ENDBRANCH   1   3
BRANCH   1  39
ATOM     39  O18 MOL d          20.378  32.025  11.681  0.00  0.00    -0.392 OA
ATOM     40  H19 MOL d          20.970  32.746  11.860  0.00  0.00     0.210 HD
ENDBRANCH   1  39
BRANCH   1  41
ATOM     41  C16 MOL d          19.151  31.911  13.746  0.00  0.00     0.019 C 
ATOM     42  H20 MOL d          18.553  32.607  13.139  0.00  0.00     0.061 H 
ATOM     43  H21 MOL d          19.642  32.465  14.560  0.00  0.00     0.061 H 
BRANCH  41  44
ATOM     44  N11 MOL d          18.268  30.860  14.318  0.00  0.00    -0.204 NA
BRANCH  44  45
ATOM     45  C12 MOL d          17.200  30.457  13.375  0.00  0.00    -0.004 C 
ATOM     46  H22 MOL d          16.954  31.312  12.728  0.00  0.00     0.058 H 
ATOM     47  H23 MOL d          16.309  30.164  13.950  0.00  0.00     0.058 H 
BRANCH  45  48
ATOM     48  C13 MOL d          17.634  29.274  12.491  0.00  0.00    -0.046 C 
ATOM     49  H24 MOL d          18.626  29.512  12.080  0.00  0.00     0.041 H 
BRANCH  48  50
ATOM     50  C14 MOL d          17.756  27.945  13.237  0.00  0.00    -0.072 C 
ATOM     51  H25 MOL d          16.760  27.489  13.339  0.00  0.00     0.028 H 
ATOM     52  H26 MOL d          18.182  28.122  14.235  0.00  0.00     0.028 H 
ATOM     53  H27 MOL d          18.413  27.267  12.673  0.00  0.00     0.028 H 
ENDBRANCH  48  50
BRANCH  48  54
ATOM     54  C15 MOL d          16.647  29.135  11.326  0.00  0.00    -0.064 C 
ATOM     55  H28 MOL d          16.530  30.119  10.850  0.00  0.00     0.033 H 
ATOM     56  H29 MOL d          15.678  28.805  11.730  0.00  0.00     0.033 H 
BRANCH  54  57
ATOM     57  C18 MOL d          17.089  28.139  10.266  0.00  0.00    -0.076 C 
ATOM     58  H30 MOL d          16.416  28.204   9.398  0.00  0.00     0.027 H 
ATOM     59  H31 MOL d          17.054  27.120  10.682  0.00  0.00     0.027 H 
ATOM     60  H32 MOL d          18.118  28.370   9.951  0.00  0.00     0.027 H 
ENDBRANCH  54  57
ENDBRANCH  48  54
ENDBRANCH  45  48
ENDBRANCH  44  45
BRANCH  44  61
ATOM     61  S8  MOL d          17.730  31.167  15.825  0.00  0.00     0.243 S 
ATOM     62  O10 MOL d          18.734  30.703  16.733  0.00  0.00    -0.206 OA
ATOM     63  O9  MOL d          16.463  30.482  15.935  0.00  0.00    -0.206 OA
BRANCH  61  64
ATOM     64  C5  MOL d          17.459  32.774  16.046  0.00  0.00     0.076 A 
ATOM     65  C6  MOL d          16.351  33.344  15.417  0.00  0.00    -0.059 A 
ATOM     66  C7  MOL d          16.020  34.686  15.604  0.00  0.00    -0.052 A 
ATOM     67  H33 MOL d          15.734  32.731  14.770  0.00  0.00     0.086 H 
ATOM     68  C2  MOL d          16.792  35.500  16.407  0.00  0.00     0.074 A 
ATOM     69  H34 MOL d          15.145  35.095  15.111  0.00  0.00     0.087 H 
ATOM     70  C3  MOL d          17.918  34.968  17.039  0.00  0.00     0.036 A 
ATOM     71  N1  MOL d          16.649  36.812  16.708  0.00  0.00    -0.253 NA
ATOM     72  C4  MOL d          18.240  33.613  16.855  0.00  0.00    -0.042 A 
ATOM     73  S1  MOL d          18.799  36.078  18.001  0.00  0.00    -0.081 SA
ATOM     74  H35 MOL d          19.114  33.206  17.351  0.00  0.00     0.088 H 
ATOM     75  C1  MOL d          17.615  37.258  17.526  0.00  0.00     0.041 A 
ATOM     76  H36 MOL d          17.655  38.291  17.870  0.00  0.00     0.126 H 
ENDBRANCH  61  64
ENDBRANCH  44  61
ENDBRANCH  41  44
ENDBRANCH   1  41
TORSDOF 17
ENDMDL
MODEL 4
REMARK VINA RESULT:      -8.4      2.391      6.678
REMARK  17 active torsions:
REMARK  status: ('A' for Active; 'I' for Inactive)
REMARK    1  A    between atoms: C24_4  and  C22_7 
REMARK    2  A    between atoms: C22_7  and  O23_8 
REMARK    3  A    between atoms: O23_8  and  C21_9 
REMARK       I    between atoms: C21_9  and  N20_11 
REMARK    4  A    between atoms: N20_11  and  C19_12 
REMARK    5  A    between atoms: C19_12  and  C32_13 
REMARK    6  A    between atoms: C19_12  and  C17_20 
REMARK    7  A    between atoms: C32_13  and  C38_14 
REMARK    8  A    between atoms: C17_20  and  O18_21 
REMARK    9  A    between atoms: C17_20  and  C16_22 
REMARK   10  A    between atoms: C16_22  and  N11_23 
REMARK   11  A    between atoms: N11_23  and  C12_24 
REMARK   12  A    between atoms: N11_23  and  S8_29 
REMARK   13  A    between atoms: C12_24  and  C13_25 
REMARK   14  A    between atoms: C13_25  and  C14_26 
REMARK   15  A    between atoms: C13_25  and  C15_27 
REMARK   16  A    between atoms: C15_27  and  C18_28 
REMARK   17  A    between atoms: S8_29  and  C5_32 
ROOT
ATOM      1  C17 MOL d          21.752  31.366  13.398  0.00  0.00     0.067 C 
ATOM      2  H18 MOL d          22.782  31.705  13.217  0.00  0.00     0.088 H 
ENDROOT
BRANCH   1   3
ATOM      3  C19 MOL d          21.139  32.279  14.463  0.00  0.00     0.044 C 
ATOM      4  H10 MOL d          21.125  33.302  14.058  0.00  0.00     0.077 H 
BRANCH   3   5
ATOM      5  N20 MOL d          19.772  31.862  14.732  0.00  0.00    -0.329 N 
ATOM      6  C21 MOL d          18.672  32.519  14.378  0.00  0.00     0.361 C 
ATOM      7  O22 MOL d          18.634  33.546  13.721  0.00  0.00    -0.239 OA
ATOM      8  H9  MOL d          19.649  31.003  15.229  0.00  0.00     0.165 HD
BRANCH   6   9
ATOM      9  O23 MOL d          17.422  31.962  14.863  0.00  0.00    -0.302 OA
BRANCH   9  10
ATOM     10  C22 MOL d          17.030  32.170  16.221  0.00  0.00     0.049 C 
ATOM     11  H7  MOL d          16.895  31.204  16.730  0.00  0.00     0.078 H 
ATOM     12  H8  MOL d          17.792  32.760  16.751  0.00  0.00     0.078 H 
BRANCH  10  13
ATOM     13  C24 MOL d          15.715  32.929  16.178  0.00  0.00     0.034 C 
ATOM     14  N29 MOL d          15.346  33.333  17.508  0.00  0.00    -0.354 N 
ATOM     15  C27 MOL d          15.414  34.636  17.714  0.00  0.00     0.218 C 
ATOM     16  H1  MOL d          15.062  32.684  18.215  0.00  0.00     0.162 HD
ATOM     17  O28 MOL d          15.169  35.201  18.754  0.00  0.00    -0.274 OA
ATOM     18  C26 MOL d          15.821  35.357  16.453  0.00  0.00     0.011 C 
ATOM     19  C25 MOL d          15.818  34.248  15.412  0.00  0.00    -0.036 C 
ATOM     20  H5  MOL d          16.822  35.801  16.556  0.00  0.00     0.047 H 
ATOM     21  H6  MOL d          15.096  36.143  16.195  0.00  0.00     0.047 H 
ATOM     22  H3  MOL d          14.957  34.363  14.737  0.00  0.00     0.036 H 
ATOM     23  H4  MOL d          16.750  34.276  14.827  0.00  0.00     0.036 H 
ATOM     24  H2  MOL d          14.942  32.287  15.732  0.00  0.00     0.075 H 
ENDBRANCH  10  13
ENDBRANCH   9  10
ENDBRANCH   6   9
ENDBRANCH   3   5
BRANCH   3  25
ATOM     25  C32 MOL d          21.906  32.307  15.788  0.00  0.00    -0.020 C 
ATOM     26  H11 MOL d          22.940  31.976  15.610  0.00  0.00     0.043 H 
ATOM     27  H12 MOL d          21.419  31.623  16.498  0.00  0.00     0.043 H 
BRANCH  25  28
ATOM     28  C38 MOL d          21.929  33.706  16.385  0.00  0.00    -0.056 A 
ATOM     29  C37 MOL d          21.780  34.809  15.553  0.00  0.00    -0.077 A 
ATOM     30  C36 MOL d          21.795  36.097  16.085  0.00  0.00    -0.082 A 
ATOM     31  H13 MOL d          21.652  34.667  14.485  0.00  0.00     0.084 H 
ATOM     32  C35 MOL d          21.951  36.286  17.453  0.00  0.00    -0.083 A 
ATOM     33  H14 MOL d          21.683  36.954  15.431  0.00  0.00     0.083 H 
ATOM     34  C34 MOL d          22.098  35.184  18.287  0.00  0.00    -0.082 A 
ATOM     35  H15 MOL d          21.959  37.288  17.867  0.00  0.00     0.083 H 
ATOM     36  C33 MOL d          22.078  33.900  17.750  0.00  0.00    -0.077 A 
ATOM     37  H16 MOL d          22.227  35.325  19.355  0.00  0.00     0.083 H 
ATOM     38  H17 MOL d          22.181  33.042  18.406  0.00  0.00     0.084 H 
ENDBRANCH  25  28
ENDBRANCH   3  25
ENDBRANCH   1   3
BRANCH   1  39
ATOM     39  O18 MOL d          21.011  31.467  12.179  0.00  0.00    -0.392 OA
ATOM     40  H19 MOL d          21.584  31.771  11.485  0.00  0.00     0.210 HD
ENDBRANCH   1  39
BRANCH   1  41
ATOM     41  C16 MOL d          21.800  29.887  13.811  0.00  0.00     0.019 C 
ATOM     42  H20 MOL d          21.304  29.759  14.784  0.00  0.00     0.061 H 
ATOM     43  H21 MOL d          22.847  29.559  13.888  0.00  0.00     0.061 H 
BRANCH  41  44
ATOM     44  N11 MOL d          21.097  29.078  12.780  0.00  0.00    -0.204 NA
BRANCH  44  45
ATOM     45  C12 MOL d          20.083  28.178  13.376  0.00  0.00    -0.004 C 
ATOM     46  H22 MOL d          20.373  27.952  14.413  0.00  0.00     0.058 H 
ATOM     47  H23 MOL d          20.050  27.246  12.793  0.00  0.00     0.058 H 
BRANCH  45  48
ATOM     48  C13 MOL d          18.683  28.816  13.378  0.00  0.00    -0.046 C 
ATOM     49  H24 MOL d          18.666  29.580  14.168  0.00  0.00     0.041 H 
BRANCH  48  50
ATOM     50  C14 MOL d          18.305  29.505  12.067  0.00  0.00    -0.072 C 
ATOM     51  H25 MOL d          17.272  29.879  12.133  0.00  0.00     0.028 H 
ATOM     52  H26 MOL d          18.382  28.785  11.238  0.00  0.00     0.028 H 
ATOM     53  H27 MOL d          18.988  30.348  11.885  0.00  0.00     0.028 H 
ENDBRANCH  48  50
BRANCH  48  54
ATOM     54  C15 MOL d          17.647  27.740  13.724  0.00  0.00    -0.064 C 
ATOM     55  H28 MOL d          16.668  28.226  13.844  0.00  0.00     0.033 H 
ATOM     56  H29 MOL d          17.941  27.266  14.672  0.00  0.00     0.033 H 
BRANCH  54  57
ATOM     57  C18 MOL d          17.517  26.654  12.666  0.00  0.00    -0.076 C 
ATOM     58  H30 MOL d          16.990  25.788  13.093  0.00  0.00     0.027 H 
ATOM     59  H31 MOL d          18.519  26.345  12.332  0.00  0.00     0.027 H 
ATOM     60  H32 MOL d          16.949  27.043  11.809  0.00  0.00     0.027 H 
ENDBRANCH  54  57
ENDBRANCH  48  54
ENDBRANCH  45  48
ENDBRANCH  44  45
BRANCH  44  61
ATOM     61  S8  MOL d          22.076  28.343  11.705  0.00  0.00     0.243 S 
ATOM     62  O10 MOL d          23.311  28.074  12.376  0.00  0.00    -0.206 OA
ATOM     63  O9  MOL d          22.189  29.254  10.591  0.00  0.00    -0.206 OA
BRANCH  61  64
ATOM     64  C5  MOL d          21.410  26.945  11.152  0.00  0.00     0.076 A 
ATOM     65  C6  MOL d          21.989  25.739  11.555  0.00  0.00    -0.059 A 
ATOM     66  C7  MOL d          21.446  24.512  11.177  0.00  0.00    -0.052 A 
ATOM     67  H33 MOL d          22.878  25.758  12.173  0.00  0.00     0.086 H 
ATOM     68  C2  MOL d          20.324  24.450  10.376  0.00  0.00     0.074 A 
ATOM     69  H34 MOL d          21.911  23.594  11.517  0.00  0.00     0.087 H 
ATOM     70  C3  MOL d          19.728  25.635   9.941  0.00  0.00     0.036 A 
ATOM     71  N1  MOL d          19.655  23.374   9.899  0.00  0.00    -0.253 NA
ATOM     72  C4  MOL d          20.273  26.869  10.333  0.00  0.00    -0.042 A 
ATOM     73  S1  MOL d          18.349  25.428   8.946  0.00  0.00    -0.081 SA
ATOM     74  H35 MOL d          19.804  27.786   9.993  0.00  0.00     0.088 H 
ATOM     75  C1  MOL d          18.605  23.721   9.138  0.00  0.00     0.041 A 
ATOM     76  H36 MOL d          17.956  22.981   8.672  0.00  0.00     0.126 H 
ENDBRANCH  61  64
ENDBRANCH  44  61
ENDBRANCH  41  44
ENDBRANCH   1  41
TORSDOF 17
ENDMDL
MODEL 5
REMARK VINA RESULT:      -8.2      1.905      5.380
REMARK  17 active torsions:
REMARK  status: ('A' for Active; 'I' for Inactive)
REMARK    1  A    between atoms: C24_4  and  C22_7 
REMARK    2  A    between atoms: C22_7  and  O23_8 
REMARK    3  A    between atoms: O23_8  and  C21_9 
REMARK       I    between atoms: C21_9  and  N20_11 
REMARK    4  A    between atoms: N20_11  and  C19_12 
REMARK    5  A    between atoms: C19_12  and  C32_13 
REMARK    6  A    between atoms: C19_12  and  C17_20 
REMARK    7  A    between atoms: C32_13  and  C38_14 
REMARK    8  A    between atoms: C17_20  and  O18_21 
REMARK    9  A    between atoms: C17_20  and  C16_22 
REMARK   10  A    between atoms: C16_22  and  N11_23 
REMARK   11  A    between atoms: N11_23  and  C12_24 
REMARK   12  A    between atoms: N11_23  and  S8_29 
REMARK   13  A    between atoms: C12_24  and  C13_25 
REMARK   14  A    between atoms: C13_25  and  C14_26 
REMARK   15  A    between atoms: C13_25  and  C15_27 
REMARK   16  A    between atoms: C15_27  and  C18_28 
REMARK   17  A    between atoms: S8_29  and  C5_32 
ROOT
ATOM      1  C17 MOL d          20.020  30.215  16.002  0.00  0.00     0.067 C 
ATOM      2  H18 MOL d          20.594  29.452  15.457  0.00  0.00     0.088 H 
ENDROOT
BRANCH   1   3
ATOM      3  C19 MOL d          18.722  30.465  15.230  0.00  0.00     0.044 C 
ATOM      4  H10 MOL d          18.916  31.267  14.502  0.00  0.00     0.077 H 
BRANCH   3   5
ATOM      5  N20 MOL d          18.344  29.259  14.511  0.00  0.00    -0.329 N 
ATOM      6  C21 MOL d          17.895  29.205  13.261  0.00  0.00     0.361 C 
ATOM      7  O22 MOL d          17.785  30.152  12.500  0.00  0.00    -0.239 OA
ATOM      8  H9  MOL d          18.430  28.392  15.002  0.00  0.00     0.165 HD
BRANCH   6   9
ATOM      9  O23 MOL d          17.472  27.894  12.800  0.00  0.00    -0.302 OA
BRANCH   9  10
ATOM     10  C22 MOL d          17.212  27.679  11.412  0.00  0.00     0.049 C 
ATOM     11  H7  MOL d          16.251  27.160  11.281  0.00  0.00     0.078 H 
ATOM     12  H8  MOL d          17.188  28.639  10.876  0.00  0.00     0.078 H 
BRANCH  10  13
ATOM     13  C24 MOL d          18.349  26.816  10.891  0.00  0.00     0.034 C 
ATOM     14  N29 MOL d          18.618  25.755  11.824  0.00  0.00    -0.354 N 
ATOM     15  C27 MOL d          18.288  24.554  11.384  0.00  0.00     0.218 C 
ATOM     16  H1  MOL d          19.020  25.913  12.726  0.00  0.00     0.162 HD
ATOM     17  O28 MOL d          18.406  23.519  11.998  0.00  0.00    -0.274 OA
ATOM     18  C26 MOL d          17.756  24.627   9.975  0.00  0.00     0.011 C 
ATOM     19  C25 MOL d          17.990  26.082   9.599  0.00  0.00    -0.036 C 
ATOM     20  H5  MOL d          16.685  24.377   9.942  0.00  0.00     0.047 H 
ATOM     21  H6  MOL d          18.311  23.952   9.306  0.00  0.00     0.047 H 
ATOM     22  H3  MOL d          18.816  26.159   8.877  0.00  0.00     0.036 H 
ATOM     23  H4  MOL d          17.077  26.511   9.159  0.00  0.00     0.036 H 
ATOM     24  H2  MOL d          19.239  27.443  10.740  0.00  0.00     0.075 H 
ENDBRANCH  10  13
ENDBRANCH   9  10
ENDBRANCH   6   9
ENDBRANCH   3   5
BRANCH   3  25
ATOM     25  C32 MOL d          17.540  30.897  16.104  0.00  0.00    -0.020 C 
ATOM     26  H11 MOL d          17.866  30.931  17.154  0.00  0.00     0.043 H 
ATOM     27  H12 MOL d          16.728  30.164  15.995  0.00  0.00     0.043 H 
BRANCH  25  28
ATOM     28  C38 MOL d          17.026  32.270  15.699  0.00  0.00    -0.056 A 
ATOM     29  C37 MOL d          17.649  32.959  14.665  0.00  0.00    -0.077 A 
ATOM     30  C36 MOL d          17.186  34.216  14.281  0.00  0.00    -0.082 A 
ATOM     31  H13 MOL d          18.497  32.516  14.156  0.00  0.00     0.084 H 
ATOM     32  C35 MOL d          16.094  34.786  14.924  0.00  0.00    -0.083 A 
ATOM     33  H14 MOL d          17.678  34.750  13.477  0.00  0.00     0.083 H 
ATOM     34  C34 MOL d          15.468  34.098  15.957  0.00  0.00    -0.082 A 
ATOM     35  H15 MOL d          15.732  35.762  14.623  0.00  0.00     0.083 H 
ATOM     36  C33 MOL d          15.932  32.840  16.335  0.00  0.00    -0.077 A 
ATOM     37  H16 MOL d          14.620  34.539  16.468  0.00  0.00     0.083 H 
ATOM     38  H17 MOL d          15.434  32.301  17.132  0.00  0.00     0.084 H 
ENDBRANCH  25  28
ENDBRANCH   3  25
ENDBRANCH   1   3
BRANCH   1  39
ATOM     39  O18 MOL d          19.724  29.721  17.312  0.00  0.00    -0.392 OA
ATOM     40  H19 MOL d          19.402  30.433  17.852  0.00  0.00     0.210 HD
ENDBRANCH   1  39
BRANCH   1  41
ATOM     41  C16 MOL d          20.900  31.465  16.146  0.00  0.00     0.019 C 
ATOM     42  H20 MOL d          21.633  31.310  16.951  0.00  0.00     0.061 H 
ATOM     43  H21 MOL d          20.271  32.334  16.386  0.00  0.00     0.061 H 
BRANCH  41  44
ATOM     44  N11 MOL d          21.610  31.701  14.861  0.00  0.00    -0.204 NA
BRANCH  44  45
ATOM     45  C12 MOL d          22.297  30.483  14.373  0.00  0.00    -0.004 C 
ATOM     46  H22 MOL d          22.365  29.757  15.197  0.00  0.00     0.058 H 
ATOM     47  H23 MOL d          23.310  30.755  14.040  0.00  0.00     0.058 H 
BRANCH  45  48
ATOM     48  C13 MOL d          21.545  29.833  13.198  0.00  0.00    -0.046 C 
ATOM     49  H24 MOL d          20.614  29.403  13.596  0.00  0.00     0.041 H 
BRANCH  48  50
ATOM     50  C14 MOL d          21.157  30.807  12.085  0.00  0.00    -0.072 C 
ATOM     51  H25 MOL d          20.363  31.478  12.444  0.00  0.00     0.028 H 
ATOM     52  H26 MOL d          20.794  30.242  11.214  0.00  0.00     0.028 H 
ATOM     53  H27 MOL d          22.036  31.403  11.796  0.00  0.00     0.028 H 
ENDBRANCH  48  50
BRANCH  48  54
ATOM     54  C15 MOL d          22.400  28.696  12.627  0.00  0.00    -0.064 C 
ATOM     55  H28 MOL d          22.179  27.778  13.192  0.00  0.00     0.033 H 
ATOM     56  H29 MOL d          23.460  28.960  12.756  0.00  0.00     0.033 H 
BRANCH  54  57
ATOM     57  C18 MOL d          22.149  28.424  11.152  0.00  0.00    -0.076 C 
ATOM     58  H30 MOL d          21.913  27.359  11.011  0.00  0.00     0.027 H 
ATOM     59  H31 MOL d          23.050  28.679  10.574  0.00  0.00     0.027 H 
ATOM     60  H32 MOL d          21.305  29.037  10.804  0.00  0.00     0.027 H 
ENDBRANCH  54  57
ENDBRANCH  48  54
ENDBRANCH  45  48
ENDBRANCH  44  45
BRANCH  44  61
ATOM     61  S8  MOL d          22.544  33.036  14.832  0.00  0.00     0.243 S 
ATOM     62  O10 MOL d          22.566  33.504  13.481  0.00  0.00    -0.206 OA
ATOM     63  O9  MOL d          23.831  32.625  15.343  0.00  0.00    -0.206 OA
BRANCH  61  64
ATOM     64  C5  MOL d          21.950  34.200  15.831  0.00  0.00     0.076 A 
ATOM     65  C6  MOL d          22.825  35.194  16.272  0.00  0.00    -0.059 A 
ATOM     66  C7  MOL d          22.384  36.248  17.071  0.00  0.00    -0.052 A 
ATOM     67  H33 MOL d          23.870  35.146  15.988  0.00  0.00     0.086 H 
ATOM     68  C2  MOL d          21.064  36.332  17.467  0.00  0.00     0.074 A 
ATOM     69  H34 MOL d          23.086  37.011  17.386  0.00  0.00     0.087 H 
ATOM     70  C3  MOL d          20.163  35.347  17.058  0.00  0.00     0.036 A 
ATOM     71  N1  MOL d          20.445  37.258  18.236  0.00  0.00    -0.253 NA
ATOM     72  C4  MOL d          20.612  34.292  16.244  0.00  0.00    -0.042 A 
ATOM     73  S1  MOL d          18.559  35.556  17.620  0.00  0.00    -0.081 SA
ATOM     74  H35 MOL d          19.907  33.532  15.929  0.00  0.00     0.088 H 
ATOM     75  C1  MOL d          19.140  36.991  18.408  0.00  0.00     0.041 A 
ATOM     76  H36 MOL d          18.489  37.632  19.001  0.00  0.00     0.126 H 
ENDBRANCH  61  64
ENDBRANCH  44  61
ENDBRANCH  41  44
ENDBRANCH   1  41
TORSDOF 17
ENDMDL
MODEL 6
REMARK VINA RESULT:      -7.6      2.347      9.159
REMARK  17 active torsions:
REMARK  status: ('A' for Active; 'I' for Inactive)
REMARK    1  A    between atoms: C24_4  and  C22_7 
REMARK    2  A    between atoms: C22_7  and  O23_8 
REMARK    3  A    between atoms: O23_8  and  C21_9 
REMARK       I    between atoms: C21_9  and  N20_11 
REMARK    4  A    between atoms: N20_11  and  C19_12 
REMARK    5  A    between atoms: C19_12  and  C32_13 
REMARK    6  A    between atoms: C19_12  and  C17_20 
REMARK    7  A    between atoms: C32_13  and  C38_14 
REMARK    8  A    between atoms: C17_20  and  O18_21 
REMARK    9  A    between atoms: C17_20  and  C16_22 
REMARK   10  A    between atoms: C16_22  and  N11_23 
REMARK   11  A    between atoms: N11_23  and  C12_24 
REMARK   12  A    between atoms: N11_23  and  S8_29 
REMARK   13  A    between atoms: C12_24  and  C13_25 
REMARK   14  A    between atoms: C13_25  and  C14_26 
REMARK   15  A    between atoms: C13_25  and  C15_27 
REMARK   16  A    between atoms: C15_27  and  C18_28 
REMARK   17  A    between atoms: S8_29  and  C5_32 
ROOT
ATOM      1  C17 MOL d          20.464  28.848  14.060  0.00  0.00     0.067 C 
ATOM      2  H18 MOL d          19.842  29.707  14.351  0.00  0.00     0.088 H 
ENDROOT
BRANCH   1   3
ATOM      3  C19 MOL d          21.809  29.390  13.570  0.00  0.00     0.044 C 
ATOM      4  H10 MOL d          21.666  29.761  12.545  0.00  0.00     0.077 H 
BRANCH   3   5
ATOM      5  N20 MOL d          22.225  30.497  14.417  0.00  0.00    -0.329 N 
ATOM      6  C21 MOL d          22.243  31.780  14.070  0.00  0.00     0.361 C 
ATOM      7  O22 MOL d          21.858  32.238  13.007  0.00  0.00    -0.239 OA
ATOM      8  H9  MOL d          22.525  30.272  15.344  0.00  0.00     0.165 HD
BRANCH   6   9
ATOM      9  O23 MOL d          22.810  32.690  15.050  0.00  0.00    -0.302 OA
BRANCH   9  10
ATOM     10  C22 MOL d          21.986  33.219  16.089  0.00  0.00     0.049 C 
ATOM     11  H7  MOL d          21.015  32.702  16.104  0.00  0.00     0.078 H 
ATOM     12  H8  MOL d          22.481  33.099  17.064  0.00  0.00     0.078 H 
BRANCH  10  13
ATOM     13  C24 MOL d          21.792  34.692  15.777  0.00  0.00     0.034 C 
ATOM     14  N29 MOL d          20.485  35.111  16.208  0.00  0.00    -0.354 N 
ATOM     15  C27 MOL d          20.498  35.936  17.240  0.00  0.00     0.218 C 
ATOM     16  H1  MOL d          19.642  34.804  15.766  0.00  0.00     0.162 HD
ATOM     17  O28 MOL d          19.524  36.403  17.783  0.00  0.00    -0.274 OA
ATOM     18  C26 MOL d          21.913  36.255  17.654  0.00  0.00     0.011 C 
ATOM     19  C25 MOL d          22.742  35.595  16.564  0.00  0.00    -0.036 C 
ATOM     20  H5  MOL d          22.143  35.828  18.641  0.00  0.00     0.047 H 
ATOM     21  H6  MOL d          22.083  37.342  17.677  0.00  0.00     0.047 H 
ATOM     22  H3  MOL d          23.176  36.359  15.902  0.00  0.00     0.036 H 
ATOM     23  H4  MOL d          23.550  34.996  17.013  0.00  0.00     0.036 H 
ATOM     24  H2  MOL d          21.920  34.852  14.696  0.00  0.00     0.075 H 
ENDBRANCH  10  13
ENDBRANCH   9  10
ENDBRANCH   6   9
ENDBRANCH   3   5
BRANCH   3  25
ATOM     25  C32 MOL d          22.936  28.353  13.543  0.00  0.00    -0.020 C 
ATOM     26  H11 MOL d          22.725  27.576  14.294  0.00  0.00     0.043 H 
ATOM     27  H12 MOL d          23.886  28.850  13.786  0.00  0.00     0.043 H 
BRANCH  25  28
ATOM     28  C38 MOL d          23.054  27.700  12.174  0.00  0.00    -0.056 A 
ATOM     29  C37 MOL d          24.065  28.100  11.309  0.00  0.00    -0.077 A 
ATOM     30  C36 MOL d          24.189  27.507  10.053  0.00  0.00    -0.082 A 
ATOM     31  H13 MOL d          24.759  28.875  11.611  0.00  0.00     0.084 H 
ATOM     32  C35 MOL d          23.306  26.507   9.662  0.00  0.00    -0.083 A 
ATOM     33  H14 MOL d          24.976  27.826   9.380  0.00  0.00     0.083 H 
ATOM     34  C34 MOL d          22.297  26.104  10.528  0.00  0.00    -0.082 A 
ATOM     35  H15 MOL d          23.405  26.044   8.686  0.00  0.00     0.083 H 
ATOM     36  C33 MOL d          22.180  26.696  11.782  0.00  0.00    -0.077 A 
ATOM     37  H16 MOL d          21.601  25.329  10.227  0.00  0.00     0.083 H 
ATOM     38  H17 MOL d          21.399  26.370  12.459  0.00  0.00     0.084 H 
ENDBRANCH  25  28
ENDBRANCH   3  25
ENDBRANCH   1   3
BRANCH   1  39
ATOM     39  O18 MOL d          20.660  28.010  15.203  0.00  0.00    -0.392 OA
ATOM     40  H19 MOL d          21.456  27.505  15.091  0.00  0.00     0.210 HD
ENDBRANCH   1  39
BRANCH   1  41
ATOM     41  C16 MOL d          19.702  28.044  12.997  0.00  0.00     0.019 C 
ATOM     42  H20 MOL d          19.848  26.968  13.173  0.00  0.00     0.061 H 
ATOM     43  H21 MOL d          20.076  28.305  11.997  0.00  0.00     0.061 H 
BRANCH  41  44
ATOM     44  N11 MOL d          18.256  28.374  13.092  0.00  0.00    -0.204 NA
BRANCH  44  45
ATOM     45  C12 MOL d          17.397  27.226  12.721  0.00  0.00    -0.004 C 
ATOM     46  H22 MOL d          16.445  27.606  12.323  0.00  0.00     0.058 H 
ATOM     47  H23 MOL d          17.203  26.622  13.620  0.00  0.00     0.058 H 
BRANCH  45  48
ATOM     48  C13 MOL d          18.061  26.335  11.657  0.00  0.00    -0.046 C 
ATOM     49  H24 MOL d          19.139  26.555  11.664  0.00  0.00     0.041 H 
BRANCH  48  50
ATOM     50  C14 MOL d          17.900  24.834  11.903  0.00  0.00    -0.072 C 
ATOM     51  H25 MOL d          17.166  24.423  11.196  0.00  0.00     0.028 H 
ATOM     52  H26 MOL d          17.550  24.668  12.933  0.00  0.00     0.028 H 
ATOM     53  H27 MOL d          18.869  24.333  11.759  0.00  0.00     0.028 H 
ENDBRANCH  48  50
BRANCH  48  54
ATOM     54  C15 MOL d          17.500  26.704  10.279  0.00  0.00    -0.064 C 
ATOM     55  H28 MOL d          16.687  27.431  10.418  0.00  0.00     0.033 H 
ATOM     56  H29 MOL d          17.100  25.792   9.810  0.00  0.00     0.033 H 
BRANCH  54  57
ATOM     57  C18 MOL d          18.531  27.312   9.341  0.00  0.00    -0.076 C 
ATOM     58  H30 MOL d          19.138  28.047   9.891  0.00  0.00     0.027 H 
ATOM     59  H31 MOL d          18.019  27.812   8.506  0.00  0.00     0.027 H 
ATOM     60  H32 MOL d          19.184  26.518   8.949  0.00  0.00     0.027 H 
ENDBRANCH  54  57
ENDBRANCH  48  54
ENDBRANCH  45  48
ENDBRANCH  44  45
BRANCH  44  61
ATOM     61  S8  MOL d          17.826  29.772  12.372  0.00  0.00     0.243 S 
ATOM     62  O10 MOL d          16.560  29.550  11.745  0.00  0.00    -0.206 OA
ATOM     63  O9  MOL d          18.899  30.086  11.457  0.00  0.00    -0.206 OA
BRANCH  61  64
ATOM     64  C5  MOL d          17.716  30.996  13.465  0.00  0.00     0.076 A 
ATOM     65  C6  MOL d          18.662  32.021  13.399  0.00  0.00    -0.059 A 
ATOM     66  C7  MOL d          18.600  33.122  14.251  0.00  0.00    -0.052 A 
ATOM     67  H33 MOL d          19.461  31.959  12.669  0.00  0.00     0.086 H 
ATOM     68  C2  MOL d          17.606  33.226  15.203  0.00  0.00     0.074 A 
ATOM     69  H34 MOL d          19.342  33.908  14.165  0.00  0.00     0.087 H 
ATOM     70  C3  MOL d          16.653  32.211  15.310  0.00  0.00     0.036 A 
ATOM     71  N1  MOL d          17.378  34.197  16.118  0.00  0.00    -0.253 NA
ATOM     72  C4  MOL d          16.714  31.109  14.441  0.00  0.00    -0.042 A 
ATOM     73  S1  MOL d          15.478  32.450  16.533  0.00  0.00    -0.081 SA
ATOM     74  H35 MOL d          15.970  30.326  14.528  0.00  0.00     0.088 H 
ATOM     75  C1  MOL d          16.306  33.935  16.884  0.00  0.00     0.041 A 
ATOM     76  H36 MOL d          15.978  34.610  17.674  0.00  0.00     0.126 H 
ENDBRANCH  61  64
ENDBRANCH  44  61
ENDBRANCH  41  44
ENDBRANCH   1  41
TORSDOF 17
ENDMDL
MODEL 7
REMARK VINA RESULT:      -7.6      2.158      6.339
REMARK  17 active torsions:
REMARK  status: ('A' for Active; 'I' for Inactive)
REMARK    1  A    between atoms: C24_4  and  C22_7 
REMARK    2  A    between atoms: C22_7  and  O23_8 
REMARK    3  A    between atoms: O23_8  and  C21_9 
REMARK       I    between atoms: C21_9  and  N20_11 
REMARK    4  A    between atoms: N20_11  and  C19_12 
REMARK    5  A    between atoms: C19_12  and  C32_13 
REMARK    6  A    between atoms: C19_12  and  C17_20 
REMARK    7  A    between atoms: C32_13  and  C38_14 
REMARK    8  A    between atoms: C17_20  and  O18_21 
REMARK    9  A    between atoms: C17_20  and  C16_22 
REMARK   10  A    between atoms: C16_22  and  N11_23 
REMARK   11  A    between atoms: N11_23  and  C12_24 
REMARK   12  A    between atoms: N11_23  and  S8_29 
REMARK   13  A    between atoms: C12_24  and  C13_25 
REMARK   14  A    between atoms: C13_25  and  C14_26 
REMARK   15  A    between atoms: C13_25  and  C15_27 
REMARK   16  A    between atoms: C15_27  and  C18_28 
REMARK   17  A    between atoms: S8_29  and  C5_32 
ROOT
ATOM      1  C17 MOL d          18.607  31.329  14.679  0.00  0.00     0.067 C 
ATOM      2  H18 MOL d          19.590  31.634  15.066  0.00  0.00     0.088 H 
ENDROOT
BRANCH   1   3
ATOM      3  C19 MOL d          17.570  31.602  15.771  0.00  0.00     0.044 C 
ATOM      4  H10 MOL d          17.355  30.648  16.274  0.00  0.00     0.077 H 
BRANCH   3   5
ATOM      5  N20 MOL d          18.122  32.532  16.744  0.00  0.00    -0.329 N 
ATOM      6  C21 MOL d          19.010  33.488  16.492  0.00  0.00     0.361 C 
ATOM      7  O22 MOL d          19.459  33.775  15.395  0.00  0.00    -0.239 OA
ATOM      8  H9  MOL d          17.804  32.443  17.688  0.00  0.00     0.165 HD
BRANCH   6   9
ATOM      9  O23 MOL d          19.499  34.215  17.650  0.00  0.00    -0.302 OA
BRANCH   9  10
ATOM     10  C22 MOL d          20.174  35.461  17.475  0.00  0.00     0.049 C 
ATOM     11  H7  MOL d          20.009  35.843  16.456  0.00  0.00     0.078 H 
ATOM     12  H8  MOL d          19.810  36.197  18.206  0.00  0.00     0.078 H 
BRANCH  10  13
ATOM     13  C24 MOL d          21.651  35.185  17.699  0.00  0.00     0.034 C 
ATOM     14  N29 MOL d          21.876  33.766  17.750  0.00  0.00    -0.354 N 
ATOM     15  C27 MOL d          22.547  33.289  16.716  0.00  0.00     0.218 C 
ATOM     16  H1  MOL d          21.553  33.190  18.501  0.00  0.00     0.162 HD
ATOM     17  O28 MOL d          22.836  32.129  16.535  0.00  0.00    -0.274 OA
ATOM     18  C26 MOL d          22.942  34.400  15.776  0.00  0.00     0.011 C 
ATOM     19  C25 MOL d          22.523  35.650  16.532  0.00  0.00    -0.036 C 
ATOM     20  H5  MOL d          22.405  34.318  14.819  0.00  0.00     0.047 H 
ATOM     21  H6  MOL d          24.026  34.394  15.589  0.00  0.00     0.047 H 
ATOM     22  H3  MOL d          23.411  36.180  16.910  0.00  0.00     0.036 H 
ATOM     23  H4  MOL d          21.950  36.319  15.872  0.00  0.00     0.036 H 
ATOM     24  H2  MOL d          21.971  35.669  18.632  0.00  0.00     0.075 H 
ENDBRANCH  10  13
ENDBRANCH   9  10
ENDBRANCH   6   9
ENDBRANCH   3   5
BRANCH   3  25
ATOM     25  C32 MOL d          16.245  32.173  15.256  0.00  0.00    -0.020 C 
ATOM     26  H11 MOL d          15.443  31.445  15.449  0.00  0.00     0.043 H 
ATOM     27  H12 MOL d          16.328  32.349  14.173  0.00  0.00     0.043 H 
BRANCH  25  28
ATOM     28  C38 MOL d          15.901  33.484  15.946  0.00  0.00    -0.056 A 
ATOM     29  C37 MOL d          15.284  33.463  17.191  0.00  0.00    -0.077 A 
ATOM     30  C36 MOL d          14.967  34.656  17.837  0.00  0.00    -0.082 A 
ATOM     31  H13 MOL d          15.049  32.514  17.661  0.00  0.00     0.084 H 
ATOM     32  C35 MOL d          15.272  35.875  17.244  0.00  0.00    -0.083 A 
ATOM     33  H14 MOL d          14.482  34.633  18.806  0.00  0.00     0.083 H 
ATOM     34  C34 MOL d          15.892  35.898  16.000  0.00  0.00    -0.082 A 
ATOM     35  H15 MOL d          15.028  36.803  17.749  0.00  0.00     0.083 H 
ATOM     36  C33 MOL d          16.210  34.703  15.360  0.00  0.00    -0.077 A 
ATOM     37  H16 MOL d          16.127  36.846  15.528  0.00  0.00     0.083 H 
ATOM     38  H17 MOL d          16.704  34.726  14.396  0.00  0.00     0.084 H 
ENDBRANCH  25  28
ENDBRANCH   3  25
ENDBRANCH   1   3
BRANCH   1  39
ATOM     39  O18 MOL d          18.308  32.104  13.514  0.00  0.00    -0.392 OA
ATOM     40  H19 MOL d          17.470  31.832  13.161  0.00  0.00     0.210 HD
ENDBRANCH   1  39
BRANCH   1  41
ATOM     41  C16 MOL d          18.691  29.852  14.268  0.00  0.00     0.019 C 
ATOM     42  H20 MOL d          17.709  29.512  13.908  0.00  0.00     0.061 H 
ATOM     43  H21 MOL d          18.995  29.244  15.132  0.00  0.00     0.061 H 
BRANCH  41  44
ATOM     44  N11 MOL d          19.697  29.713  13.181  0.00  0.00    -0.204 NA
BRANCH  44  45
ATOM     45  C12 MOL d          19.114  29.121  11.955  0.00  0.00    -0.004 C 
ATOM     46  H22 MOL d          19.743  28.277  11.634  0.00  0.00     0.058 H 
ATOM     47  H23 MOL d          19.095  29.886  11.165  0.00  0.00     0.058 H 
BRANCH  45  48
ATOM     48  C13 MOL d          17.681  28.612  12.192  0.00  0.00    -0.046 C 
ATOM     49  H24 MOL d          17.348  28.998  13.166  0.00  0.00     0.041 H 
BRANCH  48  50
ATOM     50  C14 MOL d          16.669  29.078  11.145  0.00  0.00    -0.072 C 
ATOM     51  H25 MOL d          17.195  29.333  10.214  0.00  0.00     0.028 H 
ATOM     52  H26 MOL d          16.136  29.964  11.520  0.00  0.00     0.028 H 
ATOM     53  H27 MOL d          15.947  28.271  10.948  0.00  0.00     0.028 H 
ENDBRANCH  48  50
BRANCH  48  54
ATOM     54  C15 MOL d          17.702  27.080  12.258  0.00  0.00    -0.064 C 
ATOM     55  H28 MOL d          16.781  26.742  12.756  0.00  0.00     0.033 H 
ATOM     56  H29 MOL d          18.575  26.770  12.852  0.00  0.00     0.033 H 
BRANCH  54  57
ATOM     57  C18 MOL d          17.786  26.411  10.896  0.00  0.00    -0.076 C 
ATOM     58  H30 MOL d          17.057  25.588  10.847  0.00  0.00     0.027 H 
ATOM     59  H31 MOL d          18.800  26.012  10.744  0.00  0.00     0.027 H 
ATOM     60  H32 MOL d          17.561  27.147  10.110  0.00  0.00     0.027 H 
ENDBRANCH  54  57
ENDBRANCH  48  54
ENDBRANCH  45  48
ENDBRANCH  44  45
BRANCH  44  61
ATOM     61  S8  MOL d          21.103  29.027  13.637  0.00  0.00     0.243 S 
ATOM     62  O10 MOL d          20.838  28.272  14.823  0.00  0.00    -0.206 OA
ATOM     63  O9  MOL d          22.031  30.119  13.819  0.00  0.00    -0.206 OA
BRANCH  61  64
ATOM     64  C5  MOL d          21.697  28.048  12.457  0.00  0.00     0.076 A 
ATOM     65  C6  MOL d          22.753  28.525  11.678  0.00  0.00    -0.059 A 
ATOM     66  C7  MOL d          23.351  27.733  10.699  0.00  0.00    -0.052 A 
ATOM     67  H33 MOL d          23.116  29.534  11.838  0.00  0.00     0.086 H 
ATOM     68  C2  MOL d          22.903  26.450  10.457  0.00  0.00     0.074 A 
ATOM     69  H34 MOL d          24.177  28.129  10.121  0.00  0.00     0.087 H 
ATOM     70  C3  MOL d          21.838  25.943  11.205  0.00  0.00     0.036 A 
ATOM     71  N1  MOL d          23.336  25.533   9.560  0.00  0.00    -0.253 NA
ATOM     72  C4  MOL d          21.247  26.744  12.197  0.00  0.00    -0.042 A 
ATOM     73  S1  MOL d          21.370  24.346  10.806  0.00  0.00    -0.081 SA
ATOM     74  H35 MOL d          20.422  26.344  12.776  0.00  0.00     0.088 H 
ATOM     75  C1  MOL d          22.637  24.389   9.619  0.00  0.00     0.041 A 
ATOM     76  H36 MOL d          22.850  23.543   8.967  0.00  0.00     0.126 H 
ENDBRANCH  61  64
ENDBRANCH  44  61
ENDBRANCH  41  44
ENDBRANCH   1  41
TORSDOF 17
ENDMDL
MODEL 8
REMARK VINA RESULT:      -7.2      2.329      6.358
REMARK  17 active torsions:
REMARK  status: ('A' for Active; 'I' for Inactive)
REMARK    1  A    between atoms: C24_4  and  C22_7 
REMARK    2  A    between atoms: C22_7  and  O23_8 
REMARK    3  A    between atoms: O23_8  and  C21_9 
REMARK       I    between atoms: C21_9  and  N20_11 
REMARK    4  A    between atoms: N20_11  and  C19_12 
REMARK    5  A    between atoms: C19_12  and  C32_13 
REMARK    6  A    between atoms: C19_12  and  C17_20 
REMARK    7  A    between atoms: C32_13  and  C38_14 
REMARK    8  A    between atoms: C17_20  and  O18_21 
REMARK    9  A    between atoms: C17_20  and  C16_22 
REMARK   10  A    between atoms: C16_22  and  N11_23 
REMARK   11  A    between atoms: N11_23  and  C12_24 
REMARK   12  A    between atoms: N11_23  and  S8_29 
REMARK   13  A    between atoms: C12_24  and  C13_25 
REMARK   14  A    between atoms: C13_25  and  C14_26 
REMARK   15  A    between atoms: C13_25  and  C15_27 
REMARK   16  A    between atoms: C15_27  and  C18_28 
REMARK   17  A    between atoms: S8_29  and  C5_32 
ROOT
ATOM      1  C17 MOL d          21.227  31.809  14.209  0.00  0.00     0.067 C 
ATOM      2  H18 MOL d          21.876  31.113  14.759  0.00  0.00     0.088 H 
ENDROOT
BRANCH   1   3
ATOM      3  C19 MOL d          20.738  32.871  15.198  0.00  0.00     0.044 C 
ATOM      4  H10 MOL d          20.859  33.854  14.719  0.00  0.00     0.077 H 
BRANCH   3   5
ATOM      5  N20 MOL d          19.328  32.658  15.483  0.00  0.00    -0.329 N 
ATOM      6  C21 MOL d          18.823  31.675  16.222  0.00  0.00     0.361 C 
ATOM      7  O22 MOL d          19.465  30.830  16.824  0.00  0.00    -0.239 OA
ATOM      8  H9  MOL d          18.681  33.309  15.089  0.00  0.00     0.165 HD
BRANCH   6   9
ATOM      9  O23 MOL d          17.373  31.603  16.267  0.00  0.00    -0.302 OA
BRANCH   9  10
ATOM     10  C22 MOL d          16.615  31.780  15.070  0.00  0.00     0.049 C 
ATOM     11  H7  MOL d          17.275  32.078  14.242  0.00  0.00     0.078 H 
ATOM     12  H8  MOL d          16.096  30.846  14.807  0.00  0.00     0.078 H 
BRANCH  10  13
ATOM     13  C24 MOL d          15.606  32.878  15.358  0.00  0.00     0.034 C 
ATOM     14  N29 MOL d          15.426  33.009  16.779  0.00  0.00    -0.354 N 
ATOM     15  C27 MOL d          15.909  34.133  17.281  0.00  0.00     0.218 C 
ATOM     16  H1  MOL d          14.976  32.313  17.337  0.00  0.00     0.162 HD
ATOM     17  O28 MOL d          15.888  34.451  18.447  0.00  0.00    -0.274 OA
ATOM     18  C26 MOL d          16.480  35.004  16.191  0.00  0.00     0.011 C 
ATOM     19  C25 MOL d          16.094  34.260  14.923  0.00  0.00    -0.036 C 
ATOM     20  H5  MOL d          17.573  35.089  16.284  0.00  0.00     0.047 H 
ATOM     21  H6  MOL d          16.032  36.009  16.212  0.00  0.00     0.047 H 
ATOM     22  H3  MOL d          15.291  34.797  14.396  0.00  0.00     0.036 H 
ATOM     23  H4  MOL d          16.967  34.162  14.260  0.00  0.00     0.036 H 
ATOM     24  H2  MOL d          14.655  32.634  14.861  0.00  0.00     0.075 H 
ENDBRANCH  10  13
ENDBRANCH   9  10
ENDBRANCH   6   9
ENDBRANCH   3   5
BRANCH   3  25
ATOM     25  C32 MOL d          21.502  32.897  16.525  0.00  0.00    -0.020 C 
ATOM     26  H11 MOL d          22.470  32.392  16.391  0.00  0.00     0.043 H 
ATOM     27  H12 MOL d          20.913  32.365  17.287  0.00  0.00     0.043 H 
BRANCH  25  28
ATOM     28  C38 MOL d          21.747  34.323  16.995  0.00  0.00    -0.056 A 
ATOM     29  C37 MOL d          21.984  34.570  18.342  0.00  0.00    -0.077 A 
ATOM     30  C36 MOL d          22.215  35.871  18.786  0.00  0.00    -0.082 A 
ATOM     31  H13 MOL d          21.989  33.749  19.049  0.00  0.00     0.084 H 
ATOM     32  C35 MOL d          22.217  36.928  17.884  0.00  0.00    -0.083 A 
ATOM     33  H14 MOL d          22.394  36.059  19.838  0.00  0.00     0.083 H 
ATOM     34  C34 MOL d          21.983  36.682  16.536  0.00  0.00    -0.082 A 
ATOM     35  H15 MOL d          22.400  37.939  18.230  0.00  0.00     0.083 H 
ATOM     36  C33 MOL d          21.757  35.381  16.097  0.00  0.00    -0.077 A 
ATOM     37  H16 MOL d          21.977  37.503  15.828  0.00  0.00     0.083 H 
ATOM     38  H17 MOL d          21.587  35.191  15.043  0.00  0.00     0.084 H 
ENDBRANCH  25  28
ENDBRANCH   3  25
ENDBRANCH   1   3
BRANCH   1  39
ATOM     39  O18 MOL d          21.986  32.424  13.164  0.00  0.00    -0.392 OA
ATOM     40  H19 MOL d          22.257  31.762  12.540  0.00  0.00     0.210 HD
ENDBRANCH   1  39
BRANCH   1  41
ATOM     41  C16 MOL d          20.091  30.999  13.567  0.00  0.00     0.019 C 
ATOM     42  H20 MOL d          19.421  31.675  13.015  0.00  0.00     0.061 H 
ATOM     43  H21 MOL d          19.521  30.477  14.349  0.00  0.00     0.061 H 
BRANCH  41  44
ATOM     44  N11 MOL d          20.681  30.006  12.631  0.00  0.00    -0.204 NA
BRANCH  44  45
ATOM     45  C12 MOL d          19.656  29.384  11.761  0.00  0.00    -0.004 C 
ATOM     46  H22 MOL d          20.050  28.436  11.367  0.00  0.00     0.058 H 
ATOM     47  H23 MOL d          19.437  30.066  10.926  0.00  0.00     0.058 H 
BRANCH  45  48
ATOM     48  C13 MOL d          18.351  29.101  12.527  0.00  0.00    -0.046 C 
ATOM     49  H24 MOL d          18.470  29.498  13.545  0.00  0.00     0.041 H 
BRANCH  48  50
ATOM     50  C14 MOL d          17.111  29.760  11.922  0.00  0.00    -0.072 C 
ATOM     51  H25 MOL d          16.360  29.920  12.709  0.00  0.00     0.028 H 
ATOM     52  H26 MOL d          16.692  29.106  11.143  0.00  0.00     0.028 H 
ATOM     53  H27 MOL d          17.390  30.727  11.478  0.00  0.00     0.028 H 
ENDBRANCH  48  50
BRANCH  48  54
ATOM     54  C15 MOL d          18.149  27.584  12.619  0.00  0.00    -0.064 C 
ATOM     55  H28 MOL d          19.132  27.097  12.547  0.00  0.00     0.033 H 
ATOM     56  H29 MOL d          17.518  27.266  11.775  0.00  0.00     0.033 H 
BRANCH  54  57
ATOM     57  C18 MOL d          17.483  27.133  13.910  0.00  0.00    -0.076 C 
ATOM     58  H30 MOL d          17.208  28.015  14.508  0.00  0.00     0.027 H 
ATOM     59  H31 MOL d          18.182  26.505  14.483  0.00  0.00     0.027 H 
ATOM     60  H32 MOL d          16.579  26.553  13.674  0.00  0.00     0.027 H 
ENDBRANCH  54  57
ENDBRANCH  48  54
ENDBRANCH  45  48
ENDBRANCH  44  45
BRANCH  44  61
ATOM     61  S8  MOL d          21.692  28.932  13.323  0.00  0.00     0.243 S 
ATOM     62  O10 MOL d          20.952  28.257  14.346  0.00  0.00    -0.206 OA
ATOM     63  O9  MOL d          22.812  29.704  13.807  0.00  0.00    -0.206 OA
BRANCH  61  64
ATOM     64  C5  MOL d          22.258  27.851  12.221  0.00  0.00     0.076 A 
ATOM     65  C6  MOL d          23.551  28.034  11.727  0.00  0.00    -0.059 A 
ATOM     66  C7  MOL d          24.124  27.128  10.837  0.00  0.00    -0.052 A 
ATOM     67  H33 MOL d          24.122  28.900  12.043  0.00  0.00     0.086 H 
ATOM     68  C2  MOL d          23.421  26.024  10.400  0.00  0.00     0.074 A 
ATOM     69  H34 MOL d          25.135  27.292  10.482  0.00  0.00     0.087 H 
ATOM     70  C3  MOL d          22.119  25.816  10.860  0.00  0.00     0.036 A 
ATOM     71  N1  MOL d          23.789  25.042   9.543  0.00  0.00    -0.253 NA
ATOM     72  C4  MOL d          21.550  26.728  11.765  0.00  0.00    -0.042 A 
ATOM     73  S1  MOL d          21.348  24.418  10.240  0.00  0.00    -0.081 SA
ATOM     74  H35 MOL d          20.540  26.559  12.120  0.00  0.00     0.088 H 
ATOM     75  C1  MOL d          22.818  24.134   9.358  0.00  0.00     0.041 A 
ATOM     76  H36 MOL d          22.942  23.276   8.699  0.00  0.00     0.126 H 
ENDBRANCH  61  64
ENDBRANCH  44  61
ENDBRANCH  41  44
ENDBRANCH   1  41
TORSDOF 17
ENDMDL
MODEL 9
REMARK VINA RESULT:      -7.1      2.219      6.704
REMARK  17 active torsions:
REMARK  status: ('A' for Active; 'I' for Inactive)
REMARK    1  A    between atoms: C24_4  and  C22_7 
REMARK    2  A    between atoms: C22_7  and  O23_8 
REMARK    3  A    between atoms: O23_8  and  C21_9 
REMARK       I    between atoms: C21_9  and  N20_11 
REMARK    4  A    between atoms: N20_11  and  C19_12 
REMARK    5  A    between atoms: C19_12  and  C32_13 
REMARK    6  A    between atoms: C19_12  and  C17_20 
REMARK    7  A    between atoms: C32_13  and  C38_14 
REMARK    8  A    between atoms: C17_20  and  O18_21 
REMARK    9  A    between atoms: C17_20  and  C16_22 
REMARK   10  A    between atoms: C16_22  and  N11_23 
REMARK   11  A    between atoms: N11_23  and  C12_24 
REMARK   12  A    between atoms: N11_23  and  S8_29 
REMARK   13  A    between atoms: C12_24  and  C13_25 
REMARK   14  A    between atoms: C13_25  and  C14_26 
REMARK   15  A    between atoms: C13_25  and  C15_27 
REMARK   16  A    between atoms: C15_27  and  C18_28 
REMARK   17  A    between atoms: S8_29  and  C5_32 
ROOT
ATOM      1  C17 MOL d          18.235  29.986  14.379  0.00  0.00     0.067 C 
ATOM      2  H18 MOL d          18.113  30.727  13.576  0.00  0.00     0.088 H 
ENDROOT
BRANCH   1   3
ATOM      3  C19 MOL d          19.094  30.622  15.475  0.00  0.00     0.044 C 
ATOM      4  H10 MOL d          19.662  29.816  15.964  0.00  0.00     0.077 H 
BRANCH   3   5
ATOM      5  N20 MOL d          20.031  31.559  14.876  0.00  0.00    -0.329 N 
ATOM      6  C21 MOL d          21.139  32.023  15.444  0.00  0.00     0.361 C 
ATOM      7  O22 MOL d          21.577  31.692  16.534  0.00  0.00    -0.239 OA
ATOM      8  H9  MOL d          19.822  31.884  13.954  0.00  0.00     0.165 HD
BRANCH   6   9
ATOM      9  O23 MOL d          21.853  33.042  14.693  0.00  0.00    -0.302 OA
BRANCH   9  10
ATOM     10  C22 MOL d          22.771  33.906  15.364  0.00  0.00     0.049 C 
ATOM     11  H7  MOL d          23.114  33.443  16.301  0.00  0.00     0.078 H 
ATOM     12  H8  MOL d          23.637  34.115  14.718  0.00  0.00     0.078 H 
BRANCH  10  13
ATOM     13  C24 MOL d          22.015  35.190  15.659  0.00  0.00     0.034 C 
ATOM     14  N29 MOL d          20.647  34.884  15.979  0.00  0.00    -0.354 N 
ATOM     15  C27 MOL d          20.328  35.099  17.243  0.00  0.00     0.218 C 
ATOM     16  H1  MOL d          19.995  34.539  15.303  0.00  0.00     0.162 HD
ATOM     17  O28 MOL d          19.245  34.897  17.742  0.00  0.00    -0.274 OA
ATOM     18  C26 MOL d          21.500  35.666  18.002  0.00  0.00     0.011 C 
ATOM     19  C25 MOL d          22.529  35.905  16.909  0.00  0.00    -0.036 C 
ATOM     20  H5  MOL d          21.874  34.948  18.748  0.00  0.00     0.047 H 
ATOM     21  H6  MOL d          21.230  36.607  18.504  0.00  0.00     0.047 H 
ATOM     22  H3  MOL d          22.632  36.983  16.714  0.00  0.00     0.036 H 
ATOM     23  H4  MOL d          23.504  35.492  17.209  0.00  0.00     0.036 H 
ATOM     24  H2  MOL d          22.077  35.855  14.786  0.00  0.00     0.075 H 
ENDBRANCH  10  13
ENDBRANCH   9  10
ENDBRANCH   6   9
ENDBRANCH   3   5
BRANCH   3  25
ATOM     25  C32 MOL d          18.297  31.359  16.555  0.00  0.00    -0.020 C 
ATOM     26  H11 MOL d          18.996  31.772  17.297  0.00  0.00     0.043 H 
ATOM     27  H12 MOL d          17.617  30.648  17.046  0.00  0.00     0.043 H 
BRANCH  25  28
ATOM     28  C38 MOL d          17.478  32.495  15.960  0.00  0.00    -0.056 A 
ATOM     29  C37 MOL d          17.956  33.174  14.846  0.00  0.00    -0.077 A 
ATOM     30  C36 MOL d          17.215  34.214  14.287  0.00  0.00    -0.082 A 
ATOM     31  H13 MOL d          18.908  32.894  14.410  0.00  0.00     0.084 H 
ATOM     32  C35 MOL d          15.990  34.574  14.836  0.00  0.00    -0.083 A 
ATOM     33  H14 MOL d          17.595  34.744  13.421  0.00  0.00     0.083 H 
ATOM     34  C34 MOL d          15.509  33.894  15.948  0.00  0.00    -0.082 A 
ATOM     35  H15 MOL d          15.413  35.381  14.399  0.00  0.00     0.083 H 
ATOM     36  C33 MOL d          16.252  32.853  16.500  0.00  0.00    -0.077 A 
ATOM     37  H16 MOL d          14.558  34.173  16.386  0.00  0.00     0.083 H 
ATOM     38  H17 MOL d          15.867  32.317  17.361  0.00  0.00     0.084 H 
ENDBRANCH  25  28
ENDBRANCH   3  25
ENDBRANCH   1   3
BRANCH   1  39
ATOM     39  O18 MOL d          16.946  29.651  14.899  0.00  0.00    -0.392 OA
ATOM     40  H19 MOL d          16.425  30.440  14.985  0.00  0.00     0.210 HD
ENDBRANCH   1  39
BRANCH   1  41
ATOM     41  C16 MOL d          18.854  28.719  13.771  0.00  0.00     0.019 C 
ATOM     42  H20 MOL d          18.057  28.067  13.385  0.00  0.00     0.061 H 
ATOM     43  H21 MOL d          19.428  28.182  14.540  0.00  0.00     0.061 H 
BRANCH  41  44
ATOM     44  N11 MOL d          19.758  29.114  12.658  0.00  0.00    -0.204 NA
BRANCH  44  45
ATOM     45  C12 MOL d          19.286  28.605  11.350  0.00  0.00    -0.004 C 
ATOM     46  H22 MOL d          19.952  27.793  11.022  0.00  0.00     0.058 H 
ATOM     47  H23 MOL d          19.318  29.424  10.617  0.00  0.00     0.058 H 
BRANCH  45  48
ATOM     48  C13 MOL d          17.847  28.066  11.432  0.00  0.00    -0.046 C 
ATOM     49  H24 MOL d          17.609  27.912  12.494  0.00  0.00     0.041 H 
BRANCH  48  50
ATOM     50  C14 MOL d          16.789  29.010  10.859  0.00  0.00    -0.072 C 
ATOM     51  H25 MOL d          17.104  30.052  11.016  0.00  0.00     0.028 H 
ATOM     52  H26 MOL d          15.829  28.837  11.369  0.00  0.00     0.028 H 
ATOM     53  H27 MOL d          16.672  28.821   9.782  0.00  0.00     0.028 H 
ENDBRANCH  48  50
BRANCH  48  54
ATOM     54  C15 MOL d          17.782  26.710  10.719  0.00  0.00    -0.064 C 
ATOM     55  H28 MOL d          18.593  26.668   9.978  0.00  0.00     0.033 H 
ATOM     56  H29 MOL d          16.812  26.633  10.206  0.00  0.00     0.033 H 
BRANCH  54  57
ATOM     57  C18 MOL d          17.925  25.520  11.655  0.00  0.00    -0.076 C 
ATOM     58  H30 MOL d          17.037  25.453  12.301  0.00  0.00     0.027 H 
ATOM     59  H31 MOL d          18.823  25.649  12.278  0.00  0.00     0.027 H 
ATOM     60  H32 MOL d          18.019  24.597  11.063  0.00  0.00     0.027 H 
ENDBRANCH  54  57
ENDBRANCH  48  54
ENDBRANCH  45  48
ENDBRANCH  44  45
BRANCH  44  61
ATOM     61  S8  MOL d          21.340  28.841  12.935  0.00  0.00     0.243 S 
ATOM     62  O10 MOL d          21.445  28.260  14.238  0.00  0.00    -0.206 OA
ATOM     63  O9  MOL d          21.989  30.124  12.799  0.00  0.00    -0.206 OA
BRANCH  61  64
ATOM     64  C5  MOL d          21.977  27.829  11.806  0.00  0.00     0.076 A 
ATOM     65  C6  MOL d          23.120  28.247  11.120  0.00  0.00    -0.059 A 
ATOM     66  C7  MOL d          23.753  27.421  10.193  0.00  0.00    -0.052 A 
ATOM     67  H33 MOL d          23.523  29.234  11.314  0.00  0.00     0.086 H 
ATOM     68  C2  MOL d          23.257  26.164   9.909  0.00  0.00     0.074 A 
ATOM     69  H34 MOL d          24.645  27.770   9.687  0.00  0.00     0.087 H 
ATOM     70  C3  MOL d          22.106  25.719  10.563  0.00  0.00     0.036 A 
ATOM     71  N1  MOL d          23.713  25.225   9.048  0.00  0.00    -0.253 NA
ATOM     72  C4  MOL d          21.479  26.552  11.505  0.00  0.00    -0.042 A 
ATOM     73  S1  MOL d          21.586  24.149  10.120  0.00  0.00    -0.081 SA
ATOM     74  H35 MOL d          20.587  26.199  12.011  0.00  0.00     0.088 H 
ATOM     75  C1  MOL d          22.949  24.120   9.044  0.00  0.00     0.041 A 
ATOM     76  H36 MOL d          23.170  23.264   8.409  0.00  0.00     0.126 H 
ENDBRANCH  61  64
ENDBRANCH  44  61
ENDBRANCH  41  44
ENDBRANCH   1  41
TORSDOF 17
ENDMDL
MODEL 10
REMARK VINA RESULT:      -6.9      2.535      7.166
REMARK  17 active torsions:
REMARK  status: ('A' for Active; 'I' for Inactive)
REMARK    1  A    between atoms: C24_4  and  C22_7 
REMARK    2  A    between atoms: C22_7  and  O23_8 
REMARK    3  A    between atoms: O23_8  and  C21_9 
REMARK       I    between atoms: C21_9  and  N20_11 
REMARK    4  A    between atoms: N20_11  and  C19_12 
REMARK    5  A    between atoms: C19_12  and  C32_13 
REMARK    6  A    between atoms: C19_12  and  C17_20 
REMARK    7  A    between atoms: C32_13  and  C38_14 
REMARK    8  A    between atoms: C17_20  and  O18_21 
REMARK    9  A    between atoms: C17_20  and  C16_22 
REMARK   10  A    between atoms: C16_22  and  N11_23 
REMARK   11  A    between atoms: N11_23  and  C12_24 
REMARK   12  A    between atoms: N11_23  and  S8_29 
REMARK   13  A    between atoms: C12_24  and  C13_25 
REMARK   14  A    between atoms: C13_25  and  C14_26 
REMARK   15  A    between atoms: C13_25  and  C15_27 
REMARK   16  A    between atoms: C15_27  and  C18_28 
REMARK   17  A    between atoms: S8_29  and  C5_32 
ROOT
ATOM      1  C17 MOL d          19.012  31.102  14.024  0.00  0.00     0.067 C 
ATOM      2  H18 MOL d          18.045  30.626  13.808  0.00  0.00     0.088 H 
ENDROOT
BRANCH   1   3
ATOM      3  C19 MOL d          18.758  32.595  14.250  0.00  0.00     0.044 C 
ATOM      4  H10 MOL d          18.005  32.920  13.516  0.00  0.00     0.077 H 
BRANCH   3   5
ATOM      5  N20 MOL d          18.229  32.801  15.589  0.00  0.00    -0.329 N 
ATOM      6  C21 MOL d          17.048  33.332  15.887  0.00  0.00     0.361 C 
ATOM      7  O22 MOL d          16.195  33.676  15.085  0.00  0.00    -0.239 OA
ATOM      8  H9  MOL d          18.807  32.519  16.354  0.00  0.00     0.165 HD
BRANCH   6   9
ATOM      9  O23 MOL d          16.791  33.543  17.301  0.00  0.00    -0.302 OA
BRANCH   9  10
ATOM     10  C22 MOL d          15.516  34.026  17.728  0.00  0.00     0.049 C 
ATOM     11  H7  MOL d          14.851  34.159  16.861  0.00  0.00     0.078 H 
ATOM     12  H8  MOL d          15.060  33.319  18.436  0.00  0.00     0.078 H 
BRANCH  10  13
ATOM     13  C24 MOL d          15.767  35.361  18.406  0.00  0.00     0.034 C 
ATOM     14  N29 MOL d          17.179  35.635  18.428  0.00  0.00    -0.354 N 
ATOM     15  C27 MOL d          17.546  36.632  17.643  0.00  0.00     0.218 C 
ATOM     16  H1  MOL d          17.825  35.117  18.988  0.00  0.00     0.162 HD
ATOM     17  O28 MOL d          18.677  37.029  17.486  0.00  0.00    -0.274 OA
ATOM     18  C26 MOL d          16.349  37.251  16.967  0.00  0.00     0.011 C 
ATOM     19  C25 MOL d          15.179  36.540  17.629  0.00  0.00    -0.036 C 
ATOM     20  H5  MOL d          16.364  37.062  15.883  0.00  0.00     0.047 H 
ATOM     21  H6  MOL d          16.307  38.335  17.149  0.00  0.00     0.047 H 
ATOM     22  H3  MOL d          14.658  37.224  18.315  0.00  0.00     0.036 H 
ATOM     23  H4  MOL d          14.474  36.177  16.866  0.00  0.00     0.036 H 
ATOM     24  H2  MOL d          15.356  35.332  19.425  0.00  0.00     0.075 H 
ENDBRANCH  10  13
ENDBRANCH   9  10
ENDBRANCH   6   9
ENDBRANCH   3   5
BRANCH   3  25
ATOM     25  C32 MOL d          19.997  33.479  14.078  0.00  0.00    -0.020 C 
ATOM     26  H11 MOL d          19.676  34.496  13.810  0.00  0.00     0.043 H 
ATOM     27  H12 MOL d          20.622  33.067  13.272  0.00  0.00     0.043 H 
BRANCH  25  28
ATOM     28  C38 MOL d          20.816  33.539  15.359  0.00  0.00    -0.056 A 
ATOM     29  C37 MOL d          21.695  32.506  15.660  0.00  0.00    -0.077 A 
ATOM     30  C36 MOL d          22.455  32.550  16.827  0.00  0.00    -0.082 A 
ATOM     31  H13 MOL d          21.789  31.663  14.985  0.00  0.00     0.084 H 
ATOM     32  C35 MOL d          22.345  33.631  17.693  0.00  0.00    -0.083 A 
ATOM     33  H14 MOL d          23.136  31.739  17.059  0.00  0.00     0.083 H 
ATOM     34  C34 MOL d          21.468  34.667  17.392  0.00  0.00    -0.082 A 
ATOM     35  H15 MOL d          22.939  33.666  18.600  0.00  0.00     0.083 H 
ATOM     36  C33 MOL d          20.714  34.620  16.223  0.00  0.00    -0.077 A 
ATOM     37  H16 MOL d          21.372  35.510  18.067  0.00  0.00     0.083 H 
ATOM     38  H17 MOL d          20.040  35.435  15.986  0.00  0.00     0.084 H 
ENDBRANCH  25  28
ENDBRANCH   3  25
ENDBRANCH   1   3
BRANCH   1  39
ATOM     39  O18 MOL d          19.562  30.514  15.207  0.00  0.00    -0.392 OA
ATOM     40  H19 MOL d          19.778  29.605  15.036  0.00  0.00     0.210 HD
ENDBRANCH   1  39
BRANCH   1  41
ATOM     41  C16 MOL d          19.962  30.811  12.854  0.00  0.00     0.019 C 
ATOM     42  H20 MOL d          20.953  31.238  13.067  0.00  0.00     0.061 H 
ATOM     43  H21 MOL d          19.561  31.257  11.932  0.00  0.00     0.061 H 
BRANCH  41  44
ATOM     44  N11 MOL d          20.078  29.338  12.686  0.00  0.00    -0.204 NA
BRANCH  44  45
ATOM     45  C12 MOL d          18.831  28.634  13.065  0.00  0.00    -0.004 C 
ATOM     46  H22 MOL d          18.035  29.378  13.219  0.00  0.00     0.058 H 
ATOM     47  H23 MOL d          19.004  28.083  14.000  0.00  0.00     0.058 H 
BRANCH  45  48
ATOM     48  C13 MOL d          18.381  27.643  11.977  0.00  0.00    -0.046 C 
ATOM     49  H24 MOL d          19.276  27.115  11.617  0.00  0.00     0.041 H 
BRANCH  48  50
ATOM     50  C14 MOL d          17.391  26.583  12.463  0.00  0.00    -0.072 C 
ATOM     51  H25 MOL d          16.877  26.948  13.364  0.00  0.00     0.028 H 
ATOM     52  H26 MOL d          17.934  25.656  12.701  0.00  0.00     0.028 H 
ATOM     53  H27 MOL d          16.651  26.383  11.674  0.00  0.00     0.028 H 
ENDBRANCH  48  50
BRANCH  48  54
ATOM     54  C15 MOL d          17.777  28.428  10.807  0.00  0.00    -0.064 C 
ATOM     55  H28 MOL d          17.711  27.759   9.937  0.00  0.00     0.033 H 
ATOM     56  H29 MOL d          18.445  29.271  10.573  0.00  0.00     0.033 H 
BRANCH  54  57
ATOM     57  C18 MOL d          16.390  28.981  11.093  0.00  0.00    -0.076 C 
ATOM     58  H30 MOL d          15.632  28.241  10.798  0.00  0.00     0.027 H 
ATOM     59  H31 MOL d          16.239  29.908  10.520  0.00  0.00     0.027 H 
ATOM     60  H32 MOL d          16.295  29.195  12.168  0.00  0.00     0.027 H 
ENDBRANCH  54  57
ENDBRANCH  48  54
ENDBRANCH  45  48
ENDBRANCH  44  45
BRANCH  44  61
ATOM     61  S8  MOL d          21.422  28.681  13.331  0.00  0.00     0.243 S 
ATOM     62  O10 MOL d          21.017  27.953  14.495  0.00  0.00    -0.206 OA
ATOM     63  O9  MOL d          22.309  29.789  13.599  0.00  0.00    -0.206 OA
BRANCH  61  64
ATOM     64  C5  MOL d          22.169  27.680  12.262  0.00  0.00     0.076 A 
ATOM     65  C6  MOL d          23.513  27.921  11.967  0.00  0.00    -0.059 A 
ATOM     66  C7  MOL d          24.231  27.081  11.117  0.00  0.00    -0.052 A 
ATOM     67  H33 MOL d          24.007  28.778  12.408  0.00  0.00     0.086 H 
ATOM     68  C2  MOL d          23.629  25.990  10.524  0.00  0.00     0.074 A 
ATOM     69  H34 MOL d          25.277  27.288  10.919  0.00  0.00     0.087 H 
ATOM     70  C3  MOL d          22.282  25.727  10.783  0.00  0.00     0.036 A 
ATOM     71  N1  MOL d          24.142  25.069   9.675  0.00  0.00    -0.253 NA
ATOM     72  C4  MOL d          21.566  26.571  11.648  0.00  0.00    -0.042 A 
ATOM     73  S1  MOL d          21.647  24.353   9.983  0.00  0.00    -0.081 SA
ATOM     74  H35 MOL d          20.521  26.361  11.847  0.00  0.00     0.088 H 
ATOM     75  C1  MOL d          23.233  24.153   9.304  0.00  0.00     0.041 A 
ATOM     76  H36 MOL d          23.475  23.339   8.622  0.00  0.00     0.126 H 
ENDBRANCH  61  64
ENDBRANCH  44  61
ENDBRANCH  41  44
ENDBRANCH   1  41
TORSDOF 17
ENDMDL
