MODEL 1
REMARK VINA RESULT:      -7.5      0.000      0.000
REMARK  19 active torsions:
REMARK  status: ('A' for Active; 'I' for Inactive)
REMARK    1  A    between atoms: NA1_2  and  OA7_3 
REMARK    2  A    between atoms: CA2_4  and  OA2_5 
REMARK    3  A    between atoms: CA3_6  and  OA3_7 
REMARK    4  A    between atoms: CA4_8  and  OA4_9 
REMARK    5  A    between atoms: OA4_9  and  CB1_14 
REMARK    6  A    between atoms: CA5_10  and  CA6_12 
REMARK    7  A    between atoms: CA6_12  and  OA6_13 
REMARK    8  A    between atoms: CB2_15  and  OB2_20 
REMARK    9  A    between atoms: CB3_16  and  OB3_21 
REMARK   10  A    between atoms: CB4_17  and  OB4_22 
REMARK   11  A    between atoms: CB5_18  and  CB6_19 
REMARK   12  A    between atoms: CB6_19  and  OB6_24 
REMARK   13  A    between atoms: OB4_22  and  CD1_25 
REMARK   14  A    between atoms: CD2_26  and  OD2_31 
REMARK   15  A    between atoms: CD3_27  and  OD3_32 
REMARK   16  A    between atoms: CD4_28  and  OD4_33 
REMARK   17  A    between atoms: CD5_29  and  CD6_30 
REMARK   18  A    between atoms: CD6_30  and  OD6_35 
REMARK   19  A    between atoms: OD4_33  and  CD7_36 
ROOT
ATOM      1  CB1 MOL d          13.579  17.605  40.169  0.00  0.00     0.159 C 
ATOM      2  CB2 MOL d          13.359  17.923  38.614  0.00  0.00     0.110 C 
ATOM      3  CB3 MOL d          13.447  16.637  37.712  0.00  0.00     0.092 C 
ATOM      4  CB4 MOL d          14.863  16.012  37.935  0.00  0.00     0.096 C 
ATOM      5  CB5 MOL d          14.974  15.615  39.551  0.00  0.00     0.089 C 
ATOM      6  OB5 MOL d          14.846  16.853  40.355  0.00  0.00    -0.348 OA
ATOM      7  H12 MOL d          13.652  18.550  40.727  0.00  0.00     0.133 H 
ATOM      8  H13 MOL d          14.155  18.608  38.287  0.00  0.00     0.094 H 
ATOM      9  H14 MOL d          12.669  15.914  37.998  0.00  0.00     0.091 H 
ATOM     10  H15 MOL d          15.649  16.733  37.666  0.00  0.00     0.091 H 
ATOM     11  H16 MOL d          14.165  14.914  39.803  0.00  0.00     0.090 H 
ENDROOT
BRANCH   4  12
ATOM     12  OB4 MOL d          14.977  14.851  37.131  0.00  0.00    -0.348 OA
BRANCH  12  13
ATOM     13  CD1 MOL d          16.143  14.931  36.244  0.00  0.00     0.159 C 
ATOM     14  CD2 MOL d          15.799  14.908  34.700  0.00  0.00     0.110 C 
ATOM     15  CD3 MOL d          15.101  13.519  34.367  0.00  0.00     0.092 C 
ATOM     16  H23 MOL d          16.717  15.011  34.102  0.00  0.00     0.094 H 
ATOM     17  CD4 MOL d          16.108  12.368  34.685  0.00  0.00     0.092 C 
ATOM     18  H24 MOL d          14.186  13.402  34.967  0.00  0.00     0.091 H 
ATOM     19  CD5 MOL d          16.492  12.432  36.275  0.00  0.00     0.089 C 
ATOM     20  H25 MOL d          17.016  12.496  34.076  0.00  0.00     0.091 H 
ATOM     21  OD5 MOL d          17.074  13.786  36.562  0.00  0.00    -0.348 OA
ATOM     22  H26 MOL d          15.581  12.290  36.874  0.00  0.00     0.090 H 
ATOM     23  H22 MOL d          16.661  15.878  36.456  0.00  0.00     0.133 H 
BRANCH  14  24
ATOM     24  OD2 MOL d          14.921  16.021  34.439  0.00  0.00    -0.388 OA
ATOM     25  H29 MOL d          14.109  15.701  34.062  0.00  0.00     0.210 HD
ENDBRANCH  14  24
BRANCH  15  26
ATOM     26  OD3 MOL d          14.790  13.470  32.998  0.00  0.00    -0.390 OA
ATOM     27  H30 MOL d          14.254  14.221  32.769  0.00  0.00     0.210 HD
ENDBRANCH  15  26
BRANCH  17  28
ATOM     28  OD4 MOL d          15.505  11.060  34.396  0.00  0.00    -0.385 OA
BRANCH  28  29
ATOM     29  CD7 MOL d          16.218  10.269  33.408  0.00  0.00     0.005 C 
ATOM     30  H32 MOL d          16.794   9.480  33.915  0.00  0.00     0.066 H 
ATOM     31  H33 MOL d          16.904  10.918  32.844  0.00  0.00     0.066 H 
ATOM     32  H34 MOL d          15.497   9.809  32.716  0.00  0.00     0.066 H 
ENDBRANCH  28  29
ENDBRANCH  17  28
BRANCH  19  33
ATOM     33  CD6 MOL d          17.519  11.323  36.645  0.00  0.00     0.043 C 
ATOM     34  H27 MOL d          17.388  10.472  35.959  0.00  0.00     0.078 H 
ATOM     35  H28 MOL d          17.332  10.994  37.678  0.00  0.00     0.078 H 
BRANCH  33  36
ATOM     36  OD6 MOL d          18.867  11.796  36.545  0.00  0.00    -0.398 OA
ATOM     37  H31 MOL d          19.392  11.157  36.077  0.00  0.00     0.209 HD
ENDBRANCH  33  36
ENDBRANCH  19  33
ENDBRANCH  12  13
ENDBRANCH   4  12
BRANCH   3  38
ATOM     38  OB3 MOL d          13.261  17.031  36.330  0.00  0.00    -0.390 OA
ATOM     39  H20 MOL d          13.854  16.533  35.778  0.00  0.00     0.210 HD
ENDBRANCH   3  38
BRANCH   5  40
ATOM     40  CB6 MOL d          16.308  14.989  39.910  0.00  0.00     0.043 C 
ATOM     41  H17 MOL d          16.392  14.922  41.004  0.00  0.00     0.078 H 
ATOM     42  H18 MOL d          17.119  15.620  39.518  0.00  0.00     0.078 H 
BRANCH  40  43
ATOM     43  OB6 MOL d          16.416  13.717  39.366  0.00  0.00    -0.398 OA
ATOM     44  H21 MOL d          17.299  13.587  39.041  0.00  0.00     0.209 HD
ENDBRANCH  40  43
ENDBRANCH   5  40
BRANCH   2  45
ATOM     45  OB2 MOL d          12.089  18.603  38.477  0.00  0.00    -0.388 OA
ATOM     46  H19 MOL d          11.553  18.144  37.842  0.00  0.00     0.210 HD
ENDBRANCH   2  45
BRANCH   1  47
ATOM     47  OA4 MOL d          12.446  16.886  40.635  0.00  0.00    -0.348 OA
BRANCH  47  48
ATOM     48  CA4 MOL d          12.369  16.818  41.957  0.00  0.00     0.090 C 
ATOM     49  CA3 MOL d          11.453  17.984  42.480  0.00  0.00     0.094 C 
ATOM     50  CA2 MOL d          10.917  17.648  43.917  0.00  0.00     0.121 C 
ATOM     51  H4  MOL d          10.593  18.067  41.799  0.00  0.00     0.091 H 
ATOM     52  CA1 MOL d          10.213  16.279  43.871  0.00  0.00     0.159 C 
ATOM     53  H2  MOL d          11.793  17.552  44.575  0.00  0.00     0.099 H 
ATOM     54  NA1 MOL d           9.153  16.089  44.643  0.00  0.00    -0.120 NA
ATOM     55  NA5 MOL d          10.695  15.223  43.037  0.00  0.00    -0.365 N 
ATOM     56  CA5 MOL d          11.831  15.431  42.120  0.00  0.00     0.059 C 
ATOM     57  H8  MOL d          10.241  14.300  43.077  0.00  0.00     0.161 HD
ATOM     58  H7  MOL d          11.521  15.087  41.122  0.00  0.00     0.079 H 
ATOM     59  H6  MOL d          13.357  16.904  42.431  0.00  0.00     0.090 H 
BRANCH  49  60
ATOM     60  OA3 MOL d          12.076  19.155  42.496  0.00  0.00    -0.390 OA
ATOM     61  H5  MOL d          12.181  19.445  43.395  0.00  0.00     0.210 HD
ENDBRANCH  49  60
BRANCH  50  62
ATOM     62  OA2 MOL d          10.136  18.597  44.457  0.00  0.00    -0.385 OA
ATOM     63  H3  MOL d          10.248  19.409  43.977  0.00  0.00     0.210 HD
ENDBRANCH  50  62
BRANCH  54  64
ATOM     64  OA7 MOL d           8.561  14.907  44.586  0.00  0.00    -0.265 OA
ATOM     65  H1  MOL d           9.108  14.259  45.015  0.00  0.00     0.247 HD
ENDBRANCH  54  64
BRANCH  56  66
ATOM     66  CA6 MOL d          12.978  14.516  42.658  0.00  0.00     0.038 C 
ATOM     67  H9  MOL d          13.750  14.412  41.882  0.00  0.00     0.077 H 
ATOM     68  H10 MOL d          12.565  13.525  42.899  0.00  0.00     0.077 H 
BRANCH  66  69
ATOM     69  OA6 MOL d          13.542  15.054  43.786  0.00  0.00    -0.399 OA
ATOM     70  H11 MOL d          13.589  15.999  43.694  0.00  0.00     0.209 HD
ENDBRANCH  66  69
ENDBRANCH  56  66
ENDBRANCH  47  48
ENDBRANCH   1  47
TORSDOF 19
ENDMDL
MODEL 2
REMARK VINA RESULT:      -6.5      1.498      2.293
REMARK  19 active torsions:
REMARK  status: ('A' for Active; 'I' for Inactive)
REMARK    1  A    between atoms: NA1_2  and  OA7_3 
REMARK    2  A    between atoms: CA2_4  and  OA2_5 
REMARK    3  A    between atoms: CA3_6  and  OA3_7 
REMARK    4  A    between atoms: CA4_8  and  OA4_9 
REMARK    5  A    between atoms: OA4_9  and  CB1_14 
REMARK    6  A    between atoms: CA5_10  and  CA6_12 
REMARK    7  A    between atoms: CA6_12  and  OA6_13 
REMARK    8  A    between atoms: CB2_15  and  OB2_20 
REMARK    9  A    between atoms: CB3_16  and  OB3_21 
REMARK   10  A    between atoms: CB4_17  and  OB4_22 
REMARK   11  A    between atoms: CB5_18  and  CB6_19 
REMARK   12  A    between atoms: CB6_19  and  OB6_24 
REMARK   13  A    between atoms: OB4_22  and  CD1_25 
REMARK   14  A    between atoms: CD2_26  and  OD2_31 
REMARK   15  A    between atoms: CD3_27  and  OD3_32 
REMARK   16  A    between atoms: CD4_28  and  OD4_33 
REMARK   17  A    between atoms: CD5_29  and  CD6_30 
REMARK   18  A    between atoms: CD6_30  and  OD6_35 
REMARK   19  A    between atoms: OD4_33  and  CD7_36 
ROOT
ATOM      1  CB1 MOL d          12.381  16.543  39.577  0.00  0.00     0.159 C 
ATOM      2  CB2 MOL d          12.299  16.951  38.029  0.00  0.00     0.110 C 
ATOM      3  CB3 MOL d          12.801  15.809  37.071  0.00  0.00     0.092 C 
ATOM      4  CB4 MOL d          14.282  15.496  37.463  0.00  0.00     0.096 C 
ATOM      5  CB5 MOL d          14.271  14.981  39.049  0.00  0.00     0.089 C 
ATOM      6  OB5 MOL d          13.753  16.076  39.901  0.00  0.00    -0.348 OA
ATOM      7  H12 MOL d          12.158  17.423  40.197  0.00  0.00     0.133 H 
ATOM      8  H13 MOL d          12.949  17.824  37.868  0.00  0.00     0.094 H 
ATOM      9  H14 MOL d          12.183  14.907  37.192  0.00  0.00     0.091 H 
ATOM     10  H15 MOL d          14.906  16.395  37.361  0.00  0.00     0.091 H 
ATOM     11  H16 MOL d          13.622  14.097  39.133  0.00  0.00     0.090 H 
ENDROOT
BRANCH   4  12
ATOM     12  OB4 MOL d          14.769  14.471  36.613  0.00  0.00    -0.348 OA
BRANCH  12  13
ATOM     13  CD1 MOL d          16.061  14.839  36.024  0.00  0.00     0.159 C 
ATOM     14  CD2 MOL d          16.065  14.916  34.444  0.00  0.00     0.110 C 
ATOM     15  CD3 MOL d          15.728  13.469  33.874  0.00  0.00     0.092 C 
ATOM     16  H23 MOL d          17.053  15.234  34.079  0.00  0.00     0.094 H 
ATOM     17  CD4 MOL d          16.843  12.480  34.342  0.00  0.00     0.092 C 
ATOM     18  H24 MOL d          14.745  13.138  34.241  0.00  0.00     0.091 H 
ATOM     19  CD5 MOL d          16.859  12.446  35.978  0.00  0.00     0.089 C 
ATOM     20  H25 MOL d          17.819  12.822  33.966  0.00  0.00     0.091 H 
ATOM     21  OD5 MOL d          17.101  13.842  36.474  0.00  0.00    -0.348 OA
ATOM     22  H26 MOL d          15.885  12.090  36.344  0.00  0.00     0.090 H 
ATOM     23  H22 MOL d          16.333  15.833  36.407  0.00  0.00     0.133 H 
BRANCH  14  24
ATOM     24  OD2 MOL d          15.069  15.884  34.058  0.00  0.00    -0.388 OA
ATOM     25  H29 MOL d          15.490  16.717  33.880  0.00  0.00     0.210 HD
ENDBRANCH  14  24
BRANCH  15  26
ATOM     26  OD3 MOL d          15.731  13.510  32.470  0.00  0.00    -0.390 OA
ATOM     27  H30 MOL d          15.050  14.100  32.169  0.00  0.00     0.210 HD
ENDBRANCH  15  26
BRANCH  17  28
ATOM     28  OD4 MOL d          16.572  11.125  33.842  0.00  0.00    -0.385 OA
BRANCH  28  29
ATOM     29  CD7 MOL d          15.239  10.628  34.133  0.00  0.00     0.005 C 
ATOM     30  H32 MOL d          14.858  11.110  35.046  0.00  0.00     0.066 H 
ATOM     31  H33 MOL d          15.278   9.539  34.283  0.00  0.00     0.066 H 
ATOM     32  H34 MOL d          14.569  10.858  33.290  0.00  0.00     0.066 H 
ENDBRANCH  28  29
ENDBRANCH  17  28
BRANCH  19  33
ATOM     33  CD6 MOL d          17.974  11.495  36.504  0.00  0.00     0.043 C 
ATOM     34  H27 MOL d          17.846  10.505  36.040  0.00  0.00     0.078 H 
ATOM     35  H28 MOL d          17.879  11.403  37.596  0.00  0.00     0.078 H 
BRANCH  33  36
ATOM     36  OD6 MOL d          19.281  11.989  36.192  0.00  0.00    -0.398 OA
ATOM     37  H31 MOL d          19.346  12.139  35.256  0.00  0.00     0.209 HD
ENDBRANCH  33  36
ENDBRANCH  19  33
ENDBRANCH  12  13
ENDBRANCH   4  12
BRANCH   3  38
ATOM     38  OB3 MOL d          12.711  16.282  35.704  0.00  0.00    -0.390 OA
ATOM     39  H20 MOL d          13.534  16.116  35.259  0.00  0.00     0.210 HD
ENDBRANCH   3  38
BRANCH   5  40
ATOM     40  CB6 MOL d          15.655  14.635  39.563  0.00  0.00     0.043 C 
ATOM     41  H17 MOL d          16.380  15.360  39.164  0.00  0.00     0.078 H 
ATOM     42  H18 MOL d          15.924  13.624  39.223  0.00  0.00     0.078 H 
BRANCH  40  43
ATOM     43  OB6 MOL d          15.688  14.674  40.949  0.00  0.00    -0.398 OA
ATOM     44  H21 MOL d          14.920  15.132  41.270  0.00  0.00     0.209 HD
ENDBRANCH  40  43
ENDBRANCH   5  40
BRANCH   2  45
ATOM     45  OB2 MOL d          10.934  17.342  37.748  0.00  0.00    -0.388 OA
ATOM     46  H19 MOL d          10.553  16.732  37.128  0.00  0.00     0.210 HD
ENDBRANCH   2  45
BRANCH   1  47
ATOM     47  OA4 MOL d          11.396  15.549  39.822  0.00  0.00    -0.348 OA
BRANCH  47  48
ATOM     48  CA4 MOL d          11.028  15.472  41.093  0.00  0.00     0.090 C 
ATOM     49  CA3 MOL d          12.311  15.435  42.000  0.00  0.00     0.094 C 
ATOM     50  CA2 MOL d          11.952  15.865  43.466  0.00  0.00     0.121 C 
ATOM     51  H4  MOL d          13.032  16.160  41.592  0.00  0.00     0.091 H 
ATOM     52  CA1 MOL d          11.265  17.243  43.420  0.00  0.00     0.159 C 
ATOM     53  H2  MOL d          11.219  15.138  43.846  0.00  0.00     0.099 H 
ATOM     54  NA1 MOL d          11.485  18.092  44.412  0.00  0.00    -0.120 NA
ATOM     55  NA5 MOL d          10.389  17.600  42.348  0.00  0.00    -0.365 N 
ATOM     56  CA5 MOL d          10.179  16.699  41.198  0.00  0.00     0.059 C 
ATOM     57  H8  MOL d           9.895  18.503  42.378  0.00  0.00     0.161 HD
ATOM     58  H7  MOL d          10.344  17.285  40.282  0.00  0.00     0.079 H 
ATOM     59  H6  MOL d          10.428  14.572  41.293  0.00  0.00     0.090 H 
BRANCH  49  60
ATOM     60  OA3 MOL d          12.895  14.243  42.012  0.00  0.00    -0.390 OA
ATOM     61  H5  MOL d          13.347  14.104  41.188  0.00  0.00     0.210 HD
ENDBRANCH  49  60
BRANCH  50  62
ATOM     62  OA2 MOL d          12.986  15.848  44.322  0.00  0.00    -0.385 OA
ATOM     63  H3  MOL d          13.081  16.705  44.719  0.00  0.00     0.210 HD
ENDBRANCH  50  62
BRANCH  54  64
ATOM     64  OA7 MOL d          10.888  19.271  44.351  0.00  0.00    -0.265 OA
ATOM     65  H1  MOL d          10.698  19.482  43.444  0.00  0.00     0.247 HD
ENDBRANCH  54  64
BRANCH  56  66
ATOM     66  CA6 MOL d           8.681  16.261  41.277  0.00  0.00     0.038 C 
ATOM     67  H9  MOL d           8.165  16.575  40.359  0.00  0.00     0.077 H 
ATOM     68  H10 MOL d           8.210  16.743  42.147  0.00  0.00     0.077 H 
BRANCH  66  69
ATOM     69  OA6 MOL d           8.579  14.899  41.407  0.00  0.00    -0.399 OA
ATOM     70  H11 MOL d           9.408  14.497  41.174  0.00  0.00     0.209 HD
ENDBRANCH  66  69
ENDBRANCH  56  66
ENDBRANCH  47  48
ENDBRANCH   1  47
TORSDOF 19
ENDMDL
MODEL 3
REMARK VINA RESULT:      -5.7      3.080      8.919
REMARK  19 active torsions:
REMARK  status: ('A' for Active; 'I' for Inactive)
REMARK    1  A    between atoms: NA1_2  and  OA7_3 
REMARK    2  A    between atoms: CA2_4  and  OA2_5 
REMARK    3  A    between atoms: CA3_6  and  OA3_7 
REMARK    4  A    between atoms: CA4_8  and  OA4_9 
REMARK    5  A    between atoms: OA4_9  and  CB1_14 
REMARK    6  A    between atoms: CA5_10  and  CA6_12 
REMARK    7  A    between atoms: CA6_12  and  OA6_13 
REMARK    8  A    between atoms: CB2_15  and  OB2_20 
REMARK    9  A    between atoms: CB3_16  and  OB3_21 
REMARK   10  A    between atoms: CB4_17  and  OB4_22 
REMARK   11  A    between atoms: CB5_18  and  CB6_19 
REMARK   12  A    between atoms: CB6_19  and  OB6_24 
REMARK   13  A    between atoms: OB4_22  and  CD1_25 
REMARK   14  A    between atoms: CD2_26  and  OD2_31 
REMARK   15  A    between atoms: CD3_27  and  OD3_32 
REMARK   16  A    between atoms: CD4_28  and  OD4_33 
REMARK   17  A    between atoms: CD5_29  and  CD6_30 
REMARK   18  A    between atoms: CD6_30  and  OD6_35 
REMARK   19  A    between atoms: OD4_33  and  CD7_36 
ROOT
ATOM      1  CB1 MOL d          15.747  15.054  37.592  0.00  0.00     0.159 C 
ATOM      2  CB2 MOL d          16.048  14.776  39.141  0.00  0.00     0.110 C 
ATOM      3  CB3 MOL d          14.747  14.789  40.025  0.00  0.00     0.092 C 
ATOM      4  CB4 MOL d          14.086  16.195  39.853  0.00  0.00     0.096 C 
ATOM      5  CB5 MOL d          13.709  16.366  38.238  0.00  0.00     0.089 C 
ATOM      6  OB5 MOL d          14.962  16.306  37.449  0.00  0.00    -0.348 OA
ATOM      7  H12 MOL d          16.698  15.177  37.053  0.00  0.00     0.133 H 
ATOM      8  H13 MOL d          16.705  15.576  39.513  0.00  0.00     0.094 H 
ATOM      9  H14 MOL d          14.050  14.004  39.695  0.00  0.00     0.091 H 
ATOM     10  H15 MOL d          14.780  16.989  40.167  0.00  0.00     0.091 H 
ATOM     11  H16 MOL d          13.036  15.549  37.940  0.00  0.00     0.090 H 
ENDROOT
BRANCH   4  12
ATOM     12  OB4 MOL d          12.910  16.243  40.643  0.00  0.00    -0.348 OA
BRANCH  12  13
ATOM     13  CD1 MOL d          12.422  14.894  40.953  0.00  0.00     0.159 C 
ATOM     14  CD2 MOL d          11.138  14.456  40.140  0.00  0.00     0.110 C 
ATOM     15  CD3 MOL d           9.948  15.441  40.521  0.00  0.00     0.092 C 
ATOM     16  H23 MOL d          10.857  13.424  40.396  0.00  0.00     0.094 H 
ATOM     17  CD4 MOL d           9.659  15.303  42.050  0.00  0.00     0.092 C 
ATOM     18  H24 MOL d          10.223  16.478  40.277  0.00  0.00     0.091 H 
ATOM     19  CD5 MOL d          11.011  15.714  42.877  0.00  0.00     0.089 C 
ATOM     20  H25 MOL d           9.383  14.263  42.279  0.00  0.00     0.091 H 
ATOM     21  OD5 MOL d          12.126  14.813  42.431  0.00  0.00    -0.348 OA
ATOM     22  H26 MOL d          11.271  16.758  42.652  0.00  0.00     0.090 H 
ATOM     23  H22 MOL d          13.227  14.184  40.713  0.00  0.00     0.133 H 
BRANCH  14  24
ATOM     24  OD2 MOL d          11.467  14.537  38.739  0.00  0.00    -0.388 OA
ATOM     25  H29 MOL d          11.300  15.419  38.426  0.00  0.00     0.210 HD
ENDBRANCH  14  24
BRANCH  15  26
ATOM     26  OD3 MOL d           8.791  15.069  39.816  0.00  0.00    -0.390 OA
ATOM     27  H30 MOL d           9.026  14.836  38.925  0.00  0.00     0.210 HD
ENDBRANCH  15  26
BRANCH  17  28
ATOM     28  OD4 MOL d           8.567  16.200  42.452  0.00  0.00    -0.385 OA
BRANCH  28  29
ATOM     29  CD7 MOL d           8.632  17.530  41.871  0.00  0.00     0.005 C 
ATOM     30  H32 MOL d           9.270  18.172  42.495  0.00  0.00     0.066 H 
ATOM     31  H33 MOL d           7.619  17.957  41.820  0.00  0.00     0.066 H 
ATOM     32  H34 MOL d           9.055  17.467  40.857  0.00  0.00     0.066 H 
ENDBRANCH  28  29
ENDBRANCH  17  28
BRANCH  19  33
ATOM     33  CD6 MOL d          10.791  15.566  44.411  0.00  0.00     0.043 C 
ATOM     34  H27 MOL d          11.751  15.722  44.926  0.00  0.00     0.078 H 
ATOM     35  H28 MOL d          10.422  14.552  44.623  0.00  0.00     0.078 H 
BRANCH  33  36
ATOM     36  OD6 MOL d           9.841  16.519  44.903  0.00  0.00    -0.398 OA
ATOM     37  H31 MOL d           9.603  17.116  44.204  0.00  0.00     0.209 HD
ENDBRANCH  33  36
ENDBRANCH  19  33
ENDBRANCH  12  13
ENDBRANCH   4  12
BRANCH   3  38
ATOM     38  OB3 MOL d          15.125  14.555  41.405  0.00  0.00    -0.390 OA
ATOM     39  H20 MOL d          15.383  13.646  41.511  0.00  0.00     0.210 HD
ENDBRANCH   3  38
BRANCH   5  40
ATOM     40  CB6 MOL d          13.051  17.695  37.926  0.00  0.00     0.043 C 
ATOM     41  H17 MOL d          13.379  18.037  36.934  0.00  0.00     0.078 H 
ATOM     42  H18 MOL d          13.351  18.433  38.685  0.00  0.00     0.078 H 
BRANCH  40  43
ATOM     43  OB6 MOL d          11.669  17.573  37.931  0.00  0.00    -0.398 OA
ATOM     44  H21 MOL d          11.400  17.012  37.213  0.00  0.00     0.209 HD
ENDBRANCH  40  43
ENDBRANCH   5  40
BRANCH   2  45
ATOM     45  OB2 MOL d          16.761  13.521  39.234  0.00  0.00    -0.388 OA
ATOM     46  H19 MOL d          16.829  13.263  40.146  0.00  0.00     0.210 HD
ENDBRANCH   2  45
BRANCH   1  47
ATOM     47  OA4 MOL d          15.067  13.922  37.067  0.00  0.00    -0.348 OA
BRANCH  47  48
ATOM     48  CA4 MOL d          15.468  13.583  35.850  0.00  0.00     0.090 C 
ATOM     49  CA3 MOL d          16.481  12.384  35.956  0.00  0.00     0.094 C 
ATOM     50  CA2 MOL d          16.570  11.627  34.585  0.00  0.00     0.121 C 
ATOM     51  H4  MOL d          16.096  11.686  36.714  0.00  0.00     0.091 H 
ATOM     52  CA1 MOL d          15.150  11.203  34.164  0.00  0.00     0.159 C 
ATOM     53  H2  MOL d          16.938  12.347  33.840  0.00  0.00     0.099 H 
ATOM     54  NA1 MOL d          14.999  10.056  33.519  0.00  0.00    -0.120 NA
ATOM     55  NA5 MOL d          14.017  12.030  34.437  0.00  0.00    -0.365 N 
ATOM     56  CA5 MOL d          14.149  13.278  35.212  0.00  0.00     0.059 C 
ATOM     57  H8  MOL d          13.090  11.749  34.087  0.00  0.00     0.161 HD
ATOM     58  H7  MOL d          13.400  13.251  36.017  0.00  0.00     0.079 H 
ATOM     59  H6  MOL d          15.961  14.418  35.331  0.00  0.00     0.090 H 
BRANCH  49  60
ATOM     60  OA3 MOL d          17.692  12.771  36.335  0.00  0.00    -0.390 OA
ATOM     61  H5  MOL d          17.653  13.109  37.222  0.00  0.00     0.210 HD
ENDBRANCH  49  60
BRANCH  50  62
ATOM     62  OA2 MOL d          17.427  10.593  34.573  0.00  0.00    -0.385 OA
ATOM     63  H3  MOL d          18.281  10.888  34.863  0.00  0.00     0.210 HD
ENDBRANCH  50  62
BRANCH  54  64
ATOM     64  OA7 MOL d          13.771   9.709  33.169  0.00  0.00    -0.265 OA
ATOM     65  H1  MOL d          13.472  10.273  32.466  0.00  0.00     0.247 HD
ENDBRANCH  54  64
BRANCH  56  66
ATOM     66  CA6 MOL d          13.804  14.430  34.214  0.00  0.00     0.038 C 
ATOM     67  H9  MOL d          12.716  14.457  34.056  0.00  0.00     0.077 H 
ATOM     68  H10 MOL d          14.310  14.240  33.255  0.00  0.00     0.077 H 
BRANCH  66  69
ATOM     69  OA6 MOL d          14.217  15.641  34.707  0.00  0.00    -0.399 OA
ATOM     70  H11 MOL d          14.747  15.502  35.484  0.00  0.00     0.209 HD
ENDBRANCH  66  69
ENDBRANCH  56  66
ENDBRANCH  47  48
ENDBRANCH   1  47
TORSDOF 19
ENDMDL
MODEL 4
REMARK VINA RESULT:      -5.7      2.028      3.669
REMARK  19 active torsions:
REMARK  status: ('A' for Active; 'I' for Inactive)
REMARK    1  A    between atoms: NA1_2  and  OA7_3 
REMARK    2  A    between atoms: CA2_4  and  OA2_5 
REMARK    3  A    between atoms: CA3_6  and  OA3_7 
REMARK    4  A    between atoms: CA4_8  and  OA4_9 
REMARK    5  A    between atoms: OA4_9  and  CB1_14 
REMARK    6  A    between atoms: CA5_10  and  CA6_12 
REMARK    7  A    between atoms: CA6_12  and  OA6_13 
REMARK    8  A    between atoms: CB2_15  and  OB2_20 
REMARK    9  A    between atoms: CB3_16  and  OB3_21 
REMARK   10  A    between atoms: CB4_17  and  OB4_22 
REMARK   11  A    between atoms: CB5_18  and  CB6_19 
REMARK   12  A    between atoms: CB6_19  and  OB6_24 
REMARK   13  A    between atoms: OB4_22  and  CD1_25 
REMARK   14  A    between atoms: CD2_26  and  OD2_31 
REMARK   15  A    between atoms: CD3_27  and  OD3_32 
REMARK   16  A    between atoms: CD4_28  and  OD4_33 
REMARK   17  A    between atoms: CD5_29  and  CD6_30 
REMARK   18  A    between atoms: CD6_30  and  OD6_35 
REMARK   19  A    between atoms: OD4_33  and  CD7_36 
ROOT
ATOM      1  CB1 MOL d          13.329  14.656  39.818  0.00  0.00     0.159 C 
ATOM      2  CB2 MOL d          14.837  14.548  39.285  0.00  0.00     0.110 C 
ATOM      3  CB3 MOL d          15.220  15.718  38.305  0.00  0.00     0.092 C 
ATOM      4  CB4 MOL d          14.222  15.659  37.103  0.00  0.00     0.096 C 
ATOM      5  CB5 MOL d          12.691  15.882  37.725  0.00  0.00     0.089 C 
ATOM      6  OB5 MOL d          12.397  14.778  38.669  0.00  0.00    -0.348 OA
ATOM      7  H12 MOL d          13.075  13.743  40.376  0.00  0.00     0.133 H 
ATOM      8  H13 MOL d          14.938  13.606  38.726  0.00  0.00     0.094 H 
ATOM      9  H14 MOL d          15.136  16.689  38.815  0.00  0.00     0.091 H 
ATOM     10  H15 MOL d          14.287  14.686  36.595  0.00  0.00     0.091 H 
ATOM     11  H16 MOL d          12.656  16.847  38.250  0.00  0.00     0.090 H 
ENDROOT
BRANCH   4  12
ATOM     12  OB4 MOL d          14.543  16.700  36.196  0.00  0.00    -0.348 OA
BRANCH  12  13
ATOM     13  CD1 MOL d          15.215  16.175  35.002  0.00  0.00     0.159 C 
ATOM     14  CD2 MOL d          14.474  16.486  33.640  0.00  0.00     0.110 C 
ATOM     15  CD3 MOL d          13.050  15.779  33.676  0.00  0.00     0.092 C 
ATOM     16  H23 MOL d          15.056  16.097  32.790  0.00  0.00     0.094 H 
ATOM     17  CD4 MOL d          13.263  14.237  33.803  0.00  0.00     0.092 C 
ATOM     18  H24 MOL d          12.463  16.155  34.528  0.00  0.00     0.091 H 
ATOM     19  CD5 MOL d          14.072  13.934  35.194  0.00  0.00     0.089 C 
ATOM     20  H25 MOL d          13.848  13.876  32.944  0.00  0.00     0.091 H 
ATOM     21  OD5 MOL d          15.373  14.681  35.151  0.00  0.00    -0.348 OA
ATOM     22  H26 MOL d          13.474  14.287  36.046  0.00  0.00     0.090 H 
ATOM     23  H22 MOL d          16.214  16.634  34.951  0.00  0.00     0.133 H 
BRANCH  14  24
ATOM     24  OD2 MOL d          14.355  17.918  33.532  0.00  0.00    -0.388 OA
ATOM     25  H29 MOL d          13.548  18.136  33.080  0.00  0.00     0.210 HD
ENDBRANCH  14  24
BRANCH  15  26
ATOM     26  OD3 MOL d          12.372  16.036  32.472  0.00  0.00    -0.390 OA
ATOM     27  H30 MOL d          11.752  15.335  32.303  0.00  0.00     0.210 HD
ENDBRANCH  15  26
BRANCH  17  28
ATOM     28  OD4 MOL d          11.971  13.540  33.845  0.00  0.00    -0.385 OA
BRANCH  28  29
ATOM     29  CD7 MOL d          11.751  12.606  32.753  0.00  0.00     0.005 C 
ATOM     30  H32 MOL d          11.562  11.602  33.161  0.00  0.00     0.066 H 
ATOM     31  H33 MOL d          12.643  12.578  32.110  0.00  0.00     0.066 H 
ATOM     32  H34 MOL d          10.882  12.932  32.162  0.00  0.00     0.066 H 
ENDBRANCH  28  29
ENDBRANCH  17  28
BRANCH  19  33
ATOM     33  CD6 MOL d          14.340  12.409  35.360  0.00  0.00     0.043 C 
ATOM     34  H27 MOL d          15.028  12.080  34.567  0.00  0.00     0.078 H 
ATOM     35  H28 MOL d          13.387  11.868  35.267  0.00  0.00     0.078 H 
BRANCH  33  36
ATOM     36  OD6 MOL d          14.922  12.111  36.634  0.00  0.00    -0.398 OA
ATOM     37  H31 MOL d          14.426  11.416  37.052  0.00  0.00     0.209 HD
ENDBRANCH  33  36
ENDBRANCH  19  33
ENDBRANCH  12  13
ENDBRANCH   4  12
BRANCH   3  38
ATOM     38  OB3 MOL d          16.585  15.518  37.861  0.00  0.00    -0.390 OA
ATOM     39  H20 MOL d          16.804  16.175  37.210  0.00  0.00     0.210 HD
ENDBRANCH   3  38
BRANCH   5  40
ATOM     40  CB6 MOL d          11.614  15.852  36.658  0.00  0.00     0.043 C 
ATOM     41  H17 MOL d          10.905  15.041  36.883  0.00  0.00     0.078 H 
ATOM     42  H18 MOL d          12.081  15.668  35.679  0.00  0.00     0.078 H 
BRANCH  40  43
ATOM     43  OB6 MOL d          10.930  17.057  36.617  0.00  0.00    -0.398 OA
ATOM     44  H21 MOL d          10.407  17.097  35.824  0.00  0.00     0.209 HD
ENDBRANCH  40  43
ENDBRANCH   5  40
BRANCH   2  45
ATOM     45  OB2 MOL d          15.710  14.490  40.437  0.00  0.00    -0.388 OA
ATOM     46  H19 MOL d          15.370  15.057  41.119  0.00  0.00     0.210 HD
ENDBRANCH   2  45
BRANCH   1  47
ATOM     47  OA4 MOL d          13.254  15.766  40.701  0.00  0.00    -0.348 OA
BRANCH  47  48
ATOM     48  CA4 MOL d          12.065  15.912  41.267  0.00  0.00     0.090 C 
ATOM     49  CA3 MOL d          12.113  15.328  42.726  0.00  0.00     0.094 C 
ATOM     50  CA2 MOL d          10.948  15.929  43.590  0.00  0.00     0.121 C 
ATOM     51  H4  MOL d          13.071  15.629  43.178  0.00  0.00     0.091 H 
ATOM     52  CA1 MOL d          11.037  17.465  43.534  0.00  0.00     0.159 C 
ATOM     53  H2  MOL d          10.004  15.631  43.112  0.00  0.00     0.099 H 
ATOM     54  NA1 MOL d          10.698  18.156  44.612  0.00  0.00    -0.120 NA
ATOM     55  NA5 MOL d          11.452  18.143  42.345  0.00  0.00    -0.365 N 
ATOM     56  CA5 MOL d          11.897  17.395  41.155  0.00  0.00     0.059 C 
ATOM     57  H8  MOL d          11.439  19.172  42.320  0.00  0.00     0.161 HD
ATOM     58  H7  MOL d          12.870  17.806  40.848  0.00  0.00     0.079 H 
ATOM     59  H6  MOL d          11.275  15.393  40.705  0.00  0.00     0.090 H 
BRANCH  49  60
ATOM     60  OA3 MOL d          12.051  14.003  42.749  0.00  0.00    -0.390 OA
ATOM     61  H5  MOL d          11.144  13.731  42.836  0.00  0.00     0.210 HD
ENDBRANCH  49  60
BRANCH  50  62
ATOM     62  OA2 MOL d          10.897  15.474  44.852  0.00  0.00    -0.385 OA
ATOM     63  H3  MOL d          11.770  15.484  45.226  0.00  0.00     0.210 HD
ENDBRANCH  50  62
BRANCH  54  64
ATOM     64  OA7 MOL d          10.785  19.475  44.544  0.00  0.00    -0.265 OA
ATOM     65  H1  MOL d          11.674  19.744  44.746  0.00  0.00     0.247 HD
ENDBRANCH  54  64
BRANCH  56  66
ATOM     66  CA6 MOL d          10.832  17.691  40.051  0.00  0.00     0.038 C 
ATOM     67  H9  MOL d           9.885  17.978  40.531  0.00  0.00     0.077 H 
ATOM     68  H10 MOL d          10.677  16.784  39.447  0.00  0.00     0.077 H 
BRANCH  66  69
ATOM     69  OA6 MOL d          11.249  18.709  39.232  0.00  0.00    -0.399 OA
ATOM     70  H11 MOL d          12.146  18.938  39.446  0.00  0.00     0.209 HD
ENDBRANCH  66  69
ENDBRANCH  56  66
ENDBRANCH  47  48
ENDBRANCH   1  47
TORSDOF 19
ENDMDL
MODEL 5
REMARK VINA RESULT:      -5.6      3.563      9.023
REMARK  19 active torsions:
REMARK  status: ('A' for Active; 'I' for Inactive)
REMARK    1  A    between atoms: NA1_2  and  OA7_3 
REMARK    2  A    between atoms: CA2_4  and  OA2_5 
REMARK    3  A    between atoms: CA3_6  and  OA3_7 
REMARK    4  A    between atoms: CA4_8  and  OA4_9 
REMARK    5  A    between atoms: OA4_9  and  CB1_14 
REMARK    6  A    between atoms: CA5_10  and  CA6_12 
REMARK    7  A    between atoms: CA6_12  and  OA6_13 
REMARK    8  A    between atoms: CB2_15  and  OB2_20 
REMARK    9  A    between atoms: CB3_16  and  OB3_21 
REMARK   10  A    between atoms: CB4_17  and  OB4_22 
REMARK   11  A    between atoms: CB5_18  and  CB6_19 
REMARK   12  A    between atoms: CB6_19  and  OB6_24 
REMARK   13  A    between atoms: OB4_22  and  CD1_25 
REMARK   14  A    between atoms: CD2_26  and  OD2_31 
REMARK   15  A    between atoms: CD3_27  and  OD3_32 
REMARK   16  A    between atoms: CD4_28  and  OD4_33 
REMARK   17  A    between atoms: CD5_29  and  CD6_30 
REMARK   18  A    between atoms: CD6_30  and  OD6_35 
REMARK   19  A    between atoms: OD4_33  and  CD7_36 
ROOT
ATOM      1  CB1 MOL d          13.719  14.205  35.794  0.00  0.00     0.159 C 
ATOM      2  CB2 MOL d          12.141  14.448  35.654  0.00  0.00     0.110 C 
ATOM      3  CB3 MOL d          11.580  15.435  36.743  0.00  0.00     0.092 C 
ATOM      4  CB4 MOL d          11.903  14.813  38.141  0.00  0.00     0.096 C 
ATOM      5  CB5 MOL d          13.563  14.688  38.250  0.00  0.00     0.089 C 
ATOM      6  OB5 MOL d          14.042  13.782  37.180  0.00  0.00    -0.348 OA
ATOM      7  H12 MOL d          14.025  13.403  35.106  0.00  0.00     0.133 H 
ATOM      8  H13 MOL d          11.631  13.484  35.791  0.00  0.00     0.094 H 
ATOM      9  H14 MOL d          12.059  16.421  36.652  0.00  0.00     0.091 H 
ATOM     10  H15 MOL d          11.441  13.820  38.237  0.00  0.00     0.091 H 
ATOM     11  H16 MOL d          14.005  15.687  38.125  0.00  0.00     0.090 H 
ENDROOT
BRANCH   4  12
ATOM     12  OB4 MOL d          11.405  15.677  39.148  0.00  0.00    -0.348 OA
BRANCH  12  13
ATOM     13  CD1 MOL d          10.403  15.001  39.979  0.00  0.00     0.159 C 
ATOM     14  CD2 MOL d           9.186  15.913  40.414  0.00  0.00     0.110 C 
ATOM     15  CD3 MOL d           9.749  17.105  41.303  0.00  0.00     0.092 C 
ATOM     16  H23 MOL d           8.460  15.329  40.999  0.00  0.00     0.094 H 
ATOM     17  CD4 MOL d          10.417  16.500  42.579  0.00  0.00     0.092 C 
ATOM     18  H24 MOL d          10.483  17.690  40.729  0.00  0.00     0.091 H 
ATOM     19  CD5 MOL d          11.645  15.523  42.113  0.00  0.00     0.089 C 
ATOM     20  H25 MOL d           9.672  15.921  43.144  0.00  0.00     0.091 H 
ATOM     21  OD5 MOL d          11.083  14.460  41.214  0.00  0.00    -0.348 OA
ATOM     22  H26 MOL d          12.390  16.113  41.562  0.00  0.00     0.090 H 
ATOM     23  H22 MOL d           9.998  14.159  39.399  0.00  0.00     0.133 H 
BRANCH  14  24
ATOM     24  OD2 MOL d           8.561  16.398  39.209  0.00  0.00    -0.388 OA
ATOM     25  H29 MOL d           8.080  15.690  38.795  0.00  0.00     0.210 HD
ENDBRANCH  14  24
BRANCH  15  26
ATOM     26  OD3 MOL d           8.685  17.928  41.708  0.00  0.00    -0.390 OA
ATOM     27  H30 MOL d           8.020  17.399  42.133  0.00  0.00     0.210 HD
ENDBRANCH  15  26
BRANCH  17  28
ATOM     28  OD4 MOL d          10.959  17.566  43.433  0.00  0.00    -0.385 OA
BRANCH  28  29
ATOM     29  CD7 MOL d          11.906  18.448  42.772  0.00  0.00     0.005 C 
ATOM     30  H32 MOL d          12.408  17.904  41.959  0.00  0.00     0.066 H 
ATOM     31  H33 MOL d          12.656  18.792  43.500  0.00  0.00     0.066 H 
ATOM     32  H34 MOL d          11.372  19.316  42.357  0.00  0.00     0.066 H 
ENDBRANCH  28  29
ENDBRANCH  17  28
BRANCH  19  33
ATOM     33  CD6 MOL d          12.332  14.866  43.346  0.00  0.00     0.043 C 
ATOM     34  H27 MOL d          13.015  14.077  42.996  0.00  0.00     0.078 H 
ATOM     35  H28 MOL d          11.559  14.422  43.991  0.00  0.00     0.078 H 
BRANCH  33  36
ATOM     36  OD6 MOL d          13.078  15.822  44.108  0.00  0.00    -0.398 OA
ATOM     37  H31 MOL d          14.002  15.605  44.068  0.00  0.00     0.209 HD
ENDBRANCH  33  36
ENDBRANCH  19  33
ENDBRANCH  12  13
ENDBRANCH   4  12
BRANCH   3  38
ATOM     38  OB3 MOL d          10.150  15.569  36.550  0.00  0.00    -0.390 OA
ATOM     39  H20 MOL d           9.982  15.974  35.706  0.00  0.00     0.210 HD
ENDBRANCH   3  38
BRANCH   5  40
ATOM     40  CB6 MOL d          14.021  14.098  39.569  0.00  0.00     0.043 C 
ATOM     41  H17 MOL d          14.014  13.001  39.496  0.00  0.00     0.078 H 
ATOM     42  H18 MOL d          13.332  14.416  40.365  0.00  0.00     0.078 H 
BRANCH  40  43
ATOM     43  OB6 MOL d          15.304  14.526  39.879  0.00  0.00    -0.398 OA
ATOM     44  H21 MOL d          15.567  14.155  40.713  0.00  0.00     0.209 HD
ENDBRANCH  40  43
ENDBRANCH   5  40
BRANCH   2  45
ATOM     45  OB2 MOL d          11.883  14.913  34.309  0.00  0.00    -0.388 OA
ATOM     46  H19 MOL d          11.363  14.267  33.846  0.00  0.00     0.210 HD
ENDBRANCH   2  45
BRANCH   1  47
ATOM     47  OA4 MOL d          14.383  15.404  35.421  0.00  0.00    -0.348 OA
BRANCH  47  48
ATOM     48  CA4 MOL d          15.619  15.210  34.982  0.00  0.00     0.090 C 
ATOM     49  CA3 MOL d          16.369  14.241  35.967  0.00  0.00     0.094 C 
ATOM     50  CA2 MOL d          17.598  13.582  35.248  0.00  0.00     0.121 C 
ATOM     51  H4  MOL d          15.667  13.444  36.255  0.00  0.00     0.091 H 
ATOM     52  CA1 MOL d          17.104  12.896  33.960  0.00  0.00     0.159 C 
ATOM     53  H2  MOL d          18.277  14.396  34.954  0.00  0.00     0.099 H 
ATOM     54  NA1 MOL d          17.694  11.774  33.577  0.00  0.00    -0.120 NA
ATOM     55  NA5 MOL d          16.051  13.461  33.176  0.00  0.00    -0.365 N 
ATOM     56  CA5 MOL d          15.334  14.672  33.616  0.00  0.00     0.059 C 
ATOM     57  H8  MOL d          15.787  13.012  32.287  0.00  0.00     0.161 HD
ATOM     58  H7  MOL d          14.256  14.455  33.573  0.00  0.00     0.079 H 
ATOM     59  H6  MOL d          16.183  16.152  34.914  0.00  0.00     0.090 H 
BRANCH  49  60
ATOM     60  OA3 MOL d          16.771  14.850  37.076  0.00  0.00    -0.390 OA
ATOM     61  H5  MOL d          16.251  15.634  37.212  0.00  0.00     0.210 HD
ENDBRANCH  49  60
BRANCH  50  62
ATOM     62  OA2 MOL d          18.314  12.747  36.018  0.00  0.00    -0.385 OA
ATOM     63  H3  MOL d          19.234  12.820  35.792  0.00  0.00     0.210 HD
ENDBRANCH  50  62
BRANCH  54  64
ATOM     64  OA7 MOL d          17.252  11.199  32.470  0.00  0.00    -0.265 OA
ATOM     65  H1  MOL d          16.416  10.782  32.642  0.00  0.00     0.247 HD
ENDBRANCH  54  64
BRANCH  56  66
ATOM     66  CA6 MOL d          15.689  15.774  32.566  0.00  0.00     0.038 C 
ATOM     67  H9  MOL d          15.437  15.408  31.560  0.00  0.00     0.077 H 
ATOM     68  H10 MOL d          16.767  15.988  32.619  0.00  0.00     0.077 H 
BRANCH  66  69
ATOM     69  OA6 MOL d          14.988  16.927  32.815  0.00  0.00    -0.399 OA
ATOM     70  H11 MOL d          15.375  17.642  32.324  0.00  0.00     0.209 HD
ENDBRANCH  66  69
ENDBRANCH  56  66
ENDBRANCH  47  48
ENDBRANCH   1  47
TORSDOF 19
ENDMDL
MODEL 6
REMARK VINA RESULT:      -5.5      3.437      8.997
REMARK  19 active torsions:
REMARK  status: ('A' for Active; 'I' for Inactive)
REMARK    1  A    between atoms: NA1_2  and  OA7_3 
REMARK    2  A    between atoms: CA2_4  and  OA2_5 
REMARK    3  A    between atoms: CA3_6  and  OA3_7 
REMARK    4  A    between atoms: CA4_8  and  OA4_9 
REMARK    5  A    between atoms: OA4_9  and  CB1_14 
REMARK    6  A    between atoms: CA5_10  and  CA6_12 
REMARK    7  A    between atoms: CA6_12  and  OA6_13 
REMARK    8  A    between atoms: CB2_15  and  OB2_20 
REMARK    9  A    between atoms: CB3_16  and  OB3_21 
REMARK   10  A    between atoms: CB4_17  and  OB4_22 
REMARK   11  A    between atoms: CB5_18  and  CB6_19 
REMARK   12  A    between atoms: CB6_19  and  OB6_24 
REMARK   13  A    between atoms: OB4_22  and  CD1_25 
REMARK   14  A    between atoms: CD2_26  and  OD2_31 
REMARK   15  A    between atoms: CD3_27  and  OD3_32 
REMARK   16  A    between atoms: CD4_28  and  OD4_33 
REMARK   17  A    between atoms: CD5_29  and  CD6_30 
REMARK   18  A    between atoms: CD6_30  and  OD6_35 
REMARK   19  A    between atoms: OD4_33  and  CD7_36 
ROOT
ATOM      1  CB1 MOL d          13.172  15.177  35.100  0.00  0.00     0.159 C 
ATOM      2  CB2 MOL d          13.709  16.378  36.016  0.00  0.00     0.110 C 
ATOM      3  CB3 MOL d          13.051  16.394  37.444  0.00  0.00     0.092 C 
ATOM      4  CB4 MOL d          11.506  16.526  37.239  0.00  0.00     0.096 C 
ATOM      5  CB5 MOL d          11.010  15.192  36.371  0.00  0.00     0.089 C 
ATOM      6  OB5 MOL d          11.689  15.204  35.054  0.00  0.00    -0.348 OA
ATOM      7  H12 MOL d          13.554  15.302  34.076  0.00  0.00     0.133 H 
ATOM      8  H13 MOL d          13.450  17.327  35.525  0.00  0.00     0.094 H 
ATOM      9  H14 MOL d          13.278  15.462  37.983  0.00  0.00     0.091 H 
ATOM     10  H15 MOL d          11.268  17.448  36.689  0.00  0.00     0.091 H 
ATOM     11  H16 MOL d          11.281  14.283  36.927  0.00  0.00     0.090 H 
ENDROOT
BRANCH   4  12
ATOM     12  OB4 MOL d          10.881  16.549  38.511  0.00  0.00    -0.348 OA
BRANCH  12  13
ATOM     13  CD1 MOL d          11.459  15.540  39.406  0.00  0.00     0.159 C 
ATOM     14  CD2 MOL d          10.396  14.638  40.154  0.00  0.00     0.110 C 
ATOM     15  CD3 MOL d           9.511  15.578  41.082  0.00  0.00     0.092 C 
ATOM     16  H23 MOL d          10.904  13.884  40.773  0.00  0.00     0.094 H 
ATOM     17  CD4 MOL d          10.442  16.255  42.137  0.00  0.00     0.092 C 
ATOM     18  H24 MOL d           9.005  16.343  40.473  0.00  0.00     0.091 H 
ATOM     19  CD5 MOL d          11.565  17.148  41.348  0.00  0.00     0.089 C 
ATOM     20  H25 MOL d          10.937  15.480  42.741  0.00  0.00     0.091 H 
ATOM     21  OD5 MOL d          12.324  16.237  40.427  0.00  0.00    -0.348 OA
ATOM     22  H26 MOL d          11.060  17.928  40.760  0.00  0.00     0.090 H 
ATOM     23  H22 MOL d          12.091  14.877  38.799  0.00  0.00     0.133 H 
BRANCH  14  24
ATOM     24  OD2 MOL d           9.601  13.985  39.145  0.00  0.00    -0.388 OA
ATOM     25  H29 MOL d           8.681  14.054  39.373  0.00  0.00     0.210 HD
ENDBRANCH  14  24
BRANCH  15  26
ATOM     26  OD3 MOL d           8.561  14.799  41.764  0.00  0.00    -0.390 OA
ATOM     27  H30 MOL d           8.880  14.605  42.637  0.00  0.00     0.210 HD
ENDBRANCH  15  26
BRANCH  17  28
ATOM     28  OD4 MOL d           9.667  17.140  43.018  0.00  0.00    -0.385 OA
BRANCH  28  29
ATOM     29  CD7 MOL d           9.637  16.732  44.412  0.00  0.00     0.005 C 
ATOM     30  H32 MOL d           8.594  16.570  44.724  0.00  0.00     0.066 H 
ATOM     31  H33 MOL d          10.088  17.519  45.034  0.00  0.00     0.066 H 
ATOM     32  H34 MOL d          10.205  15.797  44.533  0.00  0.00     0.066 H 
ENDBRANCH  28  29
ENDBRANCH  17  28
BRANCH  19  33
ATOM     33  CD6 MOL d          12.543  17.825  42.352  0.00  0.00     0.043 C 
ATOM     34  H27 MOL d          13.467  18.098  41.820  0.00  0.00     0.078 H 
ATOM     35  H28 MOL d          12.780  17.112  43.156  0.00  0.00     0.078 H 
BRANCH  33  36
ATOM     36  OD6 MOL d          11.974  19.005  42.931  0.00  0.00    -0.398 OA
ATOM     37  H31 MOL d          11.227  18.765  43.466  0.00  0.00     0.209 HD
ENDBRANCH  33  36
ENDBRANCH  19  33
ENDBRANCH  12  13
ENDBRANCH   4  12
BRANCH   3  38
ATOM     38  OB3 MOL d          13.578  17.524  38.182  0.00  0.00    -0.390 OA
ATOM     39  H20 MOL d          14.528  17.503  38.155  0.00  0.00     0.210 HD
ENDBRANCH   3  38
BRANCH   5  40
ATOM     40  CB6 MOL d           9.519  15.189  36.102  0.00  0.00     0.043 C 
ATOM     41  H17 MOL d           9.111  14.194  36.336  0.00  0.00     0.078 H 
ATOM     42  H18 MOL d           9.343  15.415  35.039  0.00  0.00     0.078 H 
BRANCH  40  43
ATOM     43  OB6 MOL d           8.876  16.139  36.882  0.00  0.00    -0.398 OA
ATOM     44  H21 MOL d           8.540  15.726  37.669  0.00  0.00     0.209 HD
ENDBRANCH  40  43
ENDBRANCH   5  40
BRANCH   2  45
ATOM     45  OB2 MOL d          15.151  16.276  36.078  0.00  0.00    -0.388 OA
ATOM     46  H19 MOL d          15.539  17.068  35.726  0.00  0.00     0.210 HD
ENDBRANCH   2  45
BRANCH   1  47
ATOM     47  OA4 MOL d          13.679  13.960  35.630  0.00  0.00    -0.348 OA
BRANCH  47  48
ATOM     48  CA4 MOL d          14.982  13.805  35.445  0.00  0.00     0.090 C 
ATOM     49  CA3 MOL d          15.600  13.092  36.703  0.00  0.00     0.094 C 
ATOM     50  CA2 MOL d          16.974  12.431  36.332  0.00  0.00     0.121 C 
ATOM     51  H4  MOL d          14.906  12.298  37.015  0.00  0.00     0.091 H 
ATOM     52  CA1 MOL d          16.758  11.491  35.131  0.00  0.00     0.159 C 
ATOM     53  H2  MOL d          17.646  13.239  36.007  0.00  0.00     0.099 H 
ATOM     54  NA1 MOL d          17.471  10.376  35.066  0.00  0.00    -0.120 NA
ATOM     55  NA5 MOL d          15.830  11.814  34.093  0.00  0.00    -0.365 N 
ATOM     56  CA5 MOL d          14.977  13.014  34.175  0.00  0.00     0.059 C 
ATOM     57  H8  MOL d          15.755  11.196  33.271  0.00  0.00     0.161 HD
ATOM     58  H7  MOL d          13.939  12.698  33.997  0.00  0.00     0.079 H 
ATOM     59  H6  MOL d          15.494  14.767  35.296  0.00  0.00     0.090 H 
BRANCH  49  60
ATOM     60  OA3 MOL d          15.763  13.918  37.730  0.00  0.00    -0.390 OA
ATOM     61  H5  MOL d          16.423  14.566  37.512  0.00  0.00     0.210 HD
ENDBRANCH  49  60
BRANCH  50  62
ATOM     62  OA2 MOL d          17.589  11.810  37.351  0.00  0.00    -0.385 OA
ATOM     63  H3  MOL d          17.065  11.070  37.631  0.00  0.00     0.210 HD
ENDBRANCH  50  62
BRANCH  54  64
ATOM     64  OA7 MOL d          17.267   9.581  34.028  0.00  0.00    -0.265 OA
ATOM     65  H1  MOL d          17.274  10.096  33.230  0.00  0.00     0.247 HD
ENDBRANCH  54  64
BRANCH  56  66
ATOM     66  CA6 MOL d          15.448  13.944  33.011  0.00  0.00     0.038 C 
ATOM     67  H9  MOL d          14.577  14.236  32.407  0.00  0.00     0.077 H 
ATOM     68  H10 MOL d          16.165  13.397  32.380  0.00  0.00     0.077 H 
BRANCH  66  69
ATOM     69  OA6 MOL d          16.053  15.072  33.504  0.00  0.00    -0.399 OA
ATOM     70  H11 MOL d          16.699  15.382  32.880  0.00  0.00     0.209 HD
ENDBRANCH  66  69
ENDBRANCH  56  66
ENDBRANCH  47  48
ENDBRANCH   1  47
TORSDOF 19
ENDMDL
MODEL 7
REMARK VINA RESULT:      -5.4      1.965      3.759
REMARK  19 active torsions:
REMARK  status: ('A' for Active; 'I' for Inactive)
REMARK    1  A    between atoms: NA1_2  and  OA7_3 
REMARK    2  A    between atoms: CA2_4  and  OA2_5 
REMARK    3  A    between atoms: CA3_6  and  OA3_7 
REMARK    4  A    between atoms: CA4_8  and  OA4_9 
REMARK    5  A    between atoms: OA4_9  and  CB1_14 
REMARK    6  A    between atoms: CA5_10  and  CA6_12 
REMARK    7  A    between atoms: CA6_12  and  OA6_13 
REMARK    8  A    between atoms: CB2_15  and  OB2_20 
REMARK    9  A    between atoms: CB3_16  and  OB3_21 
REMARK   10  A    between atoms: CB4_17  and  OB4_22 
REMARK   11  A    between atoms: CB5_18  and  CB6_19 
REMARK   12  A    between atoms: CB6_19  and  OB6_24 
REMARK   13  A    between atoms: OB4_22  and  CD1_25 
REMARK   14  A    between atoms: CD2_26  and  OD2_31 
REMARK   15  A    between atoms: CD3_27  and  OD3_32 
REMARK   16  A    between atoms: CD4_28  and  OD4_33 
REMARK   17  A    between atoms: CD5_29  and  CD6_30 
REMARK   18  A    between atoms: CD6_30  and  OD6_35 
REMARK   19  A    between atoms: OD4_33  and  CD7_36 
ROOT
ATOM      1  CB1 MOL d          13.018  15.321  40.284  0.00  0.00     0.159 C 
ATOM      2  CB2 MOL d          14.406  14.536  40.447  0.00  0.00     0.110 C 
ATOM      3  CB3 MOL d          15.320  14.647  39.172  0.00  0.00     0.092 C 
ATOM      4  CB4 MOL d          14.510  14.059  37.971  0.00  0.00     0.096 C 
ATOM      5  CB5 MOL d          13.138  14.990  37.801  0.00  0.00     0.089 C 
ATOM      6  OB5 MOL d          12.335  14.883  39.042  0.00  0.00    -0.348 OA
ATOM      7  H12 MOL d          12.367  15.089  41.139  0.00  0.00     0.133 H 
ATOM      8  H13 MOL d          14.182  13.470  40.599  0.00  0.00     0.094 H 
ATOM      9  H14 MOL d          15.576  15.698  38.972  0.00  0.00     0.091 H 
ATOM     10  H15 MOL d          14.236  13.011  38.166  0.00  0.00     0.091 H 
ATOM     11  H16 MOL d          13.434  16.035  37.632  0.00  0.00     0.090 H 
ENDROOT
BRANCH   4  12
ATOM     12  OB4 MOL d          15.309  14.138  36.803  0.00  0.00    -0.348 OA
BRANCH  12  13
ATOM     13  CD1 MOL d          15.416  12.833  36.142  0.00  0.00     0.159 C 
ATOM     14  CD2 MOL d          16.895  12.292  35.989  0.00  0.00     0.110 C 
ATOM     15  CD3 MOL d          17.704  13.307  35.070  0.00  0.00     0.092 C 
ATOM     16  H23 MOL d          16.892  11.296  35.522  0.00  0.00     0.094 H 
ATOM     17  CD4 MOL d          17.027  13.350  33.663  0.00  0.00     0.092 C 
ATOM     18  H24 MOL d          17.705  14.309  35.524  0.00  0.00     0.091 H 
ATOM     19  CD5 MOL d          15.483  13.867  33.841  0.00  0.00     0.089 C 
ATOM     20  H25 MOL d          17.035  12.343  33.220  0.00  0.00     0.091 H 
ATOM     21  OD5 MOL d          14.780  12.927  34.776  0.00  0.00    -0.348 OA
ATOM     22  H26 MOL d          15.487  14.879  34.271  0.00  0.00     0.090 H 
ATOM     23  H22 MOL d          14.856  12.105  36.745  0.00  0.00     0.133 H 
BRANCH  14  24
ATOM     24  OD2 MOL d          17.460  12.207  37.313  0.00  0.00    -0.388 OA
ATOM     25  H29 MOL d          18.380  11.978  37.249  0.00  0.00     0.210 HD
ENDBRANCH  14  24
BRANCH  15  26
ATOM     26  OD3 MOL d          19.022  12.845  34.913  0.00  0.00    -0.390 OA
ATOM     27  H30 MOL d          19.202  12.711  33.990  0.00  0.00     0.210 HD
ENDBRANCH  15  26
BRANCH  17  28
ATOM     28  OD4 MOL d          17.738  14.281  32.776  0.00  0.00    -0.385 OA
BRANCH  28  29
ATOM     29  CD7 MOL d          19.170  14.054  32.684  0.00  0.00     0.005 C 
ATOM     30  H32 MOL d          19.449  13.205  33.325  0.00  0.00     0.066 H 
ATOM     31  H33 MOL d          19.707  14.956  33.017  0.00  0.00     0.066 H 
ATOM     32  H34 MOL d          19.440  13.830  31.641  0.00  0.00     0.066 H 
ENDBRANCH  28  29
ENDBRANCH  17  28
BRANCH  19  33
ATOM     33  CD6 MOL d          14.747  13.903  32.470  0.00  0.00     0.043 C 
ATOM     34  H27 MOL d          14.944  12.962  31.935  0.00  0.00     0.078 H 
ATOM     35  H28 MOL d          15.132  14.748  31.880  0.00  0.00     0.078 H 
BRANCH  33  36
ATOM     36  OD6 MOL d          13.332  14.057  32.633  0.00  0.00    -0.398 OA
ATOM     37  H31 MOL d          12.961  13.244  32.954  0.00  0.00     0.209 HD
ENDBRANCH  33  36
ENDBRANCH  19  33
ENDBRANCH  12  13
ENDBRANCH   4  12
BRANCH   3  38
ATOM     38  OB3 MOL d          16.532  13.887  39.406  0.00  0.00    -0.390 OA
ATOM     39  H20 MOL d          17.263  14.485  39.514  0.00  0.00     0.210 HD
ENDBRANCH   3  38
BRANCH   5  40
ATOM     40  CB6 MOL d          12.254  14.530  36.659  0.00  0.00     0.043 C 
ATOM     41  H17 MOL d          11.245  14.949  36.791  0.00  0.00     0.078 H 
ATOM     42  H18 MOL d          12.198  13.431  36.666  0.00  0.00     0.078 H 
BRANCH  40  43
ATOM     43  OB6 MOL d          12.766  14.952  35.441  0.00  0.00    -0.398 OA
ATOM     44  H21 MOL d          13.498  15.539  35.592  0.00  0.00     0.209 HD
ENDBRANCH  40  43
ENDBRANCH   5  40
BRANCH   2  45
ATOM     45  OB2 MOL d          15.060  15.037  41.636  0.00  0.00    -0.388 OA
ATOM     46  H19 MOL d          14.413  15.423  42.214  0.00  0.00     0.210 HD
ENDBRANCH   2  45
BRANCH   1  47
ATOM     47  OA4 MOL d          13.299  16.714  40.289  0.00  0.00    -0.348 OA
BRANCH  47  48
ATOM     48  CA4 MOL d          12.286  17.456  40.714  0.00  0.00     0.090 C 
ATOM     49  CA3 MOL d          11.011  17.127  39.856  0.00  0.00     0.094 C 
ATOM     50  CA2 MOL d           9.713  17.561  40.626  0.00  0.00     0.121 C 
ATOM     51  H4  MOL d          10.978  16.038  39.706  0.00  0.00     0.091 H 
ATOM     52  CA1 MOL d           9.718  16.890  42.013  0.00  0.00     0.159 C 
ATOM     53  H2  MOL d           9.776  18.648  40.780  0.00  0.00     0.099 H 
ATOM     54  NA1 MOL d           8.561  16.513  42.535  0.00  0.00    -0.120 NA
ATOM     55  NA5 MOL d          10.934  16.694  42.739  0.00  0.00    -0.365 N 
ATOM     56  CA5 MOL d          12.241  17.044  42.152  0.00  0.00     0.059 C 
ATOM     57  H8  MOL d          10.896  16.301  43.691  0.00  0.00     0.161 HD
ATOM     58  H7  MOL d          12.898  16.168  42.257  0.00  0.00     0.079 H 
ATOM     59  H6  MOL d          12.501  18.532  40.630  0.00  0.00     0.090 H 
BRANCH  49  60
ATOM     60  OA3 MOL d          11.036  17.703  38.661  0.00  0.00    -0.390 OA
ATOM     61  H5  MOL d          10.916  17.041  37.989  0.00  0.00     0.210 HD
ENDBRANCH  49  60
BRANCH  50  62
ATOM     62  OA2 MOL d           8.569  17.334  39.963  0.00  0.00    -0.385 OA
ATOM     63  H3  MOL d           7.919  16.989  40.563  0.00  0.00     0.210 HD
ENDBRANCH  50  62
BRANCH  54  64
ATOM     64  OA7 MOL d           8.587  15.936  43.726  0.00  0.00    -0.265 OA
ATOM     65  H1  MOL d           9.033  16.504  44.342  0.00  0.00     0.247 HD
ENDBRANCH  54  64
BRANCH  56  66
ATOM     66  CA6 MOL d          12.791  18.219  43.022  0.00  0.00     0.038 C 
ATOM     67  H9  MOL d          13.823  18.442  42.716  0.00  0.00     0.077 H 
ATOM     68  H10 MOL d          12.778  17.920  44.081  0.00  0.00     0.077 H 
BRANCH  66  69
ATOM     69  OA6 MOL d          12.022  19.344  42.863  0.00  0.00    -0.399 OA
ATOM     70  H11 MOL d          11.958  19.802  43.693  0.00  0.00     0.209 HD
ENDBRANCH  66  69
ENDBRANCH  56  66
ENDBRANCH  47  48
ENDBRANCH   1  47
TORSDOF 19
ENDMDL
MODEL 8
REMARK VINA RESULT:      -5.2      2.966      4.710
REMARK  19 active torsions:
REMARK  status: ('A' for Active; 'I' for Inactive)
REMARK    1  A    between atoms: NA1_2  and  OA7_3 
REMARK    2  A    between atoms: CA2_4  and  OA2_5 
REMARK    3  A    between atoms: CA3_6  and  OA3_7 
REMARK    4  A    between atoms: CA4_8  and  OA4_9 
REMARK    5  A    between atoms: OA4_9  and  CB1_14 
REMARK    6  A    between atoms: CA5_10  and  CA6_12 
REMARK    7  A    between atoms: CA6_12  and  OA6_13 
REMARK    8  A    between atoms: CB2_15  and  OB2_20 
REMARK    9  A    between atoms: CB3_16  and  OB3_21 
REMARK   10  A    between atoms: CB4_17  and  OB4_22 
REMARK   11  A    between atoms: CB5_18  and  CB6_19 
REMARK   12  A    between atoms: CB6_19  and  OB6_24 
REMARK   13  A    between atoms: OB4_22  and  CD1_25 
REMARK   14  A    between atoms: CD2_26  and  OD2_31 
REMARK   15  A    between atoms: CD3_27  and  OD3_32 
REMARK   16  A    between atoms: CD4_28  and  OD4_33 
REMARK   17  A    between atoms: CD5_29  and  CD6_30 
REMARK   18  A    between atoms: CD6_30  and  OD6_35 
REMARK   19  A    between atoms: OD4_33  and  CD7_36 
ROOT
ATOM      1  CB1 MOL d          13.359  15.572  40.621  0.00  0.00     0.159 C 
ATOM      2  CB2 MOL d          14.449  15.686  39.451  0.00  0.00     0.110 C 
ATOM      3  CB3 MOL d          13.898  16.426  38.178  0.00  0.00     0.092 C 
ATOM      4  CB4 MOL d          12.657  15.620  37.675  0.00  0.00     0.096 C 
ATOM      5  CB5 MOL d          11.531  15.635  38.905  0.00  0.00     0.089 C 
ATOM      6  OB5 MOL d          12.113  14.963  40.090  0.00  0.00    -0.348 OA
ATOM      7  H12 MOL d          13.749  14.924  41.419  0.00  0.00     0.133 H 
ATOM      8  H13 MOL d          14.730  14.668  39.143  0.00  0.00     0.094 H 
ATOM      9  H14 MOL d          13.600  17.454  38.430  0.00  0.00     0.091 H 
ATOM     10  H15 MOL d          12.941  14.585  37.434  0.00  0.00     0.091 H 
ATOM     11  H16 MOL d          11.281  16.678  39.147  0.00  0.00     0.090 H 
ENDROOT
BRANCH   4  12
ATOM     12  OB4 MOL d          12.137  16.259  36.521  0.00  0.00    -0.348 OA
BRANCH  12  13
ATOM     13  CD1 MOL d          12.296  15.417  35.330  0.00  0.00     0.159 C 
ATOM     14  CD2 MOL d          12.739  16.197  34.028  0.00  0.00     0.110 C 
ATOM     15  CD3 MOL d          11.599  17.245  33.664  0.00  0.00     0.092 C 
ATOM     16  H23 MOL d          12.875  15.497  33.190  0.00  0.00     0.094 H 
ATOM     17  CD4 MOL d          10.280  16.463  33.369  0.00  0.00     0.092 C 
ATOM     18  H24 MOL d          11.449  17.945  34.500  0.00  0.00     0.091 H 
ATOM     19  CD5 MOL d           9.859  15.624  34.710  0.00  0.00     0.089 C 
ATOM     20  H25 MOL d          10.444  15.770  32.531  0.00  0.00     0.091 H 
ATOM     21  OD5 MOL d          10.992  14.705  35.063  0.00  0.00    -0.348 OA
ATOM     22  H26 MOL d           9.684  16.326  35.538  0.00  0.00     0.090 H 
ATOM     23  H22 MOL d          13.071  14.668  35.550  0.00  0.00     0.133 H 
BRANCH  14  24
ATOM     24  OD2 MOL d          13.989  16.851  34.322  0.00  0.00    -0.388 OA
ATOM     25  H29 MOL d          14.174  17.498  33.651  0.00  0.00     0.210 HD
ENDBRANCH  14  24
BRANCH  15  26
ATOM     26  OD3 MOL d          11.966  17.949  32.504  0.00  0.00    -0.390 OA
ATOM     27  H30 MOL d          12.874  18.222  32.575  0.00  0.00     0.210 HD
ENDBRANCH  15  26
BRANCH  17  28
ATOM     28  OD4 MOL d           9.194  17.392  33.032  0.00  0.00    -0.385 OA
BRANCH  28  29
ATOM     29  CD7 MOL d           8.832  18.312  34.096  0.00  0.00     0.005 C 
ATOM     30  H32 MOL d           8.773  19.335  33.693  0.00  0.00     0.066 H 
ATOM     31  H33 MOL d           9.594  18.274  34.889  0.00  0.00     0.066 H 
ATOM     32  H34 MOL d           7.854  18.025  34.513  0.00  0.00     0.066 H 
ENDBRANCH  28  29
ENDBRANCH  17  28
BRANCH  19  33
ATOM     33  CD6 MOL d           8.562  14.798  34.465  0.00  0.00     0.043 C 
ATOM     34  H27 MOL d           7.859  15.405  33.875  0.00  0.00     0.078 H 
ATOM     35  H28 MOL d           8.108  14.551  35.436  0.00  0.00     0.078 H 
BRANCH  33  36
ATOM     36  OD6 MOL d           8.835  13.583  33.758  0.00  0.00    -0.398 OA
ATOM     37  H31 MOL d           8.775  13.742  32.823  0.00  0.00     0.209 HD
ENDBRANCH  33  36
ENDBRANCH  19  33
ENDBRANCH  12  13
ENDBRANCH   4  12
BRANCH   3  38
ATOM     38  OB3 MOL d          14.943  16.456  37.174  0.00  0.00    -0.390 OA
ATOM     39  H20 MOL d          14.978  17.320  36.780  0.00  0.00     0.210 HD
ENDBRANCH   3  38
BRANCH   5  40
ATOM     40  CB6 MOL d          10.262  14.885  38.549  0.00  0.00     0.043 C 
ATOM     41  H17 MOL d          10.281  14.633  37.478  0.00  0.00     0.078 H 
ATOM     42  H18 MOL d           9.393  15.526  38.758  0.00  0.00     0.078 H 
BRANCH  40  43
ATOM     43  OB6 MOL d          10.157  13.718  39.290  0.00  0.00    -0.398 OA
ATOM     44  H21 MOL d          11.019  13.331  39.394  0.00  0.00     0.209 HD
ENDBRANCH  40  43
ENDBRANCH   5  40
BRANCH   2  45
ATOM     45  OB2 MOL d          15.619  16.336  40.000  0.00  0.00    -0.388 OA
ATOM     46  H19 MOL d          15.415  16.678  40.862  0.00  0.00     0.210 HD
ENDBRANCH   2  45
BRANCH   1  47
ATOM     47  OA4 MOL d          13.147  16.873  41.151  0.00  0.00    -0.348 OA
BRANCH  47  48
ATOM     48  CA4 MOL d          12.806  16.872  42.433  0.00  0.00     0.090 C 
ATOM     49  CA3 MOL d          11.760  18.018  42.688  0.00  0.00     0.094 C 
ATOM     50  CA2 MOL d          10.957  17.735  44.007  0.00  0.00     0.121 C 
ATOM     51  H4  MOL d          11.053  18.022  41.845  0.00  0.00     0.091 H 
ATOM     52  CA1 MOL d          10.329  16.332  43.908  0.00  0.00     0.159 C 
ATOM     53  H2  MOL d          11.685  17.718  44.832  0.00  0.00     0.099 H 
ATOM     54  NA1 MOL d           9.143  16.131  44.463  0.00  0.00    -0.120 NA
ATOM     55  NA5 MOL d          11.010  15.258  43.255  0.00  0.00    -0.365 N 
ATOM     56  CA5 MOL d          12.300  15.472  42.572  0.00  0.00     0.059 C 
ATOM     57  H8  MOL d          10.592  14.316  43.262  0.00  0.00     0.161 HD
ATOM     58  H7  MOL d          12.211  15.058  41.557  0.00  0.00     0.079 H 
ATOM     59  H6  MOL d          13.674  17.034  43.088  0.00  0.00     0.090 H 
BRANCH  49  60
ATOM     60  OA3 MOL d          12.322  19.219  42.754  0.00  0.00    -0.390 OA
ATOM     61  H5  MOL d          13.033  19.269  42.125  0.00  0.00     0.210 HD
ENDBRANCH  49  60
BRANCH  50  62
ATOM     62  OA2 MOL d          10.048  18.672  44.318  0.00  0.00    -0.385 OA
ATOM     63  H3  MOL d           9.831  19.172  43.541  0.00  0.00     0.210 HD
ENDBRANCH  50  62
BRANCH  54  64
ATOM     64  OA7 MOL d           8.620  14.920  44.363  0.00  0.00    -0.265 OA
ATOM     65  H1  MOL d           8.963  14.370  45.058  0.00  0.00     0.247 HD
ENDBRANCH  54  64
BRANCH  56  66
ATOM     66  CA6 MOL d          13.347  14.645  43.385  0.00  0.00     0.038 C 
ATOM     67  H9  MOL d          14.191  14.387  42.729  0.00  0.00     0.077 H 
ATOM     68  H10 MOL d          12.872  13.723  43.752  0.00  0.00     0.077 H 
BRANCH  66  69
ATOM     69  OA6 MOL d          13.813  15.367  44.454  0.00  0.00    -0.399 OA
ATOM     70  H11 MOL d          14.637  15.778  44.222  0.00  0.00     0.209 HD
ENDBRANCH  66  69
ENDBRANCH  56  66
ENDBRANCH  47  48
ENDBRANCH   1  47
TORSDOF 19
ENDMDL
MODEL 9
REMARK VINA RESULT:      -5.2      3.160      8.734
REMARK  19 active torsions:
REMARK  status: ('A' for Active; 'I' for Inactive)
REMARK    1  A    between atoms: NA1_2  and  OA7_3 
REMARK    2  A    between atoms: CA2_4  and  OA2_5 
REMARK    3  A    between atoms: CA3_6  and  OA3_7 
REMARK    4  A    between atoms: CA4_8  and  OA4_9 
REMARK    5  A    between atoms: OA4_9  and  CB1_14 
REMARK    6  A    between atoms: CA5_10  and  CA6_12 
REMARK    7  A    between atoms: CA6_12  and  OA6_13 
REMARK    8  A    between atoms: CB2_15  and  OB2_20 
REMARK    9  A    between atoms: CB3_16  and  OB3_21 
REMARK   10  A    between atoms: CB4_17  and  OB4_22 
REMARK   11  A    between atoms: CB5_18  and  CB6_19 
REMARK   12  A    between atoms: CB6_19  and  OB6_24 
REMARK   13  A    between atoms: OB4_22  and  CD1_25 
REMARK   14  A    between atoms: CD2_26  and  OD2_31 
REMARK   15  A    between atoms: CD3_27  and  OD3_32 
REMARK   16  A    between atoms: CD4_28  and  OD4_33 
REMARK   17  A    between atoms: CD5_29  and  CD6_30 
REMARK   18  A    between atoms: CD6_30  and  OD6_35 
REMARK   19  A    between atoms: OD4_33  and  CD7_36 
ROOT
ATOM      1  CB1 MOL d          14.085  14.299  36.795  0.00  0.00     0.159 C 
ATOM      2  CB2 MOL d          12.872  15.340  36.684  0.00  0.00     0.110 C 
ATOM      3  CB3 MOL d          13.057  16.592  37.617  0.00  0.00     0.092 C 
ATOM      4  CB4 MOL d          13.172  16.061  39.084  0.00  0.00     0.096 C 
ATOM      5  CB5 MOL d          14.513  15.071  39.143  0.00  0.00     0.089 C 
ATOM      6  OB5 MOL d          14.304  13.933  38.217  0.00  0.00    -0.348 OA
ATOM      7  H12 MOL d          13.832  13.386  36.237  0.00  0.00     0.133 H 
ATOM      8  H13 MOL d          11.950  14.830  36.998  0.00  0.00     0.094 H 
ATOM      9  H14 MOL d          13.969  17.143  37.346  0.00  0.00     0.091 H 
ATOM     10  H15 MOL d          12.270  15.496  39.361  0.00  0.00     0.091 H 
ATOM     11  H16 MOL d          15.397  15.649  38.838  0.00  0.00     0.090 H 
ENDROOT
BRANCH   4  12
ATOM     12  OB4 MOL d          13.335  17.167  39.955  0.00  0.00    -0.348 OA
BRANCH  12  13
ATOM     13  CD1 MOL d          12.048  17.806  40.250  0.00  0.00     0.159 C 
ATOM     14  CD2 MOL d          11.935  18.419  41.704  0.00  0.00     0.110 C 
ATOM     15  CD3 MOL d          12.079  17.235  42.756  0.00  0.00     0.092 C 
ATOM     16  H23 MOL d          10.961  18.913  41.836  0.00  0.00     0.094 H 
ATOM     17  CD4 MOL d          10.906  16.228  42.533  0.00  0.00     0.092 C 
ATOM     18  H24 MOL d          13.047  16.729  42.625  0.00  0.00     0.091 H 
ATOM     19  CD5 MOL d          11.008  15.636  41.010  0.00  0.00     0.089 C 
ATOM     20  H25 MOL d           9.946  16.746  42.669  0.00  0.00     0.091 H 
ATOM     21  OD5 MOL d          10.947  16.792  40.053  0.00  0.00    -0.348 OA
ATOM     22  H26 MOL d          11.964  15.108  40.888  0.00  0.00     0.090 H 
ATOM     23  H22 MOL d          11.908  18.626  39.530  0.00  0.00     0.133 H 
BRANCH  14  24
ATOM     24  OD2 MOL d          12.994  19.387  41.845  0.00  0.00    -0.388 OA
ATOM     25  H29 MOL d          13.731  19.131  41.302  0.00  0.00     0.210 HD
ENDBRANCH  14  24
BRANCH  15  26
ATOM     26  OD3 MOL d          11.977  17.754  44.058  0.00  0.00    -0.390 OA
ATOM     27  H30 MOL d          11.142  17.499  44.435  0.00  0.00     0.210 HD
ENDBRANCH  15  26
BRANCH  17  28
ATOM     28  OD4 MOL d          10.999  15.110  43.482  0.00  0.00    -0.385 OA
BRANCH  28  29
ATOM     29  CD7 MOL d          12.310  14.490  43.561  0.00  0.00     0.005 C 
ATOM     30  H32 MOL d          12.930  14.834  42.719  0.00  0.00     0.066 H 
ATOM     31  H33 MOL d          12.202  13.396  43.512  0.00  0.00     0.066 H 
ATOM     32  H34 MOL d          12.792  14.770  44.510  0.00  0.00     0.066 H 
ENDBRANCH  28  29
ENDBRANCH  17  28
BRANCH  19  33
ATOM     33  CD6 MOL d           9.843  14.645  40.720  0.00  0.00     0.043 C 
ATOM     34  H27 MOL d          10.202  13.617  40.877  0.00  0.00     0.078 H 
ATOM     35  H28 MOL d           9.524  14.766  39.674  0.00  0.00     0.078 H 
BRANCH  33  36
ATOM     36  OD6 MOL d           8.721  14.882  41.578  0.00  0.00    -0.398 OA
ATOM     37  H31 MOL d           8.188  14.096  41.624  0.00  0.00     0.209 HD
ENDBRANCH  33  36
ENDBRANCH  19  33
ENDBRANCH  12  13
ENDBRANCH   4  12
BRANCH   3  38
ATOM     38  OB3 MOL d          11.903  17.456  37.464  0.00  0.00    -0.390 OA
ATOM     39  H20 MOL d          11.887  18.089  38.173  0.00  0.00     0.210 HD
ENDBRANCH   3  38
BRANCH   5  40
ATOM     40  CB6 MOL d          14.749  14.485  40.521  0.00  0.00     0.043 C 
ATOM     41  H17 MOL d          14.542  13.405  40.494  0.00  0.00     0.078 H 
ATOM     42  H18 MOL d          14.071  14.969  41.240  0.00  0.00     0.078 H 
BRANCH  40  43
ATOM     43  OB6 MOL d          16.061  14.688  40.923  0.00  0.00    -0.398 OA
ATOM     44  H21 MOL d          16.482  13.847  41.062  0.00  0.00     0.209 HD
ENDBRANCH  40  43
ENDBRANCH   5  40
BRANCH   2  45
ATOM     45  OB2 MOL d          12.734  15.711  35.292  0.00  0.00    -0.388 OA
ATOM     46  H19 MOL d          13.578  15.989  34.954  0.00  0.00     0.210 HD
ENDBRANCH   2  45
BRANCH   1  47
ATOM     47  OA4 MOL d          15.230  14.895  36.203  0.00  0.00    -0.348 OA
BRANCH  47  48
ATOM     48  CA4 MOL d          15.999  14.032  35.553  0.00  0.00     0.090 C 
ATOM     49  CA3 MOL d          16.180  12.740  36.432  0.00  0.00     0.094 C 
ATOM     50  CA2 MOL d          16.614  11.530  35.532  0.00  0.00     0.121 C 
ATOM     51  H4  MOL d          15.206  12.503  36.886  0.00  0.00     0.091 H 
ATOM     52  CA1 MOL d          15.586  11.368  34.396  0.00  0.00     0.159 C 
ATOM     53  H2  MOL d          17.579  11.795  35.075  0.00  0.00     0.099 H 
ATOM     54  NA1 MOL d          15.304  10.147  33.970  0.00  0.00    -0.120 NA
ATOM     55  NA5 MOL d          14.962  12.504  33.793  0.00  0.00    -0.365 N 
ATOM     56  CA5 MOL d          15.209  13.869  34.294  0.00  0.00     0.059 C 
ATOM     57  H8  MOL d          14.328  12.366  32.993  0.00  0.00     0.161 HD
ATOM     58  H7  MOL d          14.231  14.343  34.464  0.00  0.00     0.079 H 
ATOM     59  H6  MOL d          16.991  14.451  35.332  0.00  0.00     0.090 H 
BRANCH  49  60
ATOM     60  OA3 MOL d          17.058  12.908  37.413  0.00  0.00    -0.390 OA
ATOM     61  H5  MOL d          16.953  13.776  37.786  0.00  0.00     0.210 HD
ENDBRANCH  49  60
BRANCH  50  62
ATOM     62  OA2 MOL d          16.810  10.381  36.199  0.00  0.00    -0.385 OA
ATOM     63  H3  MOL d          17.743  10.229  36.298  0.00  0.00     0.210 HD
ENDBRANCH  50  62
BRANCH  54  64
ATOM     64  OA7 MOL d          14.416  10.030  32.995  0.00  0.00    -0.265 OA
ATOM     65  H1  MOL d          14.364   9.121  32.723  0.00  0.00     0.247 HD
ENDBRANCH  54  64
BRANCH  56  66
ATOM     66  CA6 MOL d          15.957  14.611  33.140  0.00  0.00     0.038 C 
ATOM     67  H9  MOL d          15.632  14.197  32.174  0.00  0.00     0.077 H 
ATOM     68  H10 MOL d          17.041  14.459  33.257  0.00  0.00     0.077 H 
BRANCH  66  69
ATOM     69  OA6 MOL d          15.686  15.955  33.168  0.00  0.00    -0.399 OA
ATOM     70  H11 MOL d          16.501  16.442  33.146  0.00  0.00     0.209 HD
ENDBRANCH  66  69
ENDBRANCH  56  66
ENDBRANCH  47  48
ENDBRANCH   1  47
TORSDOF 19
ENDMDL
MODEL 10
REMARK VINA RESULT:      -4.9      3.197      8.989
REMARK  19 active torsions:
REMARK  status: ('A' for Active; 'I' for Inactive)
REMARK    1  A    between atoms: NA1_2  and  OA7_3 
REMARK    2  A    between atoms: CA2_4  and  OA2_5 
REMARK    3  A    between atoms: CA3_6  and  OA3_7 
REMARK    4  A    between atoms: CA4_8  and  OA4_9 
REMARK    5  A    between atoms: OA4_9  and  CB1_14 
REMARK    6  A    between atoms: CA5_10  and  CA6_12 
REMARK    7  A    between atoms: CA6_12  and  OA6_13 
REMARK    8  A    between atoms: CB2_15  and  OB2_20 
REMARK    9  A    between atoms: CB3_16  and  OB3_21 
REMARK   10  A    between atoms: CB4_17  and  OB4_22 
REMARK   11  A    between atoms: CB5_18  and  CB6_19 
REMARK   12  A    between atoms: CB6_19  and  OB6_24 
REMARK   13  A    between atoms: OB4_22  and  CD1_25 
REMARK   14  A    between atoms: CD2_26  and  OD2_31 
REMARK   15  A    between atoms: CD3_27  and  OD3_32 
REMARK   16  A    between atoms: CD4_28  and  OD4_33 
REMARK   17  A    between atoms: CD5_29  and  CD6_30 
REMARK   18  A    between atoms: CD6_30  and  OD6_35 
REMARK   19  A    between atoms: OD4_33  and  CD7_36 
ROOT
ATOM      1  CB1 MOL d          14.694  15.357  35.980  0.00  0.00     0.159 C 
ATOM      2  CB2 MOL d          15.371  15.694  37.393  0.00  0.00     0.110 C 
ATOM      3  CB3 MOL d          14.356  15.604  38.591  0.00  0.00     0.092 C 
ATOM      4  CB4 MOL d          13.203  16.619  38.295  0.00  0.00     0.096 C 
ATOM      5  CB5 MOL d          12.484  16.142  36.868  0.00  0.00     0.089 C 
ATOM      6  OB5 MOL d          13.492  16.205  35.784  0.00  0.00    -0.348 OA
ATOM      7  H12 MOL d          15.409  15.576  35.174  0.00  0.00     0.133 H 
ATOM      8  H13 MOL d          15.746  16.727  37.358  0.00  0.00     0.094 H 
ATOM      9  H14 MOL d          13.947  14.587  38.673  0.00  0.00     0.091 H 
ATOM     10  H15 MOL d          13.602  17.639  38.196  0.00  0.00     0.091 H 
ATOM     11  H16 MOL d          12.115  15.112  36.981  0.00  0.00     0.090 H 
ENDROOT
BRANCH   4  12
ATOM     12  OB4 MOL d          12.269  16.568  39.361  0.00  0.00    -0.348 OA
BRANCH  12  13
ATOM     13  CD1 MOL d          12.285  15.256  40.018  0.00  0.00     0.159 C 
ATOM     14  CD2 MOL d          10.872  14.551  40.113  0.00  0.00     0.110 C 
ATOM     15  CD3 MOL d           9.919  15.465  41.000  0.00  0.00     0.092 C 
ATOM     16  H23 MOL d          10.970  13.560  40.581  0.00  0.00     0.094 H 
ATOM     17  CD4 MOL d          10.531  15.580  42.432  0.00  0.00     0.092 C 
ATOM     18  H24 MOL d           9.821  16.462  40.545  0.00  0.00     0.091 H 
ATOM     19  CD5 MOL d          12.012  16.268  42.313  0.00  0.00     0.089 C 
ATOM     20  H25 MOL d          10.620  14.577  42.875  0.00  0.00     0.091 H 
ATOM     21  OD5 MOL d          12.853  15.417  41.407  0.00  0.00    -0.348 OA
ATOM     22  H26 MOL d          11.911  17.275  41.883  0.00  0.00     0.090 H 
ATOM     23  H22 MOL d          12.947  14.598  39.438  0.00  0.00     0.133 H 
BRANCH  14  24
ATOM     24  OD2 MOL d          10.372  14.408  38.769  0.00  0.00    -0.388 OA
ATOM     25  H29 MOL d          11.057  14.055  38.213  0.00  0.00     0.210 HD
ENDBRANCH  14  24
BRANCH  15  26
ATOM     26  OD3 MOL d           8.656  14.857  41.105  0.00  0.00    -0.390 OA
ATOM     27  H30 MOL d           8.312  14.993  41.980  0.00  0.00     0.210 HD
ENDBRANCH  15  26
BRANCH  17  28
ATOM     28  OD4 MOL d           9.685  16.422  43.289  0.00  0.00    -0.385 OA
BRANCH  28  29
ATOM     29  CD7 MOL d           9.121  15.738  44.440  0.00  0.00     0.005 C 
ATOM     30  H32 MOL d           8.328  16.359  44.883  0.00  0.00     0.066 H 
ATOM     31  H33 MOL d           9.910  15.564  45.187  0.00  0.00     0.066 H 
ATOM     32  H34 MOL d           8.696  14.774  44.123  0.00  0.00     0.066 H 
ENDBRANCH  28  29
ENDBRANCH  17  28
BRANCH  19  33
ATOM     33  CD6 MOL d          12.686  16.382  43.712  0.00  0.00     0.043 C 
ATOM     34  H27 MOL d          11.905  16.527  44.474  0.00  0.00     0.078 H 
ATOM     35  H28 MOL d          13.363  17.249  43.712  0.00  0.00     0.078 H 
BRANCH  33  36
ATOM     36  OD6 MOL d          13.437  15.206  44.035  0.00  0.00    -0.398 OA
ATOM     37  H31 MOL d          13.268  14.536  43.383  0.00  0.00     0.209 HD
ENDBRANCH  33  36
ENDBRANCH  19  33
ENDBRANCH  12  13
ENDBRANCH   4  12
BRANCH   3  38
ATOM     38  OB3 MOL d          15.053  15.949  39.814  0.00  0.00    -0.390 OA
ATOM     39  H20 MOL d          14.721  15.416  40.527  0.00  0.00     0.210 HD
ENDBRANCH   3  38
BRANCH   5  40
ATOM     40  CB6 MOL d          11.335  17.043  36.460  0.00  0.00     0.043 C 
ATOM     41  H17 MOL d          10.928  16.696  35.499  0.00  0.00     0.078 H 
ATOM     42  H18 MOL d          11.706  18.073  36.350  0.00  0.00     0.078 H 
BRANCH  40  43
ATOM     43  OB6 MOL d          10.330  17.021  37.415  0.00  0.00    -0.398 OA
ATOM     44  H21 MOL d           9.570  16.572  37.063  0.00  0.00     0.209 HD
ENDBRANCH  40  43
ENDBRANCH   5  40
BRANCH   2  45
ATOM     45  OB2 MOL d          16.500  14.805  37.565  0.00  0.00    -0.388 OA
ATOM     46  H19 MOL d          16.234  13.915  37.370  0.00  0.00     0.210 HD
ENDBRANCH   2  45
BRANCH   1  47
ATOM     47  OA4 MOL d          14.391  13.969  35.959  0.00  0.00    -0.348 OA
BRANCH  47  48
ATOM     48  CA4 MOL d          14.589  13.403  34.776  0.00  0.00     0.090 C 
ATOM     49  CA3 MOL d          15.391  12.065  34.972  0.00  0.00     0.094 C 
ATOM     50  CA2 MOL d          15.196  11.129  33.728  0.00  0.00     0.121 C 
ATOM     51  H4  MOL d          14.984  11.556  35.858  0.00  0.00     0.091 H 
ATOM     52  CA1 MOL d          13.686  10.919  33.503  0.00  0.00     0.159 C 
ATOM     53  H2  MOL d          15.593  11.664  32.853  0.00  0.00     0.099 H 
ATOM     54  NA1 MOL d          13.273   9.744  33.054  0.00  0.00    -0.120 NA
ATOM     55  NA5 MOL d          12.746  11.968  33.747  0.00  0.00    -0.365 N 
ATOM     56  CA5 MOL d          13.174  13.263  34.310  0.00  0.00     0.059 C 
ATOM     57  H8  MOL d          11.752  11.817  33.526  0.00  0.00     0.161 HD
ATOM     58  H7  MOL d          12.527  13.480  35.173  0.00  0.00     0.079 H 
ATOM     59  H6  MOL d          15.153  14.058  34.096  0.00  0.00     0.090 H 
BRANCH  49  60
ATOM     60  OA3 MOL d          16.686  12.272  35.180  0.00  0.00    -0.390 OA
ATOM     61  H5  MOL d          17.135  11.436  35.222  0.00  0.00     0.210 HD
ENDBRANCH  49  60
BRANCH  50  62
ATOM     62  OA2 MOL d          15.860   9.964  33.797  0.00  0.00    -0.385 OA
ATOM     63  H3  MOL d          15.732   9.578  34.654  0.00  0.00     0.210 HD
ENDBRANCH  50  62
BRANCH  54  64
ATOM     64  OA7 MOL d          11.972   9.583  32.871  0.00  0.00    -0.265 OA
ATOM     65  H1  MOL d          11.821   8.815  32.333  0.00  0.00     0.247 HD
ENDBRANCH  54  64
BRANCH  56  66
ATOM     66  CA6 MOL d          12.916  14.315  33.184  0.00  0.00     0.038 C 
ATOM     67  H9  MOL d          12.141  15.020  33.519  0.00  0.00     0.077 H 
ATOM     68  H10 MOL d          12.572  13.796  32.277  0.00  0.00     0.077 H 
BRANCH  66  69
ATOM     69  OA6 MOL d          14.063  15.010  32.896  0.00  0.00    -0.399 OA
ATOM     70  H11 MOL d          13.850  15.925  32.754  0.00  0.00     0.209 HD
ENDBRANCH  66  69
ENDBRANCH  56  66
ENDBRANCH  47  48
ENDBRANCH   1  47
TORSDOF 19
ENDMDL
