MODEL 1
REMARK VINA RESULT:      -9.6      0.000      0.000
REMARK  6 active torsions:
REMARK  status: ('A' for Active; 'I' for Inactive)
REMARK    1  A    between atoms: C1_1  and  N1_2 
REMARK    2  A    between atoms: C14_5  and  C8_8 
REMARK    3  A    between atoms: C13_6  and  O3_28 
REMARK    4  A    between atoms: C2_11  and  C21_21 
REMARK    5  A    between atoms: C5_16  and  O5_17 
REMARK    6  A    between atoms: C7_19  and  O7_20 
ROOT
ATOM      1  C8  CPB d          39.158  37.377  30.787  0.00  0.00     0.017 A 
ATOM      2  C9  CPB d          38.431  36.225  30.441  0.00  0.00     0.102 A 
ATOM      3  O1  CPB d          38.652  35.661  29.207  0.00  0.00    -0.308 OA
ATOM      4  C2  CPB d          37.989  34.512  28.861  0.00  0.00     0.091 A 
ATOM      5  C3  CPB d          37.072  33.935  29.739  0.00  0.00    -0.000 A 
ATOM      6  C4  CPB d          36.815  34.515  30.977  0.00  0.00     0.190 A 
ATOM      7  O4  CPB d          35.999  33.992  31.739  0.00  0.00    -0.287 OA
ATOM      8  C10 CPB d          37.506  35.673  31.340  0.00  0.00     0.082 A 
ATOM      9  C5  CPB d          37.326  36.257  32.599  0.00  0.00     0.085 A 
ATOM     10  C6  CPB d          38.040  37.396  32.941  0.00  0.00    -0.017 A 
ATOM     11  C7  CPB d          38.946  37.961  32.045  0.00  0.00     0.077 A 
ATOM     12  H13 CPB d          36.553  33.022  29.453  0.00  0.00     0.094 H 
ATOM     13  H15 CPB d          37.891  37.851  33.913  0.00  0.00     0.092 H 
ENDROOT
BRANCH   1  14
ATOM     14  C14 CPB d          40.153  37.941  29.727  0.00  0.00     0.005 C 
ATOM     15  C15 CPB d          39.925  39.440  29.472  0.00  0.00    -0.033 C 
ATOM     16  C16 CPB d          40.903  39.949  28.397  0.00  0.00     0.084 C 
ATOM     17  H7  CPB d          38.892  39.597  29.128  0.00  0.00     0.036 H 
ATOM     18  H8  CPB d          40.090  39.996  30.406  0.00  0.00     0.036 H 
ATOM     19  N1  CPB d          42.302  39.641  28.776  0.00  0.00    -0.072 N 
ATOM     20  H5  CPB d          40.672  39.461  27.439  0.00  0.00     0.076 H 
ATOM     21  H6  CPB d          40.789  41.038  28.291  0.00  0.00     0.076 H 
ATOM     22  C12 CPB d          42.524  38.181  28.897  0.00  0.00     0.107 C 
ATOM     23  H4  CPB d          42.507  40.078  29.661  0.00  0.00     0.279 HD
ATOM     24  C13 CPB d          41.641  37.630  30.022  0.00  0.00     0.066 C 
ATOM     25  H11 CPB d          43.581  37.987  29.131  0.00  0.00     0.080 H 
ATOM     26  H12 CPB d          42.261  37.689  27.949  0.00  0.00     0.080 H 
ATOM     27  H10 CPB d          41.773  36.540  30.095  0.00  0.00     0.086 H 
ATOM     28  H9  CPB d          39.916  37.425  28.785  0.00  0.00     0.051 H 
BRANCH  19  29
ATOM     29  C1  CPB d          43.201  40.177  27.740  0.00  0.00     0.066 C 
ATOM     30  H1  CPB d          43.606  41.144  28.071  0.00  0.00     0.068 H 
ATOM     31  H2  CPB d          42.640  40.314  26.803  0.00  0.00     0.068 H 
ATOM     32  H3  CPB d          44.028  39.472  27.572  0.00  0.00     0.068 H 
ENDBRANCH  19  29
BRANCH  24  33
ATOM     33  O3  CPB d          42.051  38.243  31.243  0.00  0.00    -0.393 OA
ATOM     34  H21 CPB d          41.897  37.643  31.964  0.00  0.00     0.210 HD
ENDBRANCH  24  33
ENDBRANCH   1  14
BRANCH  11  35
ATOM     35  O7  CPB d          39.608  39.075  32.452  0.00  0.00    -0.360 OA
ATOM     36  H16 CPB d          39.034  39.829  32.377  0.00  0.00     0.217 HD
ENDBRANCH  11  35
BRANCH   4  37
ATOM     37  C21 CPB d          38.251  33.894  27.629  0.00  0.00     0.020 A 
ATOM     38  C22 CPB d          38.742  34.592  26.510  0.00  0.00     0.047 A 
ATOM     39 CL1  CPB d          39.038  36.294  26.550  0.00  0.00    -0.083 Cl
ATOM     40  C23 CPB d          38.999  33.922  25.314  0.00  0.00    -0.061 A 
ATOM     41  C24 CPB d          38.774  32.549  25.227  0.00  0.00    -0.081 A 
ATOM     42  H17 CPB d          39.372  34.467  24.455  0.00  0.00     0.086 H 
ATOM     43  C25 CPB d          38.297  31.848  26.334  0.00  0.00    -0.082 A 
ATOM     44  H18 CPB d          38.971  32.026  24.298  0.00  0.00     0.083 H 
ATOM     45  C26 CPB d          38.040  32.511  27.526  0.00  0.00    -0.069 A 
ATOM     46  H19 CPB d          38.124  30.780  26.263  0.00  0.00     0.083 H 
ATOM     47  H20 CPB d          37.676  31.956  28.384  0.00  0.00     0.085 H 
ENDBRANCH   4  37
BRANCH   9  48
ATOM     48  O5  CPB d          36.452  35.741  33.508  0.00  0.00    -0.360 OA
ATOM     49  H14 CPB d          36.723  34.861  33.742  0.00  0.00     0.217 HD
ENDBRANCH   9  48
TORSDOF 6
ENDMDL
MODEL 2
REMARK VINA RESULT:      -8.8      2.424      5.692
REMARK  6 active torsions:
REMARK  status: ('A' for Active; 'I' for Inactive)
REMARK    1  A    between atoms: C1_1  and  N1_2 
REMARK    2  A    between atoms: C14_5  and  C8_8 
REMARK    3  A    between atoms: C13_6  and  O3_28 
REMARK    4  A    between atoms: C2_11  and  C21_21 
REMARK    5  A    between atoms: C5_16  and  O5_17 
REMARK    6  A    between atoms: C7_19  and  O7_20 
ROOT
ATOM      1  C8  CPB d          38.999  35.795  28.591  0.00  0.00     0.017 A 
ATOM      2  C9  CPB d          38.579  36.101  29.896  0.00  0.00     0.102 A 
ATOM      3  O1  CPB d          39.093  37.224  30.500  0.00  0.00    -0.308 OA
ATOM      4  C2  CPB d          38.668  37.570  31.757  0.00  0.00     0.091 A 
ATOM      5  C3  CPB d          37.746  36.774  32.434  0.00  0.00    -0.000 A 
ATOM      6  C4  CPB d          37.244  35.615  31.848  0.00  0.00     0.190 A 
ATOM      7  O4  CPB d          36.432  34.922  32.463  0.00  0.00    -0.287 OA
ATOM      8  C10 CPB d          37.660  35.274  30.558  0.00  0.00     0.082 A 
ATOM      9  C5  CPB d          37.136  34.153  29.905  0.00  0.00     0.085 A 
ATOM     10  C6  CPB d          37.551  33.847  28.617  0.00  0.00    -0.017 A 
ATOM     11  C7  CPB d          38.480  34.653  27.961  0.00  0.00     0.077 A 
ATOM     12  H13 CPB d          37.415  37.060  33.430  0.00  0.00     0.094 H 
ATOM     13  H15 CPB d          37.151  32.973  28.117  0.00  0.00     0.092 H 
ENDROOT
BRANCH   1  14
ATOM     14  C14 CPB d          40.038  36.751  27.929  0.00  0.00     0.005 C 
ATOM     15  C15 CPB d          41.311  36.003  27.503  0.00  0.00    -0.033 C 
ATOM     16  C16 CPB d          42.322  36.987  26.887  0.00  0.00     0.084 C 
ATOM     17  H7  CPB d          41.761  35.522  28.383  0.00  0.00     0.036 H 
ATOM     18  H8  CPB d          41.050  35.237  26.758  0.00  0.00     0.036 H 
ATOM     19  N1  CPB d          41.703  37.742  25.772  0.00  0.00    -0.072 N 
ATOM     20  H5  CPB d          42.656  37.693  27.661  0.00  0.00     0.076 H 
ATOM     21  H6  CPB d          43.187  36.425  26.505  0.00  0.00     0.076 H 
ATOM     22  C12 CPB d          40.551  38.550  26.236  0.00  0.00     0.107 C 
ATOM     23  H4  CPB d          41.386  37.092  25.070  0.00  0.00     0.279 HD
ATOM     24  C13 CPB d          39.466  37.613  26.777  0.00  0.00     0.066 C 
ATOM     25  H11 CPB d          40.147  39.133  25.395  0.00  0.00     0.080 H 
ATOM     26  H12 CPB d          40.878  39.233  27.033  0.00  0.00     0.080 H 
ATOM     27  H10 CPB d          38.620  38.206  27.157  0.00  0.00     0.086 H 
ATOM     28  H9  CPB d          40.340  37.459  28.715  0.00  0.00     0.051 H 
BRANCH  19  29
ATOM     29  C1  CPB d          42.714  38.642  25.192  0.00  0.00     0.066 C 
ATOM     30  H1  CPB d          42.462  38.848  24.141  0.00  0.00     0.068 H 
ATOM     31  H2  CPB d          43.704  38.163  25.244  0.00  0.00     0.068 H 
ATOM     32  H3  CPB d          42.733  39.586  25.756  0.00  0.00     0.068 H 
ENDBRANCH  19  29
BRANCH  24  33
ATOM     33  O3  CPB d          39.023  36.786  25.703  0.00  0.00    -0.393 OA
ATOM     34  H21 CPB d          38.584  36.020  26.054  0.00  0.00     0.210 HD
ENDBRANCH  24  33
ENDBRANCH   1  14
BRANCH  11  35
ATOM     35  O7  CPB d          38.837  34.290  26.702  0.00  0.00    -0.360 OA
ATOM     36  H16 CPB d          39.754  34.041  26.692  0.00  0.00     0.217 HD
ENDBRANCH  11  35
BRANCH   4  37
ATOM     37  C21 CPB d          39.139  38.747  32.358  0.00  0.00     0.020 A 
ATOM     38  C22 CPB d          39.022  40.014  31.759  0.00  0.00     0.047 A 
ATOM     39 CL1  CPB d          38.305  40.228  30.201  0.00  0.00    -0.083 Cl
ATOM     40  C23 CPB d          39.496  41.153  32.411  0.00  0.00    -0.061 A 
ATOM     41  C24 CPB d          40.085  41.036  33.668  0.00  0.00    -0.081 A 
ATOM     42  H17 CPB d          39.406  42.126  31.941  0.00  0.00     0.086 H 
ATOM     43  C25 CPB d          40.198  39.784  34.274  0.00  0.00    -0.082 A 
ATOM     44  H18 CPB d          40.456  41.919  34.176  0.00  0.00     0.083 H 
ATOM     45  C26 CPB d          39.726  38.649  33.628  0.00  0.00    -0.069 A 
ATOM     46  H19 CPB d          40.655  39.697  35.252  0.00  0.00     0.083 H 
ATOM     47  H20 CPB d          39.811  37.681  34.109  0.00  0.00     0.085 H 
ENDBRANCH   4  37
BRANCH   9  48
ATOM     48  O5  CPB d          36.226  33.335  30.506  0.00  0.00    -0.360 OA
ATOM     49  H14 CPB d          36.348  33.366  31.447  0.00  0.00     0.217 HD
ENDBRANCH   9  48
TORSDOF 6
ENDMDL
MODEL 3
REMARK VINA RESULT:      -8.8      2.284      5.295
REMARK  6 active torsions:
REMARK  status: ('A' for Active; 'I' for Inactive)
REMARK    1  A    between atoms: C1_1  and  N1_2 
REMARK    2  A    between atoms: C14_5  and  C8_8 
REMARK    3  A    between atoms: C13_6  and  O3_28 
REMARK    4  A    between atoms: C2_11  and  C21_21 
REMARK    5  A    between atoms: C5_16  and  O5_17 
REMARK    6  A    between atoms: C7_19  and  O7_20 
ROOT
ATOM      1  C8  CPB d          39.634  37.096  27.146  0.00  0.00     0.017 A 
ATOM      2  C9  CPB d          38.993  36.207  28.025  0.00  0.00     0.102 A 
ATOM      3  O1  CPB d          38.812  36.598  29.331  0.00  0.00    -0.308 OA
ATOM      4  C2  CPB d          38.150  35.769  30.200  0.00  0.00     0.091 A 
ATOM      5  C3  CPB d          37.692  34.523  29.774  0.00  0.00    -0.000 A 
ATOM      6  C4  CPB d          37.899  34.101  28.465  0.00  0.00     0.190 A 
ATOM      7  O4  CPB d          37.488  32.995  28.107  0.00  0.00    -0.287 OA
ATOM      8  C10 CPB d          38.553  34.954  27.573  0.00  0.00     0.082 A 
ATOM      9  C5  CPB d          38.728  34.598  26.231  0.00  0.00     0.085 A 
ATOM     10  C6  CPB d          39.364  35.473  25.362  0.00  0.00    -0.017 A 
ATOM     11  C7  CPB d          39.822  36.711  25.810  0.00  0.00     0.077 A 
ATOM     12  H13 CPB d          37.167  33.874  30.473  0.00  0.00     0.094 H 
ATOM     13  H15 CPB d          39.507  35.191  24.325  0.00  0.00     0.092 H 
ENDROOT
BRANCH   1  14
ATOM     14  C14 CPB d          40.112  38.461  27.729  0.00  0.00     0.005 C 
ATOM     15  C15 CPB d          39.034  39.114  28.609  0.00  0.00    -0.033 C 
ATOM     16  C16 CPB d          39.531  40.472  29.136  0.00  0.00     0.084 C 
ATOM     17  H7  CPB d          38.122  39.267  28.013  0.00  0.00     0.036 H 
ATOM     18  H8  CPB d          38.810  38.454  29.460  0.00  0.00     0.036 H 
ATOM     19  N1  CPB d          40.826  40.316  29.840  0.00  0.00    -0.072 N 
ATOM     20  H5  CPB d          39.661  41.162  28.289  0.00  0.00     0.076 H 
ATOM     21  H6  CPB d          38.788  40.884  29.834  0.00  0.00     0.076 H 
ATOM     22  C12 CPB d          41.878  39.798  28.936  0.00  0.00     0.107 C 
ATOM     23  H4  CPB d          40.707  39.673  30.608  0.00  0.00     0.279 HD
ATOM     24  C13 CPB d          41.481  38.400  28.450  0.00  0.00     0.066 C 
ATOM     25  H11 CPB d          42.834  39.741  29.477  0.00  0.00     0.080 H 
ATOM     26  H12 CPB d          41.985  40.471  28.072  0.00  0.00     0.080 H 
ATOM     27  H10 CPB d          42.240  38.022  27.750  0.00  0.00     0.086 H 
ATOM     28  H9  CPB d          40.254  39.125  26.864  0.00  0.00     0.051 H 
BRANCH  19  29
ATOM     29  C1  CPB d          41.244  41.630  30.357  0.00  0.00     0.066 C 
ATOM     30  H1  CPB d          42.219  41.900  29.927  0.00  0.00     0.068 H 
ATOM     31  H2  CPB d          41.326  41.584  31.453  0.00  0.00     0.068 H 
ATOM     32  H3  CPB d          40.498  42.389  30.077  0.00  0.00     0.068 H 
ENDBRANCH  19  29
BRANCH  24  33
ATOM     33  O3  CPB d          41.413  37.542  29.588  0.00  0.00    -0.393 OA
ATOM     34  H21 CPB d          40.940  37.980  30.286  0.00  0.00     0.210 HD
ENDBRANCH  24  33
ENDBRANCH   1  14
BRANCH  11  35
ATOM     35  O7  CPB d          40.433  37.513  24.900  0.00  0.00    -0.360 OA
ATOM     36  H16 CPB d          40.149  37.272  24.025  0.00  0.00     0.217 HD
ENDBRANCH  11  35
BRANCH   4  37
ATOM     37  C21 CPB d          37.907  36.183  31.518  0.00  0.00     0.020 A 
ATOM     38  C22 CPB d          36.963  35.562  32.355  0.00  0.00     0.047 A 
ATOM     39 CL1  CPB d          35.990  34.240  31.815  0.00  0.00    -0.083 Cl
ATOM     40  C23 CPB d          36.775  36.008  33.663  0.00  0.00    -0.061 A 
ATOM     41  C24 CPB d          37.532  37.073  34.148  0.00  0.00    -0.081 A 
ATOM     42  H17 CPB d          36.041  35.528  34.301  0.00  0.00     0.086 H 
ATOM     43  C25 CPB d          38.477  37.688  33.328  0.00  0.00    -0.082 A 
ATOM     44  H18 CPB d          37.386  37.422  35.164  0.00  0.00     0.083 H 
ATOM     45  C26 CPB d          38.668  37.247  32.025  0.00  0.00    -0.069 A 
ATOM     46  H19 CPB d          39.065  38.516  33.709  0.00  0.00     0.083 H 
ATOM     47  H20 CPB d          39.410  37.727  31.397  0.00  0.00     0.085 H 
ENDBRANCH   4  37
BRANCH   9  48
ATOM     48  O5  CPB d          38.298  33.399  25.747  0.00  0.00    -0.360 OA
ATOM     49  H14 CPB d          38.874  32.709  26.055  0.00  0.00     0.217 HD
ENDBRANCH   9  48
TORSDOF 6
ENDMDL
MODEL 4
REMARK VINA RESULT:      -8.3      2.087      5.476
REMARK  6 active torsions:
REMARK  status: ('A' for Active; 'I' for Inactive)
REMARK    1  A    between atoms: C1_1  and  N1_2 
REMARK    2  A    between atoms: C14_5  and  C8_8 
REMARK    3  A    between atoms: C13_6  and  O3_28 
REMARK    4  A    between atoms: C2_11  and  C21_21 
REMARK    5  A    between atoms: C5_16  and  O5_17 
REMARK    6  A    between atoms: C7_19  and  O7_20 
ROOT
ATOM      1  C8  CPB d          37.328  34.667  29.903  0.00  0.00     0.017 A 
ATOM      2  C9  CPB d          38.091  35.800  30.232  0.00  0.00     0.102 A 
ATOM      3  O1  CPB d          38.918  36.330  29.271  0.00  0.00    -0.308 OA
ATOM      4  C2  CPB d          39.641  37.461  29.551  0.00  0.00     0.091 A 
ATOM      5  C3  CPB d          39.566  38.053  30.811  0.00  0.00    -0.000 A 
ATOM      6  C4  CPB d          38.758  37.506  31.804  0.00  0.00     0.190 A 
ATOM      7  O4  CPB d          38.706  38.042  32.912  0.00  0.00    -0.287 OA
ATOM      8  C10 CPB d          38.004  36.367  31.512  0.00  0.00     0.082 A 
ATOM      9  C5  CPB d          37.131  35.817  32.458  0.00  0.00     0.085 A 
ATOM     10  C6  CPB d          36.380  34.697  32.137  0.00  0.00    -0.017 A 
ATOM     11  C7  CPB d          36.477  34.117  30.873  0.00  0.00     0.077 A 
ATOM     12  H13 CPB d          40.144  38.951  31.020  0.00  0.00     0.094 H 
ATOM     13  H15 CPB d          35.711  34.269  32.875  0.00  0.00     0.092 H 
ENDROOT
BRANCH   1  14
ATOM     14  C14 CPB d          37.494  34.084  28.466  0.00  0.00     0.005 C 
ATOM     15  C15 CPB d          38.509  34.887  27.638  0.00  0.00    -0.033 C 
ATOM     16  C16 CPB d          38.619  34.301  26.219  0.00  0.00     0.084 C 
ATOM     17  H7  CPB d          38.178  35.934  27.574  0.00  0.00     0.036 H 
ATOM     18  H8  CPB d          39.494  34.843  28.127  0.00  0.00     0.036 H 
ATOM     19  N1  CPB d          38.944  32.856  26.275  0.00  0.00    -0.072 N 
ATOM     20  H5  CPB d          37.660  34.435  25.698  0.00  0.00     0.076 H 
ATOM     21  H6  CPB d          39.412  34.828  25.669  0.00  0.00     0.076 H 
ATOM     22  C12 CPB d          37.889  32.087  26.975  0.00  0.00     0.107 C 
ATOM     23  H4  CPB d          39.818  32.734  26.765  0.00  0.00     0.279 HD
ATOM     24  C13 CPB d          37.797  32.566  28.428  0.00  0.00     0.066 C 
ATOM     25  H11 CPB d          38.138  31.016  26.955  0.00  0.00     0.080 H 
ATOM     26  H12 CPB d          36.923  32.248  26.473  0.00  0.00     0.080 H 
ATOM     27  H10 CPB d          36.991  32.025  28.945  0.00  0.00     0.086 H 
ATOM     28  H9  CPB d          36.519  34.211  27.973  0.00  0.00     0.051 H 
BRANCH  19  29
ATOM     29  C1  CPB d          39.074  32.347  24.900  0.00  0.00     0.066 C 
ATOM     30  H1  CPB d          38.314  31.573  24.722  0.00  0.00     0.068 H 
ATOM     31  H2  CPB d          40.077  31.916  24.762  0.00  0.00     0.068 H 
ATOM     32  H3  CPB d          38.929  33.173  24.188  0.00  0.00     0.068 H 
ENDBRANCH  19  29
BRANCH  24  33
ATOM     33  O3  CPB d          39.043  32.285  29.062  0.00  0.00    -0.393 OA
ATOM     34  H21 CPB d          39.495  31.601  28.582  0.00  0.00     0.210 HD
ENDBRANCH  24  33
ENDBRANCH   1  14
BRANCH  11  35
ATOM     35  O7  CPB d          35.708  33.023  30.632  0.00  0.00    -0.360 OA
ATOM     36  H16 CPB d          35.842  32.734  29.737  0.00  0.00     0.217 HD
ENDBRANCH  11  35
BRANCH   4  37
ATOM     37  C21 CPB d          40.442  38.046  28.558  0.00  0.00     0.020 A 
ATOM     38  C22 CPB d          41.658  37.486  28.126  0.00  0.00     0.047 A 
ATOM     39 CL1  CPB d          42.291  36.030  28.809  0.00  0.00    -0.083 Cl
ATOM     40  C23 CPB d          42.405  38.105  27.123  0.00  0.00    -0.061 A 
ATOM     41  C24 CPB d          41.942  39.283  26.540  0.00  0.00    -0.081 A 
ATOM     42  H17 CPB d          43.344  37.670  26.798  0.00  0.00     0.086 H 
ATOM     43  C25 CPB d          40.733  39.839  26.956  0.00  0.00    -0.082 A 
ATOM     44  H18 CPB d          42.522  39.766  25.762  0.00  0.00     0.083 H 
ATOM     45  C26 CPB d          39.986  39.226  27.953  0.00  0.00    -0.069 A 
ATOM     46  H19 CPB d          40.375  40.755  26.499  0.00  0.00     0.083 H 
ATOM     47  H20 CPB d          39.044  39.663  28.266  0.00  0.00     0.085 H 
ENDBRANCH   4  37
BRANCH   9  48
ATOM     48  O5  CPB d          37.003  36.350  33.707  0.00  0.00    -0.360 OA
ATOM     49  H14 CPB d          37.591  35.902  34.303  0.00  0.00     0.217 HD
ENDBRANCH   9  48
TORSDOF 6
ENDMDL
MODEL 5
REMARK VINA RESULT:      -8.2      2.256      3.837
REMARK  6 active torsions:
REMARK  status: ('A' for Active; 'I' for Inactive)
REMARK    1  A    between atoms: C1_1  and  N1_2 
REMARK    2  A    between atoms: C14_5  and  C8_8 
REMARK    3  A    between atoms: C13_6  and  O3_28 
REMARK    4  A    between atoms: C2_11  and  C21_21 
REMARK    5  A    between atoms: C5_16  and  O5_17 
REMARK    6  A    between atoms: C7_19  and  O7_20 
ROOT
ATOM      1  C8  CPB d          38.405  36.984  31.613  0.00  0.00     0.017 A 
ATOM      2  C9  CPB d          38.604  36.414  30.344  0.00  0.00     0.102 A 
ATOM      3  O1  CPB d          39.513  37.005  29.499  0.00  0.00    -0.308 OA
ATOM      4  C2  CPB d          39.760  36.445  28.272  0.00  0.00     0.091 A 
ATOM      5  C3  CPB d          39.070  35.303  27.867  0.00  0.00    -0.000 A 
ATOM      6  C4  CPB d          38.121  34.716  28.699  0.00  0.00     0.190 A 
ATOM      7  O4  CPB d          37.520  33.708  28.323  0.00  0.00    -0.287 OA
ATOM      8  C10 CPB d          37.886  35.273  29.958  0.00  0.00     0.082 A 
ATOM      9  C5  CPB d          36.988  34.681  30.853  0.00  0.00     0.085 A 
ATOM     10  C6  CPB d          36.787  35.244  32.105  0.00  0.00    -0.017 A 
ATOM     11  C7  CPB d          37.482  36.390  32.486  0.00  0.00     0.077 A 
ATOM     12  H13 CPB d          39.275  34.867  26.891  0.00  0.00     0.094 H 
ATOM     13  H15 CPB d          36.084  34.788  32.792  0.00  0.00     0.092 H 
ENDROOT
BRANCH   1  14
ATOM     14  C14 CPB d          39.226  38.265  31.960  0.00  0.00     0.005 C 
ATOM     15  C15 CPB d          40.712  38.103  31.604  0.00  0.00    -0.033 C 
ATOM     16  C16 CPB d          41.491  39.373  31.993  0.00  0.00     0.084 C 
ATOM     17  H7  CPB d          41.125  37.242  32.149  0.00  0.00     0.036 H 
ATOM     18  H8  CPB d          40.810  37.934  30.522  0.00  0.00     0.036 H 
ATOM     19  N1  CPB d          40.881  40.571  31.369  0.00  0.00    -0.072 N 
ATOM     20  H5  CPB d          41.473  39.487  33.087  0.00  0.00     0.076 H 
ATOM     21  H6  CPB d          42.532  39.278  31.651  0.00  0.00     0.076 H 
ATOM     22  C12 CPB d          39.485  40.770  31.824  0.00  0.00     0.107 C 
ATOM     23  H4  CPB d          40.887  40.459  30.367  0.00  0.00     0.279 HD
ATOM     24  C13 CPB d          38.637  39.574  31.381  0.00  0.00     0.066 C 
ATOM     25  H11 CPB d          39.081  41.692  31.380  0.00  0.00     0.080 H 
ATOM     26  H12 CPB d          39.464  40.851  32.921  0.00  0.00     0.080 H 
ATOM     27  H10 CPB d          37.606  39.696  31.745  0.00  0.00     0.086 H 
ATOM     28  H9  CPB d          39.176  38.368  33.054  0.00  0.00     0.051 H 
BRANCH  19  29
ATOM     29  C1  CPB d          41.678  41.753  31.738  0.00  0.00     0.066 C 
ATOM     30  H1  CPB d          41.477  42.567  31.027  0.00  0.00     0.068 H 
ATOM     31  H2  CPB d          42.747  41.497  31.711  0.00  0.00     0.068 H 
ATOM     32  H3  CPB d          41.404  42.078  32.753  0.00  0.00     0.068 H 
ENDBRANCH  19  29
BRANCH  24  33
ATOM     33  O3  CPB d          38.637  39.538  29.955  0.00  0.00    -0.393 OA
ATOM     34  H21 CPB d          37.884  39.044  29.651  0.00  0.00     0.210 HD
ENDBRANCH  24  33
ENDBRANCH   1  14
BRANCH  11  35
ATOM     35  O7  CPB d          37.233  36.881  33.728  0.00  0.00    -0.360 OA
ATOM     36  H16 CPB d          36.414  37.362  33.720  0.00  0.00     0.217 HD
ENDBRANCH  11  35
BRANCH   4  37
ATOM     37  C21 CPB d          40.730  37.004  27.427  0.00  0.00     0.020 A 
ATOM     38  C22 CPB d          42.112  36.867  27.650  0.00  0.00     0.047 A 
ATOM     39 CL1  CPB d          42.739  36.015  29.016  0.00  0.00    -0.083 Cl
ATOM     40  C23 CPB d          43.031  37.433  26.766  0.00  0.00    -0.061 A 
ATOM     41  C24 CPB d          42.579  38.133  25.650  0.00  0.00    -0.081 A 
ATOM     42  H17 CPB d          44.095  37.328  26.947  0.00  0.00     0.086 H 
ATOM     43  C25 CPB d          41.210  38.265  25.415  0.00  0.00    -0.082 A 
ATOM     44  H18 CPB d          43.291  38.575  24.963  0.00  0.00     0.083 H 
ATOM     45  C26 CPB d          40.292  37.703  26.292  0.00  0.00    -0.069 A 
ATOM     46  H19 CPB d          40.862  38.809  24.545  0.00  0.00     0.083 H 
ATOM     47  H20 CPB d          39.230  37.805  26.099  0.00  0.00     0.085 H 
ENDBRANCH   4  37
BRANCH   9  48
ATOM     48  O5  CPB d          36.286  33.559  30.524  0.00  0.00    -0.360 OA
ATOM     49  H14 CPB d          35.756  33.733  29.755  0.00  0.00     0.217 HD
ENDBRANCH   9  48
TORSDOF 6
ENDMDL
MODEL 6
REMARK VINA RESULT:      -7.7      2.509      5.553
REMARK  6 active torsions:
REMARK  status: ('A' for Active; 'I' for Inactive)
REMARK    1  A    between atoms: C1_1  and  N1_2 
REMARK    2  A    between atoms: C14_5  and  C8_8 
REMARK    3  A    between atoms: C13_6  and  O3_28 
REMARK    4  A    between atoms: C2_11  and  C21_21 
REMARK    5  A    between atoms: C5_16  and  O5_17 
REMARK    6  A    between atoms: C7_19  and  O7_20 
ROOT
ATOM      1  C8  CPB d          39.407  36.128  27.536  0.00  0.00     0.017 A 
ATOM      2  C9  CPB d          39.027  36.468  28.846  0.00  0.00     0.102 A 
ATOM      3  O1  CPB d          39.426  37.685  29.345  0.00  0.00    -0.308 OA
ATOM      4  C2  CPB d          39.033  38.061  30.604  0.00  0.00     0.091 A 
ATOM      5  C3  CPB d          38.262  37.204  31.387  0.00  0.00    -0.000 A 
ATOM      6  C4  CPB d          37.880  35.955  30.906  0.00  0.00     0.190 A 
ATOM      7  O4  CPB d          37.200  35.210  31.614  0.00  0.00    -0.287 OA
ATOM      8  C10 CPB d          38.262  35.580  29.616  0.00  0.00     0.082 A 
ATOM      9  C5  CPB d          37.850  34.361  29.067  0.00  0.00     0.085 A 
ATOM     10  C6  CPB d          38.226  34.022  27.776  0.00  0.00    -0.017 A 
ATOM     11  C7  CPB d          39.004  34.891  27.013  0.00  0.00     0.077 A 
ATOM     12  H13 CPB d          37.955  37.515  32.384  0.00  0.00     0.094 H 
ATOM     13  H15 CPB d          37.913  33.072  27.356  0.00  0.00     0.092 H 
ENDROOT
BRANCH   1  14
ATOM     14  C14 CPB d          40.275  37.159  26.751  0.00  0.00     0.005 C 
ATOM     15  C15 CPB d          39.761  38.596  26.937  0.00  0.00    -0.033 C 
ATOM     16  C16 CPB d          40.623  39.576  26.120  0.00  0.00     0.084 C 
ATOM     17  H7  CPB d          38.718  38.655  26.593  0.00  0.00     0.036 H 
ATOM     18  H8  CPB d          39.813  38.866  28.001  0.00  0.00     0.036 H 
ATOM     19  N1  CPB d          42.054  39.432  26.474  0.00  0.00    -0.072 N 
ATOM     20  H5  CPB d          40.492  39.366  25.049  0.00  0.00     0.076 H 
ATOM     21  H6  CPB d          40.300  40.606  26.333  0.00  0.00     0.076 H 
ATOM     22  C12 CPB d          42.555  38.071  26.172  0.00  0.00     0.107 C 
ATOM     23  H4  CPB d          42.170  39.613  27.459  0.00  0.00     0.279 HD
ATOM     24  C13 CPB d          41.795  37.054  27.030  0.00  0.00     0.066 C 
ATOM     25  H11 CPB d          43.630  38.015  26.401  0.00  0.00     0.080 H 
ATOM     26  H12 CPB d          42.394  37.848  25.107  0.00  0.00     0.080 H 
ATOM     27  H10 CPB d          42.135  36.037  26.787  0.00  0.00     0.086 H 
ATOM     28  H9  CPB d          40.145  36.916  25.687  0.00  0.00     0.051 H 
BRANCH  19  29
ATOM     29  C1  CPB d          42.834  40.411  25.698  0.00  0.00     0.066 C 
ATOM     30  H1  CPB d          43.776  39.950  25.367  0.00  0.00     0.068 H 
ATOM     31  H2  CPB d          43.054  41.286  26.327  0.00  0.00     0.068 H 
ATOM     32  H3  CPB d          42.253  40.729  24.819  0.00  0.00     0.068 H 
ENDBRANCH  19  29
BRANCH  24  33
ATOM     33  O3  CPB d          42.076  37.335  28.399  0.00  0.00    -0.393 OA
ATOM     34  H21 CPB d          42.546  38.159  28.463  0.00  0.00     0.210 HD
ENDBRANCH  24  33
ENDBRANCH   1  14
BRANCH  11  35
ATOM     35  O7  CPB d          39.332  34.489  25.757  0.00  0.00    -0.360 OA
ATOM     36  H16 CPB d          39.480  35.252  25.210  0.00  0.00     0.217 HD
ENDBRANCH  11  35
BRANCH   4  37
ATOM     37  C21 CPB d          39.383  39.325  31.100  0.00  0.00     0.020 A 
ATOM     38  C22 CPB d          40.601  39.581  31.757  0.00  0.00     0.047 A 
ATOM     39 CL1  CPB d          41.768  38.339  32.038  0.00  0.00    -0.083 Cl
ATOM     40  C23 CPB d          40.902  40.864  32.216  0.00  0.00    -0.061 A 
ATOM     41  C24 CPB d          39.994  41.902  32.018  0.00  0.00    -0.081 A 
ATOM     42  H17 CPB d          41.840  41.052  32.726  0.00  0.00     0.086 H 
ATOM     43  C25 CPB d          38.789  41.659  31.359  0.00  0.00    -0.082 A 
ATOM     44  H18 CPB d          40.225  42.899  32.376  0.00  0.00     0.083 H 
ATOM     45  C26 CPB d          38.485  40.385  30.900  0.00  0.00    -0.069 A 
ATOM     46  H19 CPB d          38.085  42.470  31.205  0.00  0.00     0.083 H 
ATOM     47  H20 CPB d          37.549  40.207  30.383  0.00  0.00     0.085 H 
ENDBRANCH   4  37
BRANCH   9  48
ATOM     48  O5  CPB d          37.088  33.479  29.774  0.00  0.00    -0.360 OA
ATOM     49  H14 CPB d          37.243  33.603  30.703  0.00  0.00     0.217 HD
ENDBRANCH   9  48
TORSDOF 6
ENDMDL
MODEL 7
REMARK VINA RESULT:      -7.6      1.550      2.311
REMARK  6 active torsions:
REMARK  status: ('A' for Active; 'I' for Inactive)
REMARK    1  A    between atoms: C1_1  and  N1_2 
REMARK    2  A    between atoms: C14_5  and  C8_8 
REMARK    3  A    between atoms: C13_6  and  O3_28 
REMARK    4  A    between atoms: C2_11  and  C21_21 
REMARK    5  A    between atoms: C5_16  and  O5_17 
REMARK    6  A    between atoms: C7_19  and  O7_20 
ROOT
ATOM      1  C8  CPB d          40.151  39.133  29.833  0.00  0.00     0.017 A 
ATOM      2  C9  CPB d          39.414  37.972  30.122  0.00  0.00     0.102 A 
ATOM      3  O1  CPB d          39.239  37.046  29.121  0.00  0.00    -0.308 OA
ATOM      4  C2  CPB d          38.562  35.884  29.386  0.00  0.00     0.091 A 
ATOM      5  C3  CPB d          38.025  35.654  30.651  0.00  0.00    -0.000 A 
ATOM      6  C4  CPB d          38.165  36.599  31.663  0.00  0.00     0.190 A 
ATOM      7  O4  CPB d          37.681  36.379  32.776  0.00  0.00    -0.287 OA
ATOM      8  C10 CPB d          38.874  37.773  31.400  0.00  0.00     0.082 A 
ATOM      9  C5  CPB d          39.094  38.723  32.404  0.00  0.00     0.085 A 
ATOM     10  C6  CPB d          39.818  39.872  32.121  0.00  0.00    -0.017 A 
ATOM     11  C7  CPB d          40.340  40.085  30.847  0.00  0.00     0.077 A 
ATOM     12  H13 CPB d          37.491  34.727  30.850  0.00  0.00     0.094 H 
ATOM     13  H15 CPB d          39.979  40.611  32.898  0.00  0.00     0.092 H 
ENDROOT
BRANCH   1  14
ATOM     14  C14 CPB d          40.702  39.291  28.383  0.00  0.00     0.005 C 
ATOM     15  C15 CPB d          40.349  40.662  27.785  0.00  0.00    -0.033 C 
ATOM     16  C16 CPB d          40.881  40.764  26.344  0.00  0.00     0.084 C 
ATOM     17  H7  CPB d          39.256  40.785  27.779  0.00  0.00     0.036 H 
ATOM     18  H8  CPB d          40.805  41.454  28.397  0.00  0.00     0.036 H 
ATOM     19  N1  CPB d          42.334  40.481  26.303  0.00  0.00    -0.072 N 
ATOM     20  H5  CPB d          40.352  40.036  25.712  0.00  0.00     0.076 H 
ATOM     21  H6  CPB d          40.700  41.780  25.962  0.00  0.00     0.076 H 
ATOM     22  C12 CPB d          42.635  39.108  26.772  0.00  0.00     0.107 C 
ATOM     23  H4  CPB d          42.816  41.142  26.893  0.00  0.00     0.279 HD
ATOM     24  C13 CPB d          42.211  38.974  28.238  0.00  0.00     0.066 C 
ATOM     25  H11 CPB d          43.714  38.916  26.682  0.00  0.00     0.080 H 
ATOM     26  H12 CPB d          42.080  38.381  26.160  0.00  0.00     0.080 H 
ATOM     27  H10 CPB d          42.397  37.947  28.585  0.00  0.00     0.086 H 
ATOM     28  H9  CPB d          40.175  38.541  27.776  0.00  0.00     0.051 H 
BRANCH  19  29
ATOM     29  C1  CPB d          42.805  40.626  24.915  0.00  0.00     0.066 C 
ATOM     30  H1  CPB d          43.840  40.263  24.839  0.00  0.00     0.068 H 
ATOM     31  H2  CPB d          42.765  41.686  24.623  0.00  0.00     0.068 H 
ATOM     32  H3  CPB d          42.160  40.037  24.246  0.00  0.00     0.068 H 
ENDBRANCH  19  29
BRANCH  24  33
ATOM     33  O3  CPB d          42.993  39.886  29.007  0.00  0.00    -0.393 OA
ATOM     34  H21 CPB d          43.545  40.396  28.427  0.00  0.00     0.210 HD
ENDBRANCH  24  33
ENDBRANCH   1  14
BRANCH  11  35
ATOM     35  O7  CPB d          41.039  41.233  30.647  0.00  0.00    -0.360 OA
ATOM     36  H16 CPB d          41.691  41.330  31.333  0.00  0.00     0.217 HD
ENDBRANCH  11  35
BRANCH   4  37
ATOM     37  C21 CPB d          38.431  34.905  28.389  0.00  0.00     0.020 A 
ATOM     38  C22 CPB d          38.716  35.148  27.033  0.00  0.00     0.047 A 
ATOM     39 CL1  CPB d          39.232  36.698  26.469  0.00  0.00    -0.083 Cl
ATOM     40  C23 CPB d          38.582  34.131  26.088  0.00  0.00    -0.061 A 
ATOM     41  C24 CPB d          38.167  32.863  26.489  0.00  0.00    -0.081 A 
ATOM     42  H17 CPB d          38.799  34.327  25.044  0.00  0.00     0.086 H 
ATOM     43  C25 CPB d          37.890  32.610  27.833  0.00  0.00    -0.082 A 
ATOM     44  H18 CPB d          38.060  32.072  25.756  0.00  0.00     0.083 H 
ATOM     45  C26 CPB d          38.024  33.620  28.777  0.00  0.00    -0.069 A 
ATOM     46  H19 CPB d          37.569  31.622  28.141  0.00  0.00     0.083 H 
ATOM     47  H20 CPB d          37.814  33.413  29.820  0.00  0.00     0.085 H 
ENDBRANCH   4  37
BRANCH   9  48
ATOM     48  O5  CPB d          38.603  38.558  33.665  0.00  0.00    -0.360 OA
ATOM     49  H14 CPB d          39.103  37.886  34.112  0.00  0.00     0.217 HD
ENDBRANCH   9  48
TORSDOF 6
ENDMDL
MODEL 8
REMARK VINA RESULT:      -7.4      2.409      4.465
REMARK  6 active torsions:
REMARK  status: ('A' for Active; 'I' for Inactive)
REMARK    1  A    between atoms: C1_1  and  N1_2 
REMARK    2  A    between atoms: C14_5  and  C8_8 
REMARK    3  A    between atoms: C13_6  and  O3_28 
REMARK    4  A    between atoms: C2_11  and  C21_21 
REMARK    5  A    between atoms: C5_16  and  O5_17 
REMARK    6  A    between atoms: C7_19  and  O7_20 
ROOT
ATOM      1  C8  CPB d          38.807  37.155  30.751  0.00  0.00     0.017 A 
ATOM      2  C9  CPB d          39.167  36.688  29.476  0.00  0.00     0.102 A 
ATOM      3  O1  CPB d          40.049  37.437  28.734  0.00  0.00    -0.308 OA
ATOM      4  C2  CPB d          40.452  36.983  27.504  0.00  0.00     0.091 A 
ATOM      5  C3  CPB d          39.947  35.789  26.993  0.00  0.00    -0.000 A 
ATOM      6  C4  CPB d          39.027  35.040  27.719  0.00  0.00     0.190 A 
ATOM      7  O4  CPB d          38.589  33.987  27.249  0.00  0.00    -0.287 OA
ATOM      8  C10 CPB d          38.633  35.490  28.981  0.00  0.00     0.082 A 
ATOM      9  C5  CPB d          37.758  34.739  29.774  0.00  0.00     0.085 A 
ATOM     10  C6  CPB d          37.398  35.199  31.032  0.00  0.00    -0.017 A 
ATOM     11  C7  CPB d          37.909  36.400  31.521  0.00  0.00     0.077 A 
ATOM     12  H13 CPB d          40.276  35.439  26.015  0.00  0.00     0.094 H 
ATOM     13  H15 CPB d          36.713  34.620  31.641  0.00  0.00     0.092 H 
ENDROOT
BRANCH   1  14
ATOM     14  C14 CPB d          39.427  38.506  31.222  0.00  0.00     0.005 C 
ATOM     15  C15 CPB d          38.356  39.593  31.405  0.00  0.00    -0.033 C 
ATOM     16  C16 CPB d          39.012  40.917  31.836  0.00  0.00     0.084 C 
ATOM     17  H7  CPB d          37.825  39.743  30.453  0.00  0.00     0.036 H 
ATOM     18  H8  CPB d          37.641  39.273  32.177  0.00  0.00     0.036 H 
ATOM     19  N1  CPB d          39.837  40.719  33.051  0.00  0.00    -0.072 N 
ATOM     20  H5  CPB d          39.651  41.285  31.021  0.00  0.00     0.076 H 
ATOM     21  H6  CPB d          38.227  41.658  32.049  0.00  0.00     0.076 H 
ATOM     22  C12 CPB d          40.937  39.756  32.811  0.00  0.00     0.107 C 
ATOM     23  H4  CPB d          39.251  40.369  33.793  0.00  0.00     0.279 HD
ATOM     24  C13 CPB d          40.340  38.387  32.467  0.00  0.00     0.066 C 
ATOM     25  H11 CPB d          41.556  39.671  33.716  0.00  0.00     0.080 H 
ATOM     26  H12 CPB d          41.557  40.108  31.973  0.00  0.00     0.080 H 
ATOM     27  H10 CPB d          41.150  37.674  32.252  0.00  0.00     0.086 H 
ATOM     28  H9  CPB d          40.077  38.843  30.401  0.00  0.00     0.051 H 
BRANCH  19  29
ATOM     29  C1  CPB d          40.414  42.015  33.446  0.00  0.00     0.066 C 
ATOM     30  H1  CPB d          40.891  41.918  34.432  0.00  0.00     0.068 H 
ATOM     31  H2  CPB d          39.616  42.771  33.497  0.00  0.00     0.068 H 
ATOM     32  H3  CPB d          41.165  42.324  32.705  0.00  0.00     0.068 H 
ENDBRANCH  19  29
BRANCH  24  33
ATOM     33  O3  CPB d          39.595  37.936  33.596  0.00  0.00    -0.393 OA
ATOM     34  H21 CPB d          38.675  37.882  33.366  0.00  0.00     0.210 HD
ENDBRANCH  24  33
ENDBRANCH   1  14
BRANCH  11  35
ATOM     35  O7  CPB d          37.511  36.784  32.763  0.00  0.00    -0.360 OA
ATOM     36  H16 CPB d          38.264  37.091  33.254  0.00  0.00     0.217 HD
ENDBRANCH  11  35
BRANCH   4  37
ATOM     37  C21 CPB d          41.399  37.708  26.764  0.00  0.00     0.020 A 
ATOM     38  C22 CPB d          41.141  38.984  26.230  0.00  0.00     0.047 A 
ATOM     39 CL1  CPB d          39.610  39.762  26.416  0.00  0.00    -0.083 Cl
ATOM     40  C23 CPB d          42.127  39.664  25.515  0.00  0.00    -0.061 A 
ATOM     41  C24 CPB d          43.379  39.081  25.333  0.00  0.00    -0.081 A 
ATOM     42  H17 CPB d          41.920  40.645  25.102  0.00  0.00     0.086 H 
ATOM     43  C25 CPB d          43.647  37.820  25.868  0.00  0.00    -0.082 A 
ATOM     44  H18 CPB d          44.146  39.607  24.777  0.00  0.00     0.083 H 
ATOM     45  C26 CPB d          42.668  37.140  26.581  0.00  0.00    -0.069 A 
ATOM     46  H19 CPB d          44.622  37.370  25.726  0.00  0.00     0.083 H 
ATOM     47  H20 CPB d          42.887  36.164  26.998  0.00  0.00     0.085 H 
ENDBRANCH   4  37
BRANCH   9  48
ATOM     48  O5  CPB d          37.233  33.558  29.339  0.00  0.00    -0.360 OA
ATOM     49  H14 CPB d          36.335  33.483  29.640  0.00  0.00     0.217 HD
ENDBRANCH   9  48
TORSDOF 6
ENDMDL
MODEL 9
REMARK VINA RESULT:      -7.1      2.851      5.544
REMARK  6 active torsions:
REMARK  status: ('A' for Active; 'I' for Inactive)
REMARK    1  A    between atoms: C1_1  and  N1_2 
REMARK    2  A    between atoms: C14_5  and  C8_8 
REMARK    3  A    between atoms: C13_6  and  O3_28 
REMARK    4  A    between atoms: C2_11  and  C21_21 
REMARK    5  A    between atoms: C5_16  and  O5_17 
REMARK    6  A    between atoms: C7_19  and  O7_20 
ROOT
ATOM      1  C8  CPB d          40.776  39.918  28.491  0.00  0.00     0.017 A 
ATOM      2  C9  CPB d          40.298  38.596  28.463  0.00  0.00     0.102 A 
ATOM      3  O1  CPB d          39.577  38.141  29.541  0.00  0.00    -0.308 OA
ATOM      4  C2  CPB d          39.061  36.871  29.522  0.00  0.00     0.091 A 
ATOM      5  C3  CPB d          39.293  36.033  28.433  0.00  0.00    -0.000 A 
ATOM      6  C4  CPB d          40.051  36.469  27.350  0.00  0.00     0.190 A 
ATOM      7  O4  CPB d          40.247  35.713  26.397  0.00  0.00    -0.287 OA
ATOM      8  C10 CPB d          40.557  37.771  27.359  0.00  0.00     0.082 A 
ATOM      9  C5  CPB d          41.272  38.275  26.267  0.00  0.00     0.085 A 
ATOM     10  C6  CPB d          41.747  39.578  26.293  0.00  0.00    -0.017 A 
ATOM     11  C7  CPB d          41.511  40.396  27.396  0.00  0.00     0.077 A 
ATOM     12  H13 CPB d          38.877  35.027  28.429  0.00  0.00     0.094 H 
ATOM     13  H15 CPB d          42.308  39.962  25.449  0.00  0.00     0.092 H 
ENDROOT
BRANCH   1  14
ATOM     14  C14 CPB d          40.464  40.766  29.762  0.00  0.00     0.005 C 
ATOM     15  C15 CPB d          39.004  40.602  30.213  0.00  0.00    -0.033 C 
ATOM     16  C16 CPB d          38.729  41.480  31.448  0.00  0.00     0.084 C 
ATOM     17  H7  CPB d          38.335  40.904  29.395  0.00  0.00     0.036 H 
ATOM     18  H8  CPB d          38.819  39.548  30.469  0.00  0.00     0.036 H 
ATOM     19  N1  CPB d          39.698  41.180  32.528  0.00  0.00    -0.072 N 
ATOM     20  H5  CPB d          38.819  42.539  31.164  0.00  0.00     0.076 H 
ATOM     21  H6  CPB d          37.710  41.284  31.812  0.00  0.00     0.076 H 
ATOM     22  C12 CPB d          41.089  41.462  32.105  0.00  0.00     0.107 C 
ATOM     23  H4  CPB d          39.622  40.205  32.777  0.00  0.00     0.279 HD
ATOM     24  C13 CPB d          41.454  40.546  30.932  0.00  0.00     0.066 C 
ATOM     25  H11 CPB d          41.775  41.275  32.945  0.00  0.00     0.080 H 
ATOM     26  H12 CPB d          41.172  42.513  31.790  0.00  0.00     0.080 H 
ATOM     27  H10 CPB d          42.474  40.773  30.588  0.00  0.00     0.086 H 
ATOM     28  H9  CPB d          40.581  41.817  29.460  0.00  0.00     0.051 H 
BRANCH  19  29
ATOM     29  C1  CPB d          39.375  42.015  33.697  0.00  0.00     0.066 C 
ATOM     30  H1  CPB d          40.303  42.284  34.223  0.00  0.00     0.068 H 
ATOM     31  H2  CPB d          38.717  41.453  34.378  0.00  0.00     0.068 H 
ATOM     32  H3  CPB d          38.863  42.930  33.365  0.00  0.00     0.068 H 
ENDBRANCH  19  29
BRANCH  24  33
ATOM     33  O3  CPB d          41.397  39.198  31.393  0.00  0.00    -0.393 OA
ATOM     34  H21 CPB d          40.507  38.873  31.311  0.00  0.00     0.210 HD
ENDBRANCH  24  33
ENDBRANCH   1  14
BRANCH  11  35
ATOM     35  O7  CPB d          42.007  41.660  27.348  0.00  0.00    -0.360 OA
ATOM     36  H16 CPB d          42.512  41.771  26.550  0.00  0.00     0.217 HD
ENDBRANCH  11  35
BRANCH   4  37
ATOM     37  C21 CPB d          38.273  36.417  30.590  0.00  0.00     0.020 A 
ATOM     38  C22 CPB d          37.521  35.230  30.538  0.00  0.00     0.047 A 
ATOM     39 CL1  CPB d          37.480  34.233  29.126  0.00  0.00    -0.083 Cl
ATOM     40  C23 CPB d          36.766  34.820  31.637  0.00  0.00    -0.061 A 
ATOM     41  C24 CPB d          36.762  35.588  32.800  0.00  0.00    -0.081 A 
ATOM     42  H17 CPB d          36.185  33.906  31.588  0.00  0.00     0.086 H 
ATOM     43  C25 CPB d          37.512  36.762  32.864  0.00  0.00    -0.082 A 
ATOM     44  H18 CPB d          36.175  35.273  33.654  0.00  0.00     0.083 H 
ATOM     45  C26 CPB d          38.265  37.173  31.771  0.00  0.00    -0.069 A 
ATOM     46  H19 CPB d          37.507  37.357  33.770  0.00  0.00     0.083 H 
ATOM     47  H20 CPB d          38.850  38.084  31.833  0.00  0.00     0.085 H 
ENDBRANCH   4  37
BRANCH   9  48
ATOM     48  O5  CPB d          41.527  37.512  25.166  0.00  0.00    -0.360 OA
ATOM     49  H14 CPB d          41.908  36.685  25.438  0.00  0.00     0.217 HD
ENDBRANCH   9  48
TORSDOF 6
ENDMDL
MODEL 10
REMARK VINA RESULT:      -7.0      1.559      1.958
REMARK  6 active torsions:
REMARK  status: ('A' for Active; 'I' for Inactive)
REMARK    1  A    between atoms: C1_1  and  N1_2 
REMARK    2  A    between atoms: C14_5  and  C8_8 
REMARK    3  A    between atoms: C13_6  and  O3_28 
REMARK    4  A    between atoms: C2_11  and  C21_21 
REMARK    5  A    between atoms: C5_16  and  O5_17 
REMARK    6  A    between atoms: C7_19  and  O7_20 
ROOT
ATOM      1  C8  CPB d          39.955  38.185  30.015  0.00  0.00     0.017 A 
ATOM      2  C9  CPB d          39.154  37.034  29.932  0.00  0.00     0.102 A 
ATOM      3  O1  CPB d          39.184  36.301  28.769  0.00  0.00    -0.308 OA
ATOM      4  C2  CPB d          38.446  35.149  28.677  0.00  0.00     0.091 A 
ATOM      5  C3  CPB d          37.644  34.738  29.740  0.00  0.00    -0.000 A 
ATOM      6  C4  CPB d          37.578  35.489  30.910  0.00  0.00     0.190 A 
ATOM      7  O4  CPB d          36.862  35.111  31.839  0.00  0.00    -0.287 OA
ATOM      8  C10 CPB d          38.347  36.651  31.013  0.00  0.00     0.082 A 
ATOM      9  C5  CPB d          38.361  37.404  32.193  0.00  0.00     0.085 A 
ATOM     10  C6  CPB d          39.148  38.543  32.276  0.00  0.00    -0.017 A 
ATOM     11  C7  CPB d          39.937  38.940  31.197  0.00  0.00     0.077 A 
ATOM     12  H13 CPB d          37.064  33.821  29.655  0.00  0.00     0.094 H 
ATOM     13  H15 CPB d          39.150  39.130  33.187  0.00  0.00     0.092 H 
ENDROOT
BRANCH   1  14
ATOM     14  C14 CPB d          40.809  38.556  28.764  0.00  0.00     0.005 C 
ATOM     15  C15 CPB d          41.792  39.698  29.063  0.00  0.00    -0.033 C 
ATOM     16  C16 CPB d          42.590  40.056  27.796  0.00  0.00     0.084 C 
ATOM     17  H7  CPB d          41.231  40.582  29.401  0.00  0.00     0.036 H 
ATOM     18  H8  CPB d          42.488  39.381  29.853  0.00  0.00     0.036 H 
ATOM     19  N1  CPB d          43.260  38.855  27.245  0.00  0.00    -0.072 N 
ATOM     20  H5  CPB d          41.903  40.465  27.040  0.00  0.00     0.076 H 
ATOM     21  H6  CPB d          43.350  40.811  28.047  0.00  0.00     0.076 H 
ATOM     22  C12 CPB d          42.280  37.816  26.853  0.00  0.00     0.107 C 
ATOM     23  H4  CPB d          43.880  38.475  27.944  0.00  0.00     0.279 HD
ATOM     24  C13 CPB d          41.516  37.351  28.097  0.00  0.00     0.066 C 
ATOM     25  H11 CPB d          42.808  36.962  26.404  0.00  0.00     0.080 H 
ATOM     26  H12 CPB d          41.573  38.235  26.122  0.00  0.00     0.080 H 
ATOM     27  H10 CPB d          40.761  36.605  27.809  0.00  0.00     0.086 H 
ATOM     28  H9  CPB d          40.099  38.942  28.017  0.00  0.00     0.051 H 
BRANCH  19  29
ATOM     29  C1  CPB d          44.038  39.251  26.059  0.00  0.00     0.066 C 
ATOM     30  H1  CPB d          43.439  39.933  25.438  0.00  0.00     0.068 H 
ATOM     31  H2  CPB d          44.298  38.355  25.475  0.00  0.00     0.068 H 
ATOM     32  H3  CPB d          44.960  39.760  26.378  0.00  0.00     0.068 H 
ENDBRANCH  19  29
BRANCH  24  33
ATOM     33  O3  CPB d          42.454  36.758  28.993  0.00  0.00    -0.393 OA
ATOM     34  H21 CPB d          41.997  36.441  29.763  0.00  0.00     0.210 HD
ENDBRANCH  24  33
ENDBRANCH   1  14
BRANCH  11  35
ATOM     35  O7  CPB d          40.682  40.066  31.355  0.00  0.00    -0.360 OA
ATOM     36  H16 CPB d          41.578  39.825  31.560  0.00  0.00     0.217 HD
ENDBRANCH  11  35
BRANCH   4  37
ATOM     37  C21 CPB d          38.516  34.362  27.517  0.00  0.00     0.020 A 
ATOM     38  C22 CPB d          38.123  33.012  27.482  0.00  0.00     0.047 A 
ATOM     39 CL1  CPB d          37.541  32.191  28.887  0.00  0.00    -0.083 Cl
ATOM     40  C23 CPB d          38.200  32.282  26.296  0.00  0.00    -0.061 A 
ATOM     41  C24 CPB d          38.665  32.896  25.134  0.00  0.00    -0.081 A 
ATOM     42  H17 CPB d          37.900  31.241  26.277  0.00  0.00     0.086 H 
ATOM     43  C25 CPB d          39.048  34.237  25.157  0.00  0.00    -0.082 A 
ATOM     44  H18 CPB d          38.728  32.331  24.211  0.00  0.00     0.083 H 
ATOM     45  C26 CPB d          38.971  34.967  26.336  0.00  0.00    -0.069 A 
ATOM     46  H19 CPB d          39.407  34.711  24.251  0.00  0.00     0.083 H 
ATOM     47  H20 CPB d          39.265  36.010  26.343  0.00  0.00     0.085 H 
ENDBRANCH   4  37
BRANCH   9  48
ATOM     48  O5  CPB d          37.606  37.055  33.273  0.00  0.00    -0.360 OA
ATOM     49  H14 CPB d          36.944  37.719  33.423  0.00  0.00     0.217 HD
ENDBRANCH   9  48
TORSDOF 6
ENDMDL
