MODEL 1
REMARK VINA RESULT:      -7.7      0.000      0.000
REMARK  6 active torsions:
REMARK  status: ('A' for Active; 'I' for Inactive)
REMARK    1  A    between atoms: CAX_6  and  CAW_7 
REMARK       I    between atoms: CAW_7  and  NAR_9 
REMARK    2  A    between atoms: CAO_16  and  CAN_18 
REMARK    3  A    between atoms: CAN_18  and  CAL_19 
REMARK    4  A    between atoms: CAL_19  and  NAM_20 
REMARK    5  A    between atoms: CAL_19  and  CAK_21 
REMARK    6  A    between atoms: CAK_21  and  CAG_22 
ROOT
ATOM      1  CAW KR2 d          -3.609   4.498  -8.522  0.00  0.00     0.250 C 
ATOM      2  OAA KR2 d          -4.872   3.834  -8.644  0.00  0.00    -0.199 OA
ATOM      3  NAR KR2 d          -2.635   3.681  -7.779  0.00  0.00    -0.181 NA
ATOM      4  CAV KR2 d          -1.578   3.227  -8.698  0.00  0.00     0.001 C 
ATOM      5  CDD KR2 d          -1.215   1.746  -8.573  0.00  0.00    -0.052 C 
ATOM      6  CNN KR2 d          -2.288   0.812  -9.137  0.00  0.00    -0.062 C 
ATOM      7  CAT KR2 d          -3.399   0.494  -8.131  0.00  0.00    -0.049 C 
ATOM      8  CAS KR2 d          -4.207   1.726  -7.710  0.00  0.00     0.013 C 
ATOM      9  NAQ KR2 d          -3.317   2.725  -7.092  0.00  0.00    -0.288 N 
ATOM     10  CAO KR2 d          -2.911   2.577  -5.836  0.00  0.00     0.170 C 
ATOM     11  OAP KR2 d          -1.782   3.147  -5.343  0.00  0.00    -0.176 OA
ATOM     12  H6  KR2 d          -0.673   3.820  -8.500  0.00  0.00     0.058 H 
ATOM     13  H7  KR2 d          -1.918   3.411  -9.728  0.00  0.00     0.058 H 
ATOM     14  H8  KR2 d          -1.071   1.511  -7.507  0.00  0.00     0.034 H 
ATOM     15  H9  KR2 d          -0.276   1.570  -9.117  0.00  0.00     0.034 H 
ATOM     16  H10 KR2 d          -1.807  -0.131  -9.438  0.00  0.00     0.033 H 
ATOM     17  H11 KR2 d          -2.740   1.291 -10.019  0.00  0.00     0.033 H 
ATOM     18  H12 KR2 d          -2.941   0.053  -7.234  0.00  0.00     0.035 H 
ATOM     19  H13 KR2 d          -4.086  -0.234  -8.588  0.00  0.00     0.035 H 
ATOM     20  H14 KR2 d          -4.978   1.426  -6.984  0.00  0.00     0.066 H 
ATOM     21  H15 KR2 d          -4.689   2.166  -8.595  0.00  0.00     0.066 H 
ENDROOT
BRANCH  10  22
ATOM     22  CAN KR2 d          -3.690   1.650  -4.907  0.00  0.00     0.025 C 
ATOM     23  H16 KR2 d          -3.197   0.667  -4.878  0.00  0.00     0.048 H 
ATOM     24  H17 KR2 d          -4.716   1.535  -5.286  0.00  0.00     0.048 H 
BRANCH  22  25
ATOM     25  CAL KR2 d          -3.736   2.232  -3.494  0.00  0.00     0.111 C 
ATOM     26  H18 KR2 d          -2.796   1.994  -2.974  0.00  0.00     0.085 H 
BRANCH  25  27
ATOM     27  NAM KR2 d          -4.904   1.627  -2.840  0.00  0.00    -0.074 N 
ATOM     28  H19 KR2 d          -5.202   0.820  -3.364  0.00  0.00     0.274 HD
ATOM     29  H20 KR2 d          -5.654   2.299  -2.803  0.00  0.00     0.274 HD
ATOM     30  H21 KR2 d          -4.657   1.348  -1.903  0.00  0.00     0.274 HD
ENDBRANCH  25  27
BRANCH  25  31
ATOM     31  CAK KR2 d          -4.042   3.724  -3.368  0.00  0.00    -0.011 C 
ATOM     32  H22 KR2 d          -5.074   3.862  -3.723  0.00  0.00     0.043 H 
ATOM     33  H23 KR2 d          -3.348   4.243  -4.046  0.00  0.00     0.043 H 
BRANCH  31  34
ATOM     34  CAG KR2 d          -3.956   4.374  -2.141  0.00  0.00    -0.015 A 
ATOM     35  CAH KR2 d          -3.047   3.950  -1.184  0.00  0.00    -0.034 A 
ATOM     36  CAC KR2 d          -3.087   4.421   0.127  0.00  0.00     0.155 A 
ATOM     37  H24 KR2 d          -2.284   3.233  -1.462  0.00  0.00     0.089 H 
ATOM     38  FAB KR2 d          -2.081   4.097   0.959  0.00  0.00    -0.203 F 
ATOM     39  CAD KR2 d          -4.085   5.321   0.489  0.00  0.00     0.157 A 
ATOM     40  FAI KR2 d          -4.410   5.532   1.780  0.00  0.00    -0.203 F 
ATOM     41  CAE KR2 d          -4.940   5.812  -0.487  0.00  0.00    -0.005 A 
ATOM     42  CAF KR2 d          -4.878   5.360  -1.801  0.00  0.00     0.125 A 
ATOM     43  H25 KR2 d          -5.674   6.564  -0.220  0.00  0.00     0.093 H 
ATOM     44  FAJ KR2 d          -5.783   5.833  -2.674  0.00  0.00    -0.205 F 
ENDBRANCH  31  34
ENDBRANCH  25  31
ENDBRANCH  22  25
ENDBRANCH  10  22
BRANCH   1  45
ATOM     45  CAX KR2 d          -3.790   5.730  -7.628  0.00  0.00     0.001 A 
ATOM     46  CAY KR2 d          -2.984   6.849  -7.818  0.00  0.00    -0.072 A 
ATOM     47  CBC KR2 d          -2.959   7.863  -6.863  0.00  0.00    -0.082 A 
ATOM     48  H1  KR2 d          -2.375   6.932  -8.711  0.00  0.00     0.084 H 
ATOM     49  CBB KR2 d          -3.744   7.758  -5.716  0.00  0.00    -0.083 A 
ATOM     50  H2  KR2 d          -2.330   8.732  -7.012  0.00  0.00     0.083 H 
ATOM     51  CBA KR2 d          -4.560   6.644  -5.532  0.00  0.00    -0.082 A 
ATOM     52  H3  KR2 d          -3.719   8.542  -4.969  0.00  0.00     0.083 H 
ATOM     53  CAZ KR2 d          -4.587   5.634  -6.490  0.00  0.00    -0.072 A 
ATOM     54  H4  KR2 d          -5.175   6.564  -4.643  0.00  0.00     0.083 H 
ATOM     55  H5  KR2 d          -5.230   4.772  -6.349  0.00  0.00     0.084 H 
ENDBRANCH   1  45
TORSDOF 6
ENDMDL
MODEL 2
REMARK VINA RESULT:      -7.3      1.663      4.261
REMARK  6 active torsions:
REMARK  status: ('A' for Active; 'I' for Inactive)
REMARK    1  A    between atoms: CAX_6  and  CAW_7 
REMARK       I    between atoms: CAW_7  and  NAR_9 
REMARK    2  A    between atoms: CAO_16  and  CAN_18 
REMARK    3  A    between atoms: CAN_18  and  CAL_19 
REMARK    4  A    between atoms: CAL_19  and  NAM_20 
REMARK    5  A    between atoms: CAL_19  and  CAK_21 
REMARK    6  A    between atoms: CAK_21  and  CAG_22 
ROOT
ATOM      1  CAW KR2 d          -1.978   3.987  -8.527  0.00  0.00     0.250 C 
ATOM      2  OAA KR2 d          -1.133   4.717  -7.630  0.00  0.00    -0.199 OA
ATOM      3  NAR KR2 d          -3.286   4.641  -8.698  0.00  0.00    -0.181 NA
ATOM      4  CAV KR2 d          -3.388   5.176 -10.066  0.00  0.00     0.001 C 
ATOM      5  CDD KR2 d          -3.928   6.605 -10.153  0.00  0.00    -0.052 C 
ATOM      6  CNN KR2 d          -2.927   7.659  -9.676  0.00  0.00    -0.062 C 
ATOM      7  CAT KR2 d          -2.958   7.877  -8.159  0.00  0.00    -0.049 C 
ATOM      8  CAS KR2 d          -2.552   6.633  -7.360  0.00  0.00     0.013 C 
ATOM      9  NAQ KR2 d          -3.461   5.516  -7.670  0.00  0.00    -0.288 N 
ATOM     10  CAO KR2 d          -4.669   5.460  -7.121  0.00  0.00     0.170 C 
ATOM     11  OAP KR2 d          -5.706   4.773  -7.664  0.00  0.00    -0.176 OA
ATOM     12  H6  KR2 d          -4.057   4.521 -10.642  0.00  0.00     0.058 H 
ATOM     13  H7  KR2 d          -2.385   5.161 -10.515  0.00  0.00     0.058 H 
ATOM     14  H8  KR2 d          -4.833   6.676  -9.531  0.00  0.00     0.034 H 
ATOM     15  H9  KR2 d          -4.186   6.817 -11.201  0.00  0.00     0.034 H 
ATOM     16  H10 KR2 d          -3.161   8.614 -10.171  0.00  0.00     0.033 H 
ATOM     17  H11 KR2 d          -1.915   7.335  -9.962  0.00  0.00     0.033 H 
ATOM     18  H12 KR2 d          -3.980   8.160  -7.868  0.00  0.00     0.035 H 
ATOM     19  H13 KR2 d          -2.265   8.693  -7.909  0.00  0.00     0.035 H 
ATOM     20  H14 KR2 d          -2.605   6.858  -6.284  0.00  0.00     0.066 H 
ATOM     21  H15 KR2 d          -1.522   6.350  -7.625  0.00  0.00     0.066 H 
ENDROOT
BRANCH  10  22
ATOM     22  CAN KR2 d          -4.951   6.275  -5.862  0.00  0.00     0.025 C 
ATOM     23  H16 KR2 d          -5.992   6.629  -5.885  0.00  0.00     0.048 H 
ATOM     24  H17 KR2 d          -4.270   7.139  -5.828  0.00  0.00     0.048 H 
BRANCH  22  25
ATOM     25  CAL KR2 d          -4.739   5.416  -4.615  0.00  0.00     0.111 C 
ATOM     26  H18 KR2 d          -4.333   4.438  -4.914  0.00  0.00     0.085 H 
BRANCH  25  27
ATOM     27  NAM KR2 d          -6.053   5.300  -3.968  0.00  0.00    -0.074 N 
ATOM     28  H19 KR2 d          -5.970   5.542  -2.993  0.00  0.00     0.274 HD
ATOM     29  H20 KR2 d          -6.387   4.353  -4.052  0.00  0.00     0.274 HD
ATOM     30  H21 KR2 d          -6.704   5.927  -4.415  0.00  0.00     0.274 HD
ENDBRANCH  25  27
BRANCH  25  31
ATOM     31  CAK KR2 d          -3.889   6.016  -3.496  0.00  0.00    -0.011 C 
ATOM     32  H22 KR2 d          -4.271   7.034  -3.325  0.00  0.00     0.043 H 
ATOM     33  H23 KR2 d          -2.860   6.070  -3.881  0.00  0.00     0.043 H 
BRANCH  31  34
ATOM     34  CAG KR2 d          -3.813   5.408  -2.247  0.00  0.00    -0.015 A 
ATOM     35  CAH KR2 d          -4.222   6.087  -1.109  0.00  0.00    -0.034 A 
ATOM     36  CAC KR2 d          -3.952   5.606   0.170  0.00  0.00     0.155 A 
ATOM     37  H24 KR2 d          -4.768   7.017  -1.218  0.00  0.00     0.089 H 
ATOM     38  FAB KR2 d          -4.516   6.225   1.223  0.00  0.00    -0.203 F 
ATOM     39  CAD KR2 d          -3.227   4.426   0.307  0.00  0.00     0.157 A 
ATOM     40  FAI KR2 d          -2.623   4.100   1.467  0.00  0.00    -0.203 F 
ATOM     41  CAE KR2 d          -2.893   3.702  -0.828  0.00  0.00    -0.005 A 
ATOM     42  CAF KR2 d          -3.191   4.171  -2.103  0.00  0.00     0.125 A 
ATOM     43  H25 KR2 d          -2.389   2.748  -0.720  0.00  0.00     0.093 H 
ATOM     44  FAJ KR2 d          -2.776   3.446  -3.155  0.00  0.00    -0.205 F 
ENDBRANCH  31  34
ENDBRANCH  25  31
ENDBRANCH  22  25
ENDBRANCH  10  22
BRANCH   1  45
ATOM     45  CAX KR2 d          -2.337   2.646  -7.876  0.00  0.00     0.001 A 
ATOM     46  CAY KR2 d          -2.791   1.592  -8.664  0.00  0.00    -0.072 A 
ATOM     47  CBC KR2 d          -3.359   0.469  -8.068  0.00  0.00    -0.082 A 
ATOM     48  H1  KR2 d          -2.702   1.645  -9.743  0.00  0.00     0.084 H 
ATOM     49  CBB KR2 d          -3.471   0.398  -6.680  0.00  0.00    -0.083 A 
ATOM     50  H2  KR2 d          -3.713  -0.350  -8.682  0.00  0.00     0.083 H 
ATOM     51  CBA KR2 d          -3.005   1.447  -5.892  0.00  0.00    -0.082 A 
ATOM     52  H3  KR2 d          -3.921  -0.472  -6.216  0.00  0.00     0.083 H 
ATOM     53  CAZ KR2 d          -2.433   2.568  -6.488  0.00  0.00    -0.072 A 
ATOM     54  H4  KR2 d          -3.088   1.392  -4.812  0.00  0.00     0.083 H 
ATOM     55  H5  KR2 d          -2.063   3.380  -5.872  0.00  0.00     0.084 H 
ENDBRANCH   1  45
TORSDOF 6
ENDMDL
MODEL 3
REMARK VINA RESULT:      -7.0      3.527      6.289
REMARK  6 active torsions:
REMARK  status: ('A' for Active; 'I' for Inactive)
REMARK    1  A    between atoms: CAX_6  and  CAW_7 
REMARK       I    between atoms: CAW_7  and  NAR_9 
REMARK    2  A    between atoms: CAO_16  and  CAN_18 
REMARK    3  A    between atoms: CAN_18  and  CAL_19 
REMARK    4  A    between atoms: CAL_19  and  NAM_20 
REMARK    5  A    between atoms: CAL_19  and  CAK_21 
REMARK    6  A    between atoms: CAK_21  and  CAG_22 
ROOT
ATOM      1  CAW KR2 d          -2.257   5.684  -4.963  0.00  0.00     0.250 C 
ATOM      2  OAA KR2 d          -1.906   4.344  -5.328  0.00  0.00    -0.199 OA
ATOM      3  NAR KR2 d          -3.500   5.724  -4.174  0.00  0.00    -0.181 NA
ATOM      4  CAV KR2 d          -3.184   6.119  -2.791  0.00  0.00     0.001 C 
ATOM      5  CDD KR2 d          -3.862   5.268  -1.714  0.00  0.00    -0.052 C 
ATOM      6  CNN KR2 d          -3.263   3.865  -1.589  0.00  0.00    -0.062 C 
ATOM      7  CAT KR2 d          -3.865   2.862  -2.580  0.00  0.00    -0.049 C 
ATOM      8  CAS KR2 d          -3.593   3.220  -4.045  0.00  0.00     0.013 C 
ATOM      9  NAQ KR2 d          -4.156   4.546  -4.353  0.00  0.00    -0.288 N 
ATOM     10  CAO KR2 d          -5.458   4.688  -4.572  0.00  0.00     0.170 C 
ATOM     11  OAP KR2 d          -6.121   5.862  -4.408  0.00  0.00    -0.176 OA
ATOM     12  H6  KR2 d          -3.500   7.163  -2.651  0.00  0.00     0.058 H 
ATOM     13  H7  KR2 d          -2.096   6.043  -2.652  0.00  0.00     0.058 H 
ATOM     14  H8  KR2 d          -4.929   5.171  -1.965  0.00  0.00     0.034 H 
ATOM     15  H9  KR2 d          -3.758   5.780  -0.747  0.00  0.00     0.034 H 
ATOM     16  H10 KR2 d          -3.443   3.498  -0.567  0.00  0.00     0.033 H 
ATOM     17  H11 KR2 d          -2.180   3.929  -1.771  0.00  0.00     0.033 H 
ATOM     18  H12 KR2 d          -4.954   2.829  -2.425  0.00  0.00     0.035 H 
ATOM     19  H13 KR2 d          -3.436   1.870  -2.377  0.00  0.00     0.035 H 
ATOM     20  H14 KR2 d          -4.059   2.466  -4.697  0.00  0.00     0.066 H 
ATOM     21  H15 KR2 d          -2.507   3.235  -4.220  0.00  0.00     0.066 H 
ENDROOT
BRANCH  10  22
ATOM     22  CAN KR2 d          -6.288   3.462  -4.943  0.00  0.00     0.025 C 
ATOM     23  H16 KR2 d          -7.198   3.440  -4.326  0.00  0.00     0.048 H 
ATOM     24  H17 KR2 d          -5.696   2.553  -4.757  0.00  0.00     0.048 H 
BRANCH  22  25
ATOM     25  CAL KR2 d          -6.682   3.515  -6.419  0.00  0.00     0.111 C 
ATOM     26  H18 KR2 d          -7.745   3.788  -6.501  0.00  0.00     0.085 H 
BRANCH  25  27
ATOM     27  NAM KR2 d          -6.406   2.179  -6.965  0.00  0.00    -0.074 N 
ATOM     28  H19 KR2 d          -6.808   2.103  -7.886  0.00  0.00     0.274 HD
ATOM     29  H20 KR2 d          -6.812   1.479  -6.363  0.00  0.00     0.274 HD
ATOM     30  H21 KR2 d          -5.409   2.037  -7.020  0.00  0.00     0.274 HD
ENDBRANCH  25  27
BRANCH  25  31
ATOM     31  CAK KR2 d          -5.840   4.406  -7.330  0.00  0.00    -0.011 C 
ATOM     32  H22 KR2 d          -5.274   5.081  -6.671  0.00  0.00     0.043 H 
ATOM     33  H23 KR2 d          -6.548   4.992  -7.935  0.00  0.00     0.043 H 
BRANCH  31  34
ATOM     34  CAG KR2 d          -4.919   3.859  -8.219  0.00  0.00    -0.015 A 
ATOM     35  CAH KR2 d          -3.915   3.020  -7.763  0.00  0.00    -0.034 A 
ATOM     36  CAC KR2 d          -2.848   2.641  -8.575  0.00  0.00     0.155 A 
ATOM     37  H24 KR2 d          -3.959   2.649  -6.745  0.00  0.00     0.089 H 
ATOM     38  FAB KR2 d          -2.000   1.699  -8.125  0.00  0.00    -0.203 F 
ATOM     39  CAD KR2 d          -2.778   3.140  -9.872  0.00  0.00     0.157 A 
ATOM     40  FAI KR2 d          -1.628   3.121 -10.574  0.00  0.00    -0.203 F 
ATOM     41  CAE KR2 d          -3.827   3.908 -10.358  0.00  0.00    -0.005 A 
ATOM     42  CAF KR2 d          -4.904   4.261  -9.552  0.00  0.00     0.125 A 
ATOM     43  H25 KR2 d          -3.806   4.242 -11.390  0.00  0.00     0.093 H 
ATOM     44  FAJ KR2 d          -5.847   5.063 -10.075  0.00  0.00    -0.205 F 
ENDBRANCH  31  34
ENDBRANCH  25  31
ENDBRANCH  22  25
ENDBRANCH  10  22
BRANCH   1  45
ATOM     45  CAX KR2 d          -2.624   6.455  -6.237  0.00  0.00     0.001 A 
ATOM     46  CAY KR2 d          -2.119   6.042  -7.467  0.00  0.00    -0.072 A 
ATOM     47  CBC KR2 d          -2.230   6.870  -8.581  0.00  0.00    -0.082 A 
ATOM     48  H1  KR2 d          -1.639   5.074  -7.558  0.00  0.00     0.084 H 
ATOM     49  CBB KR2 d          -2.849   8.113  -8.466  0.00  0.00    -0.083 A 
ATOM     50  H2  KR2 d          -1.835   6.548  -9.537  0.00  0.00     0.083 H 
ATOM     51  CBA KR2 d          -3.366   8.520  -7.238  0.00  0.00    -0.082 A 
ATOM     52  H3  KR2 d          -2.929   8.762  -9.330  0.00  0.00     0.083 H 
ATOM     53  CAZ KR2 d          -3.258   7.690  -6.126  0.00  0.00    -0.072 A 
ATOM     54  H4  KR2 d          -3.852   9.485  -7.148  0.00  0.00     0.083 H 
ATOM     55  H5  KR2 d          -3.668   8.005  -5.173  0.00  0.00     0.084 H 
ENDBRANCH   1  45
TORSDOF 6
ENDMDL
MODEL 4
REMARK VINA RESULT:      -6.6      3.258      7.019
REMARK  6 active torsions:
REMARK  status: ('A' for Active; 'I' for Inactive)
REMARK    1  A    between atoms: CAX_6  and  CAW_7 
REMARK       I    between atoms: CAW_7  and  NAR_9 
REMARK    2  A    between atoms: CAO_16  and  CAN_18 
REMARK    3  A    between atoms: CAN_18  and  CAL_19 
REMARK    4  A    between atoms: CAL_19  and  NAM_20 
REMARK    5  A    between atoms: CAL_19  and  CAK_21 
REMARK    6  A    between atoms: CAK_21  and  CAG_22 
ROOT
ATOM      1  CAW KR2 d          -4.781   2.277  -4.349  0.00  0.00     0.250 C 
ATOM      2  OAA KR2 d          -5.992   3.013  -4.556  0.00  0.00    -0.199 OA
ATOM      3  NAR KR2 d          -3.666   3.161  -3.967  0.00  0.00    -0.181 NA
ATOM      4  CAV KR2 d          -3.301   2.903  -2.564  0.00  0.00     0.001 C 
ATOM      5  CDD KR2 d          -3.102   4.161  -1.715  0.00  0.00    -0.052 C 
ATOM      6  CNN KR2 d          -4.413   4.875  -1.379  0.00  0.00    -0.062 C 
ATOM      7  CAT KR2 d          -4.871   5.842  -2.476  0.00  0.00    -0.049 C 
ATOM      8  CAS KR2 d          -5.192   5.146  -3.803  0.00  0.00     0.013 C 
ATOM      9  NAQ KR2 d          -4.001   4.437  -4.301  0.00  0.00    -0.288 N 
ATOM     10  CAO KR2 d          -3.023   5.105  -4.902  0.00  0.00     0.170 C 
ATOM     11  OAP KR2 d          -1.744   4.655  -4.975  0.00  0.00    -0.176 OA
ATOM     12  H6  KR2 d          -2.362   2.331  -2.553  0.00  0.00     0.058 H 
ATOM     13  H7  KR2 d          -4.100   2.304  -2.105  0.00  0.00     0.058 H 
ATOM     14  H8  KR2 d          -2.456   4.859  -2.270  0.00  0.00     0.034 H 
ATOM     15  H9  KR2 d          -2.609   3.874  -0.775  0.00  0.00     0.034 H 
ATOM     16  H10 KR2 d          -4.273   5.444  -0.447  0.00  0.00     0.033 H 
ATOM     17  H11 KR2 d          -5.197   4.117  -1.231  0.00  0.00     0.033 H 
ATOM     18  H12 KR2 d          -4.070   6.575  -2.651  0.00  0.00     0.035 H 
ATOM     19  H13 KR2 d          -5.775   6.363  -2.128  0.00  0.00     0.035 H 
ATOM     20  H14 KR2 d          -5.504   5.898  -4.543  0.00  0.00     0.066 H 
ATOM     21  H15 KR2 d          -6.008   4.424  -3.647  0.00  0.00     0.066 H 
ENDROOT
BRANCH  10  22
ATOM     22  CAN KR2 d          -3.310   6.492  -5.469  0.00  0.00     0.025 C 
ATOM     23  H16 KR2 d          -2.855   7.252  -4.818  0.00  0.00     0.048 H 
ATOM     24  H17 KR2 d          -4.399   6.649  -5.510  0.00  0.00     0.048 H 
BRANCH  22  25
ATOM     25  CAL KR2 d          -2.729   6.621  -6.877  0.00  0.00     0.111 C 
ATOM     26  H18 KR2 d          -2.209   5.688  -7.141  0.00  0.00     0.085 H 
BRANCH  25  27
ATOM     27  NAM KR2 d          -1.820   7.775  -6.841  0.00  0.00    -0.074 N 
ATOM     28  H19 KR2 d          -1.661   8.107  -7.780  0.00  0.00     0.274 HD
ATOM     29  H20 KR2 d          -0.942   7.499  -6.430  0.00  0.00     0.274 HD
ATOM     30  H21 KR2 d          -2.233   8.511  -6.289  0.00  0.00     0.274 HD
ENDBRANCH  25  27
BRANCH  25  31
ATOM     31  CAK KR2 d          -3.695   7.016  -7.993  0.00  0.00    -0.011 C 
ATOM     32  H22 KR2 d          -3.084   7.460  -8.793  0.00  0.00     0.043 H 
ATOM     33  H23 KR2 d          -4.361   7.784  -7.571  0.00  0.00     0.043 H 
BRANCH  31  34
ATOM     34  CAG KR2 d          -4.516   6.072  -8.601  0.00  0.00    -0.015 A 
ATOM     35  CAH KR2 d          -5.230   5.164  -7.834  0.00  0.00    -0.034 A 
ATOM     36  CAC KR2 d          -5.875   4.068  -8.404  0.00  0.00     0.155 A 
ATOM     37  H24 KR2 d          -5.288   5.310  -6.762  0.00  0.00     0.089 H 
ATOM     38  FAB KR2 d          -6.682   3.322  -7.629  0.00  0.00    -0.203 F 
ATOM     39  CAD KR2 d          -5.776   3.867  -9.777  0.00  0.00     0.157 A 
ATOM     40  FAI KR2 d          -6.048   2.671 -10.336  0.00  0.00    -0.203 F 
ATOM     41  CAE KR2 d          -5.136   4.821 -10.556  0.00  0.00    -0.005 A 
ATOM     42  CAF KR2 d          -4.518   5.929  -9.986  0.00  0.00     0.125 A 
ATOM     43  H25 KR2 d          -5.117   4.700 -11.633  0.00  0.00     0.093 H 
ATOM     44  FAJ KR2 d          -3.862   6.773 -10.799  0.00  0.00    -0.205 F 
ENDBRANCH  31  34
ENDBRANCH  25  31
ENDBRANCH  22  25
ENDBRANCH  10  22
BRANCH   1  45
ATOM     45  CAX KR2 d          -4.326   1.699  -5.694  0.00  0.00     0.001 A 
ATOM     46  CAY KR2 d          -3.188   2.206  -6.318  0.00  0.00    -0.072 A 
ATOM     47  CBC KR2 d          -2.912   1.876  -7.642  0.00  0.00    -0.082 A 
ATOM     48  H1  KR2 d          -2.517   2.858  -5.771  0.00  0.00     0.084 H 
ATOM     49  CBB KR2 d          -3.774   1.036  -8.345  0.00  0.00    -0.083 A 
ATOM     50  H2  KR2 d          -2.028   2.273  -8.126  0.00  0.00     0.083 H 
ATOM     51  CBA KR2 d          -4.905   0.519  -7.717  0.00  0.00    -0.082 A 
ATOM     52  H3  KR2 d          -3.564   0.786  -9.378  0.00  0.00     0.083 H 
ATOM     53  CAZ KR2 d          -5.178   0.846  -6.391  0.00  0.00    -0.072 A 
ATOM     54  H4  KR2 d          -5.573  -0.139  -8.261  0.00  0.00     0.083 H 
ATOM     55  H5  KR2 d          -6.054   0.435  -5.902  0.00  0.00     0.084 H 
ENDBRANCH   1  45
TORSDOF 6
ENDMDL
MODEL 5
REMARK VINA RESULT:      -6.6      1.606      3.792
REMARK  6 active torsions:
REMARK  status: ('A' for Active; 'I' for Inactive)
REMARK    1  A    between atoms: CAX_6  and  CAW_7 
REMARK       I    between atoms: CAW_7  and  NAR_9 
REMARK    2  A    between atoms: CAO_16  and  CAN_18 
REMARK    3  A    between atoms: CAN_18  and  CAL_19 
REMARK    4  A    between atoms: CAL_19  and  NAM_20 
REMARK    5  A    between atoms: CAL_19  and  CAK_21 
REMARK    6  A    between atoms: CAK_21  and  CAG_22 
ROOT
ATOM      1  CAW KR2 d          -3.169   4.347  -9.187  0.00  0.00     0.250 C 
ATOM      2  OAA KR2 d          -1.780   4.136  -8.906  0.00  0.00    -0.199 OA
ATOM      3  NAR KR2 d          -3.982   4.323  -7.959  0.00  0.00    -0.181 NA
ATOM      4  CAV KR2 d          -4.496   5.676  -7.689  0.00  0.00     0.001 C 
ATOM      5  CDD KR2 d          -4.354   6.135  -6.236  0.00  0.00    -0.052 C 
ATOM      6  CNN KR2 d          -2.911   6.463  -5.846  0.00  0.00    -0.062 C 
ATOM      7  CAT KR2 d          -2.112   5.233  -5.402  0.00  0.00    -0.049 C 
ATOM      8  CAS KR2 d          -1.936   4.191  -6.512  0.00  0.00     0.013 C 
ATOM      9  NAQ KR2 d          -3.254   3.725  -6.978  0.00  0.00    -0.288 N 
ATOM     10  CAO KR2 d          -3.941   2.836  -6.269  0.00  0.00     0.170 C 
ATOM     11  OAP KR2 d          -5.289   2.696  -6.350  0.00  0.00    -0.176 OA
ATOM     12  H6  KR2 d          -5.563   5.697  -7.952  0.00  0.00     0.058 H 
ATOM     13  H7  KR2 d          -3.948   6.384  -8.327  0.00  0.00     0.058 H 
ATOM     14  H8  KR2 d          -4.719   5.332  -5.579  0.00  0.00     0.034 H 
ATOM     15  H9  KR2 d          -4.968   7.035  -6.093  0.00  0.00     0.034 H 
ATOM     16  H10 KR2 d          -2.928   7.187  -5.017  0.00  0.00     0.033 H 
ATOM     17  H11 KR2 d          -2.407   6.913  -6.715  0.00  0.00     0.033 H 
ATOM     18  H12 KR2 d          -2.638   4.761  -4.560  0.00  0.00     0.035 H 
ATOM     19  H13 KR2 d          -1.115   5.564  -5.073  0.00  0.00     0.035 H 
ATOM     20  H14 KR2 d          -1.363   3.336  -6.123  0.00  0.00     0.066 H 
ATOM     21  H15 KR2 d          -1.391   4.644  -7.354  0.00  0.00     0.066 H 
ENDROOT
BRANCH  10  22
ATOM     22  CAN KR2 d          -3.209   1.979  -5.240  0.00  0.00     0.025 C 
ATOM     23  H16 KR2 d          -2.141   2.242  -5.244  0.00  0.00     0.048 H 
ATOM     24  H17 KR2 d          -3.327   0.917  -5.502  0.00  0.00     0.048 H 
BRANCH  22  25
ATOM     25  CAL KR2 d          -3.782   2.220  -3.844  0.00  0.00     0.111 C 
ATOM     26  H18 KR2 d          -3.022   1.964  -3.091  0.00  0.00     0.085 H 
BRANCH  25  27
ATOM     27  NAM KR2 d          -4.978   1.373  -3.739  0.00  0.00    -0.074 N 
ATOM     28  H19 KR2 d          -5.495   1.623  -2.911  0.00  0.00     0.274 HD
ATOM     29  H20 KR2 d          -4.701   0.406  -3.684  0.00  0.00     0.274 HD
ATOM     30  H21 KR2 d          -5.559   1.511  -4.552  0.00  0.00     0.274 HD
ENDBRANCH  25  27
BRANCH  25  31
ATOM     31  CAK KR2 d          -4.354   3.609  -3.560  0.00  0.00    -0.011 C 
ATOM     32  H22 KR2 d          -5.447   3.521  -3.651  0.00  0.00     0.043 H 
ATOM     33  H23 KR2 d          -3.972   4.272  -4.350  0.00  0.00     0.043 H 
BRANCH  31  34
ATOM     34  CAG KR2 d          -4.110   4.253  -2.351  0.00  0.00    -0.015 A 
ATOM     35  CAH KR2 d          -3.131   3.783  -1.489  0.00  0.00    -0.034 A 
ATOM     36  CAC KR2 d          -3.012   4.255  -0.184  0.00  0.00     0.155 A 
ATOM     37  H24 KR2 d          -2.438   3.027  -1.841  0.00  0.00     0.089 H 
ATOM     38  FAB KR2 d          -1.944   3.878   0.542  0.00  0.00    -0.203 F 
ATOM     39  CAD KR2 d          -3.919   5.205   0.274  0.00  0.00     0.157 A 
ATOM     40  FAI KR2 d          -4.098   5.432   1.590  0.00  0.00    -0.203 F 
ATOM     41  CAE KR2 d          -4.843   5.740  -0.613  0.00  0.00    -0.005 A 
ATOM     42  CAF KR2 d          -4.939   5.286  -1.924  0.00  0.00     0.125 A 
ATOM     43  H25 KR2 d          -5.506   6.529  -0.276  0.00  0.00     0.093 H 
ATOM     44  FAJ KR2 d          -5.903   5.806  -2.702  0.00  0.00    -0.205 F 
ENDBRANCH  31  34
ENDBRANCH  25  31
ENDBRANCH  22  25
ENDBRANCH  10  22
BRANCH   1  45
ATOM     45  CAX KR2 d          -3.694   3.144  -9.979  0.00  0.00     0.001 A 
ATOM     46  CAY KR2 d          -5.044   3.068 -10.311  0.00  0.00    -0.072 A 
ATOM     47  CBC KR2 d          -5.578   1.877 -10.798  0.00  0.00    -0.082 A 
ATOM     48  H1  KR2 d          -5.681   3.937 -10.191  0.00  0.00     0.084 H 
ATOM     49  CBB KR2 d          -4.759   0.760 -10.956  0.00  0.00    -0.083 A 
ATOM     50  H2  KR2 d          -6.629   1.819 -11.054  0.00  0.00     0.083 H 
ATOM     51  CBA KR2 d          -3.406   0.840 -10.636  0.00  0.00    -0.082 A 
ATOM     52  H3  KR2 d          -5.175  -0.169 -11.326  0.00  0.00     0.083 H 
ATOM     53  CAZ KR2 d          -2.872   2.032 -10.153  0.00  0.00    -0.072 A 
ATOM     54  H4  KR2 d          -2.767  -0.027 -10.763  0.00  0.00     0.083 H 
ATOM     55  H5  KR2 d          -1.817   2.095  -9.913  0.00  0.00     0.084 H 
ENDBRANCH   1  45
TORSDOF 6
ENDMDL
MODEL 6
REMARK VINA RESULT:      -6.2      1.850      4.390
REMARK  6 active torsions:
REMARK  status: ('A' for Active; 'I' for Inactive)
REMARK    1  A    between atoms: CAX_6  and  CAW_7 
REMARK       I    between atoms: CAW_7  and  NAR_9 
REMARK    2  A    between atoms: CAO_16  and  CAN_18 
REMARK    3  A    between atoms: CAN_18  and  CAL_19 
REMARK    4  A    between atoms: CAL_19  and  NAM_20 
REMARK    5  A    between atoms: CAL_19  and  CAK_21 
REMARK    6  A    between atoms: CAK_21  and  CAG_22 
ROOT
ATOM      1  CAW KR2 d          -2.027   4.140  -9.520  0.00  0.00     0.250 C 
ATOM      2  OAA KR2 d          -1.262   4.418  -8.341  0.00  0.00    -0.199 OA
ATOM      3  NAR KR2 d          -3.267   4.933  -9.563  0.00  0.00    -0.181 NA
ATOM      4  CAV KR2 d          -3.171   5.930 -10.642  0.00  0.00     0.001 C 
ATOM      5  CDD KR2 d          -3.620   7.339 -10.252  0.00  0.00    -0.052 C 
ATOM      6  CNN KR2 d          -2.630   8.053  -9.327  0.00  0.00    -0.062 C 
ATOM      7  CAT KR2 d          -2.837   7.714  -7.847  0.00  0.00    -0.049 C 
ATOM      8  CAS KR2 d          -2.600   6.235  -7.524  0.00  0.00     0.013 C 
ATOM      9  NAQ KR2 d          -3.521   5.394  -8.308  0.00  0.00    -0.288 N 
ATOM     10  CAO KR2 d          -4.789   5.260  -7.936  0.00  0.00     0.170 C 
ATOM     11  OAP KR2 d          -5.787   4.914  -8.791  0.00  0.00    -0.176 OA
ATOM     12  H6  KR2 d          -3.798   5.590 -11.480  0.00  0.00     0.058 H 
ATOM     13  H7  KR2 d          -2.122   5.982 -10.968  0.00  0.00     0.058 H 
ATOM     14  H8  KR2 d          -4.590   7.267  -9.737  0.00  0.00     0.034 H 
ATOM     15  H9  KR2 d          -3.735   7.936 -11.168  0.00  0.00     0.034 H 
ATOM     16  H10 KR2 d          -2.750   9.139  -9.458  0.00  0.00     0.033 H 
ATOM     17  H11 KR2 d          -1.609   7.759  -9.614  0.00  0.00     0.033 H 
ATOM     18  H12 KR2 d          -3.871   7.970  -7.572  0.00  0.00     0.035 H 
ATOM     19  H13 KR2 d          -2.139   8.318  -7.249  0.00  0.00     0.035 H 
ATOM     20  H14 KR2 d          -2.774   6.063  -6.451  0.00  0.00     0.066 H 
ATOM     21  H15 KR2 d          -1.562   5.969  -7.774  0.00  0.00     0.066 H 
ENDROOT
BRANCH  10  22
ATOM     22  CAN KR2 d          -5.182   5.592  -6.500  0.00  0.00     0.025 C 
ATOM     23  H16 KR2 d          -6.205   5.997  -6.488  0.00  0.00     0.048 H 
ATOM     24  H17 KR2 d          -4.485   6.343  -6.097  0.00  0.00     0.048 H 
BRANCH  22  25
ATOM     25  CAL KR2 d          -5.128   4.336  -5.630  0.00  0.00     0.111 C 
ATOM     26  H18 KR2 d          -5.516   3.481  -6.204  0.00  0.00     0.085 H 
BRANCH  25  27
ATOM     27  NAM KR2 d          -5.940   4.624  -4.441  0.00  0.00    -0.074 N 
ATOM     28  H19 KR2 d          -5.453   4.309  -3.617  0.00  0.00     0.274 HD
ATOM     29  H20 KR2 d          -6.824   4.146  -4.513  0.00  0.00     0.274 HD
ATOM     30  H21 KR2 d          -6.100   5.618  -4.377  0.00  0.00     0.274 HD
ENDBRANCH  25  27
BRANCH  25  31
ATOM     31  CAK KR2 d          -3.777   3.980  -5.010  0.00  0.00    -0.011 C 
ATOM     32  H22 KR2 d          -3.011   4.476  -5.624  0.00  0.00     0.043 H 
ATOM     33  H23 KR2 d          -3.670   2.889  -5.100  0.00  0.00     0.043 H 
BRANCH  31  34
ATOM     34  CAG KR2 d          -3.489   4.298  -3.686  0.00  0.00    -0.015 A 
ATOM     35  CAH KR2 d          -3.495   3.313  -2.710  0.00  0.00    -0.034 A 
ATOM     36  CAC KR2 d          -3.439   3.623  -1.353  0.00  0.00     0.155 A 
ATOM     37  H24 KR2 d          -3.545   2.273  -3.011  0.00  0.00     0.089 H 
ATOM     38  FAB KR2 d          -3.284   2.621  -0.469  0.00  0.00    -0.203 F 
ATOM     39  CAD KR2 d          -3.402   4.960  -0.968  0.00  0.00     0.157 A 
ATOM     40  FAI KR2 d          -3.712   5.341   0.287  0.00  0.00    -0.203 F 
ATOM     41  CAE KR2 d          -3.308   5.942  -1.944  0.00  0.00    -0.005 A 
ATOM     42  CAF KR2 d          -3.335   5.626  -3.298  0.00  0.00     0.125 A 
ATOM     43  H25 KR2 d          -3.211   6.980  -1.645  0.00  0.00     0.093 H 
ATOM     44  FAJ KR2 d          -3.307   6.637  -4.183  0.00  0.00    -0.205 F 
ENDBRANCH  31  34
ENDBRANCH  25  31
ENDBRANCH  22  25
ENDBRANCH  10  22
BRANCH   1  45
ATOM     45  CAX KR2 d          -2.535   2.696  -9.442  0.00  0.00     0.001 A 
ATOM     46  CAY KR2 d          -3.231   2.147 -10.516  0.00  0.00    -0.072 A 
ATOM     47  CBC KR2 d          -3.914   0.943 -10.364  0.00  0.00    -0.082 A 
ATOM     48  H1  KR2 d          -3.242   2.659 -11.472  0.00  0.00     0.084 H 
ATOM     49  CBB KR2 d          -3.898   0.284  -9.137  0.00  0.00    -0.083 A 
ATOM     50  H2  KR2 d          -4.457   0.519 -11.200  0.00  0.00     0.083 H 
ATOM     51  CBA KR2 d          -3.191   0.826  -8.066  0.00  0.00    -0.082 A 
ATOM     52  H3  KR2 d          -4.436  -0.649  -9.015  0.00  0.00     0.083 H 
ATOM     53  CAZ KR2 d          -2.505   2.028  -8.221  0.00  0.00    -0.072 A 
ATOM     54  H4  KR2 d          -3.174   0.312  -7.112  0.00  0.00     0.083 H 
ATOM     55  H5  KR2 d          -1.947   2.444  -7.389  0.00  0.00     0.084 H 
ENDBRANCH   1  45
TORSDOF 6
ENDMDL
MODEL 7
REMARK VINA RESULT:      -6.0      3.406      6.387
REMARK  6 active torsions:
REMARK  status: ('A' for Active; 'I' for Inactive)
REMARK    1  A    between atoms: CAX_6  and  CAW_7 
REMARK       I    between atoms: CAW_7  and  NAR_9 
REMARK    2  A    between atoms: CAO_16  and  CAN_18 
REMARK    3  A    between atoms: CAN_18  and  CAL_19 
REMARK    4  A    between atoms: CAL_19  and  NAM_20 
REMARK    5  A    between atoms: CAL_19  and  CAK_21 
REMARK    6  A    between atoms: CAK_21  and  CAG_22 
ROOT
ATOM      1  CAW KR2 d          -2.575   5.249  -5.260  0.00  0.00     0.250 C 
ATOM      2  OAA KR2 d          -1.897   3.990  -5.182  0.00  0.00    -0.199 OA
ATOM      3  NAR KR2 d          -3.857   5.223  -4.537  0.00  0.00    -0.181 NA
ATOM      4  CAV KR2 d          -3.761   6.080  -3.344  0.00  0.00     0.001 C 
ATOM      5  CDD KR2 d          -4.318   5.455  -2.062  0.00  0.00    -0.052 C 
ATOM      6  CNN KR2 d          -3.429   4.345  -1.497  0.00  0.00    -0.062 C 
ATOM      7  CAT KR2 d          -3.699   2.976  -2.130  0.00  0.00    -0.049 C 
ATOM      8  CAS KR2 d          -3.389   2.930  -3.631  0.00  0.00     0.013 C 
ATOM      9  NAQ KR2 d          -4.211   3.923  -4.345  0.00  0.00    -0.288 N 
ATOM     10  CAO KR2 d          -5.487   3.671  -4.613  0.00  0.00     0.170 C 
ATOM     11  OAP KR2 d          -6.411   4.642  -4.832  0.00  0.00    -0.176 OA
ATOM     12  H6  KR2 d          -4.317   7.008  -3.542  0.00  0.00     0.058 H 
ATOM     13  H7  KR2 d          -2.701   6.317  -3.176  0.00  0.00     0.058 H 
ATOM     14  H8  KR2 d          -5.309   5.031  -2.283  0.00  0.00     0.034 H 
ATOM     15  H9  KR2 d          -4.417   6.245  -1.304  0.00  0.00     0.034 H 
ATOM     16  H10 KR2 d          -3.608   4.271  -0.414  0.00  0.00     0.033 H 
ATOM     17  H11 KR2 d          -2.377   4.613  -1.678  0.00  0.00     0.033 H 
ATOM     18  H12 KR2 d          -4.760   2.728  -1.985  0.00  0.00     0.035 H 
ATOM     19  H13 KR2 d          -3.074   2.227  -1.622  0.00  0.00     0.035 H 
ATOM     20  H14 KR2 d          -3.613   1.925  -4.018  0.00  0.00     0.066 H 
ATOM     21  H15 KR2 d          -2.324   3.156  -3.790  0.00  0.00     0.066 H 
ENDROOT
BRANCH  10  22
ATOM     22  CAN KR2 d          -5.981   2.227  -4.590  0.00  0.00     0.025 C 
ATOM     23  H16 KR2 d          -6.693   2.101  -3.761  0.00  0.00     0.048 H 
ATOM     24  H17 KR2 d          -5.123   1.553  -4.443  0.00  0.00     0.048 H 
BRANCH  22  25
ATOM     25  CAL KR2 d          -6.674   1.882  -5.908  0.00  0.00     0.111 C 
ATOM     26  H18 KR2 d          -7.710   2.250  -5.879  0.00  0.00     0.085 H 
BRANCH  25  27
ATOM     27  NAM KR2 d          -6.604   0.421  -6.037  0.00  0.00    -0.074 N 
ATOM     28  H19 KR2 d          -6.793   0.159  -6.992  0.00  0.00     0.274 HD
ATOM     29  H20 KR2 d          -7.288  -0.004  -5.431  0.00  0.00     0.274 HD
ATOM     30  H21 KR2 d          -5.683   0.104  -5.778  0.00  0.00     0.274 HD
ENDBRANCH  25  27
BRANCH  25  31
ATOM     31  CAK KR2 d          -5.989   2.345  -7.193  0.00  0.00    -0.011 C 
ATOM     32  H22 KR2 d          -5.621   3.364  -7.002  0.00  0.00     0.043 H 
ATOM     33  H23 KR2 d          -6.769   2.376  -7.968  0.00  0.00     0.043 H 
BRANCH  31  34
ATOM     34  CAG KR2 d          -4.922   1.635  -7.734  0.00  0.00    -0.015 A 
ATOM     35  CAH KR2 d          -3.628   1.866  -7.293  0.00  0.00    -0.034 A 
ATOM     36  CAC KR2 d          -2.520   1.349  -7.961  0.00  0.00     0.155 A 
ATOM     37  H24 KR2 d          -3.473   2.467  -6.404  0.00  0.00     0.089 H 
ATOM     38  FAB KR2 d          -1.308   1.474  -7.391  0.00  0.00    -0.203 F 
ATOM     39  CAD KR2 d          -2.720   0.601  -9.118  0.00  0.00     0.157 A 
ATOM     40  FAI KR2 d          -1.723   0.386  -9.999  0.00  0.00    -0.203 F 
ATOM     41  CAE KR2 d          -4.015   0.296  -9.511  0.00  0.00    -0.005 A 
ATOM     42  CAF KR2 d          -5.118   0.791  -8.823  0.00  0.00     0.125 A 
ATOM     43  H25 KR2 d          -4.171  -0.343 -10.372  0.00  0.00     0.093 H 
ATOM     44  FAJ KR2 d          -6.340   0.506  -9.304  0.00  0.00    -0.205 F 
ENDBRANCH  31  34
ENDBRANCH  25  31
ENDBRANCH  22  25
ENDBRANCH  10  22
BRANCH   1  45
ATOM     45  CAX KR2 d          -2.996   5.488  -6.715  0.00  0.00     0.001 A 
ATOM     46  CAY KR2 d          -4.286   5.927  -7.000  0.00  0.00    -0.072 A 
ATOM     47  CBC KR2 d          -4.760   5.901  -8.309  0.00  0.00    -0.082 A 
ATOM     48  H1  KR2 d          -4.923   6.290  -6.201  0.00  0.00     0.084 H 
ATOM     49  CBB KR2 d          -3.941   5.436  -9.337  0.00  0.00    -0.083 A 
ATOM     50  H2  KR2 d          -5.765   6.241  -8.529  0.00  0.00     0.083 H 
ATOM     51  CBA KR2 d          -2.646   5.009  -9.053  0.00  0.00    -0.082 A 
ATOM     52  H3  KR2 d          -4.311   5.407 -10.355  0.00  0.00     0.083 H 
ATOM     53  CAZ KR2 d          -2.172   5.040  -7.744  0.00  0.00    -0.072 A 
ATOM     54  H4  KR2 d          -2.006   4.652  -9.852  0.00  0.00     0.083 H 
ATOM     55  H5  KR2 d          -1.160   4.715  -7.527  0.00  0.00     0.084 H 
ENDBRANCH   1  45
TORSDOF 6
ENDMDL
MODEL 8
REMARK VINA RESULT:      -5.8      1.817      2.294
REMARK  6 active torsions:
REMARK  status: ('A' for Active; 'I' for Inactive)
REMARK    1  A    between atoms: CAX_6  and  CAW_7 
REMARK       I    between atoms: CAW_7  and  NAR_9 
REMARK    2  A    between atoms: CAO_16  and  CAN_18 
REMARK    3  A    between atoms: CAN_18  and  CAL_19 
REMARK    4  A    between atoms: CAL_19  and  NAM_20 
REMARK    5  A    between atoms: CAL_19  and  CAK_21 
REMARK    6  A    between atoms: CAK_21  and  CAG_22 
ROOT
ATOM      1  CAW KR2 d          -2.709   4.026  -9.728  0.00  0.00     0.250 C 
ATOM      2  OAA KR2 d          -3.999   3.498 -10.055  0.00  0.00    -0.199 OA
ATOM      3  NAR KR2 d          -2.203   3.478  -8.458  0.00  0.00    -0.181 NA
ATOM      4  CAV KR2 d          -1.058   2.593  -8.732  0.00  0.00     0.001 C 
ATOM      5  CDD KR2 d          -1.093   1.256  -7.990  0.00  0.00    -0.052 C 
ATOM      6  CNN KR2 d          -2.140   0.286  -8.544  0.00  0.00    -0.062 C 
ATOM      7  CAT KR2 d          -3.537   0.506  -7.952  0.00  0.00    -0.049 C 
ATOM      8  CAS KR2 d          -4.130   1.879  -8.290  0.00  0.00     0.013 C 
ATOM      9  NAQ KR2 d          -3.253   2.946  -7.776  0.00  0.00    -0.288 N 
ATOM     10  CAO KR2 d          -3.272   3.268  -6.488  0.00  0.00     0.170 C 
ATOM     11  OAP KR2 d          -2.234   3.871  -5.853  0.00  0.00    -0.176 OA
ATOM     12  H6  KR2 d          -0.138   3.122  -8.440  0.00  0.00     0.058 H 
ATOM     13  H7  KR2 d          -1.034   2.386  -9.811  0.00  0.00     0.058 H 
ATOM     14  H8  KR2 d          -1.321   1.449  -6.931  0.00  0.00     0.034 H 
ATOM     15  H9  KR2 d          -0.103   0.784  -8.072  0.00  0.00     0.034 H 
ATOM     16  H10 KR2 d          -1.821  -0.742  -8.315  0.00  0.00     0.033 H 
ATOM     17  H11 KR2 d          -2.197   0.419  -9.635  0.00  0.00     0.033 H 
ATOM     18  H12 KR2 d          -3.471   0.414  -6.858  0.00  0.00     0.035 H 
ATOM     19  H13 KR2 d          -4.209  -0.270  -8.346  0.00  0.00     0.035 H 
ATOM     20  H14 KR2 d          -5.124   1.970  -7.828  0.00  0.00     0.066 H 
ATOM     21  H15 KR2 d          -4.222   1.977  -9.381  0.00  0.00     0.066 H 
ENDROOT
BRANCH  10  22
ATOM     22  CAN KR2 d          -4.475   2.869  -5.638  0.00  0.00     0.025 C 
ATOM     23  H16 KR2 d          -4.124   2.498  -4.664  0.00  0.00     0.048 H 
ATOM     24  H17 KR2 d          -5.035   2.074  -6.153  0.00  0.00     0.048 H 
BRANCH  22  25
ATOM     25  CAL KR2 d          -5.393   4.072  -5.420  0.00  0.00     0.111 C 
ATOM     26  H18 KR2 d          -6.404   3.826  -5.777  0.00  0.00     0.085 H 
BRANCH  25  27
ATOM     27  NAM KR2 d          -4.793   5.186  -6.167  0.00  0.00    -0.074 N 
ATOM     28  H19 KR2 d          -4.519   4.868  -7.083  0.00  0.00     0.274 HD
ATOM     29  H20 KR2 d          -3.983   5.525  -5.672  0.00  0.00     0.274 HD
ATOM     30  H21 KR2 d          -5.467   5.931  -6.257  0.00  0.00     0.274 HD
ENDBRANCH  25  27
BRANCH  25  31
ATOM     31  CAK KR2 d          -5.461   4.643  -4.004  0.00  0.00    -0.011 C 
ATOM     32  H22 KR2 d          -6.386   4.254  -3.554  0.00  0.00     0.043 H 
ATOM     33  H23 KR2 d          -5.537   5.736  -4.112  0.00  0.00     0.043 H 
BRANCH  31  34
ATOM     34  CAG KR2 d          -4.445   4.406  -3.084  0.00  0.00    -0.015 A 
ATOM     35  CAH KR2 d          -4.337   3.175  -2.457  0.00  0.00    -0.034 A 
ATOM     36  CAC KR2 d          -3.485   2.973  -1.374  0.00  0.00     0.155 A 
ATOM     37  H24 KR2 d          -4.932   2.344  -2.820  0.00  0.00     0.089 H 
ATOM     38  FAB KR2 d          -3.307   1.720  -0.919  0.00  0.00    -0.203 F 
ATOM     39  CAD KR2 d          -2.742   4.047  -0.892  0.00  0.00     0.157 A 
ATOM     40  FAI KR2 d          -2.195   4.030   0.339  0.00  0.00    -0.203 F 
ATOM     41  CAE KR2 d          -2.783   5.256  -1.572  0.00  0.00    -0.005 A 
ATOM     42  CAF KR2 d          -3.613   5.444  -2.671  0.00  0.00     0.125 A 
ATOM     43  H25 KR2 d          -2.153   6.073  -1.238  0.00  0.00     0.093 H 
ATOM     44  FAJ KR2 d          -3.648   6.663  -3.235  0.00  0.00    -0.205 F 
ENDBRANCH  31  34
ENDBRANCH  25  31
ENDBRANCH  22  25
ENDBRANCH  10  22
BRANCH   1  45
ATOM     45  CAX KR2 d          -2.855   5.523  -9.432  0.00  0.00     0.001 A 
ATOM     46  CAY KR2 d          -3.417   6.367 -10.387  0.00  0.00    -0.072 A 
ATOM     47  CBC KR2 d          -3.322   7.748 -10.240  0.00  0.00    -0.082 A 
ATOM     48  H1  KR2 d          -3.928   5.947 -11.246  0.00  0.00     0.084 H 
ATOM     49  CBB KR2 d          -2.667   8.288  -9.135  0.00  0.00    -0.083 A 
ATOM     50  H2  KR2 d          -3.757   8.404 -10.985  0.00  0.00     0.083 H 
ATOM     51  CBA KR2 d          -2.116   7.444  -8.173  0.00  0.00    -0.082 A 
ATOM     52  H3  KR2 d          -2.585   9.363  -9.024  0.00  0.00     0.083 H 
ATOM     53  CAZ KR2 d          -2.215   6.062  -8.319  0.00  0.00    -0.072 A 
ATOM     54  H4  KR2 d          -1.611   7.862  -7.310  0.00  0.00     0.083 H 
ATOM     55  H5  KR2 d          -1.794   5.407  -7.565  0.00  0.00     0.084 H 
ENDBRANCH   1  45
TORSDOF 6
ENDMDL
MODEL 9
REMARK VINA RESULT:      -5.4      2.170      4.475
REMARK  6 active torsions:
REMARK  status: ('A' for Active; 'I' for Inactive)
REMARK    1  A    between atoms: CAX_6  and  CAW_7 
REMARK       I    between atoms: CAW_7  and  NAR_9 
REMARK    2  A    between atoms: CAO_16  and  CAN_18 
REMARK    3  A    between atoms: CAN_18  and  CAL_19 
REMARK    4  A    between atoms: CAL_19  and  NAM_20 
REMARK    5  A    between atoms: CAL_19  and  CAK_21 
REMARK    6  A    between atoms: CAK_21  and  CAG_22 
ROOT
ATOM      1  CAW KR2 d          -3.025   3.859 -10.210  0.00  0.00     0.250 C 
ATOM      2  OAA KR2 d          -1.645   3.675  -9.870  0.00  0.00    -0.199 OA
ATOM      3  NAR KR2 d          -3.701   4.764  -9.266  0.00  0.00    -0.181 NA
ATOM      4  CAV KR2 d          -4.032   6.024  -9.952  0.00  0.00     0.001 C 
ATOM      5  CDD KR2 d          -3.688   7.290  -9.163  0.00  0.00    -0.052 C 
ATOM      6  CNN KR2 d          -2.185   7.569  -9.098  0.00  0.00    -0.062 C 
ATOM      7  CAT KR2 d          -1.482   6.822  -7.959  0.00  0.00    -0.049 C 
ATOM      8  CAS KR2 d          -1.540   5.297  -8.106  0.00  0.00     0.013 C 
ATOM      9  NAQ KR2 d          -2.943   4.848  -8.139  0.00  0.00    -0.288 N 
ATOM     10  CAO KR2 d          -3.644   4.753  -7.015  0.00  0.00     0.170 C 
ATOM     11  OAP KR2 d          -5.000   4.801  -6.973  0.00  0.00    -0.176 OA
ATOM     12  H6  KR2 d          -5.113   6.031 -10.155  0.00  0.00     0.058 H 
ATOM     13  H7  KR2 d          -3.481   6.052 -10.902  0.00  0.00     0.058 H 
ATOM     14  H8  KR2 d          -4.068   7.177  -8.137  0.00  0.00     0.034 H 
ATOM     15  H9  KR2 d          -4.182   8.146  -9.645  0.00  0.00     0.034 H 
ATOM     16  H10 KR2 d          -2.036   8.650  -8.952  0.00  0.00     0.033 H 
ATOM     17  H11 KR2 d          -1.729   7.261 -10.051  0.00  0.00     0.033 H 
ATOM     18  H12 KR2 d          -1.965   7.099  -7.010  0.00  0.00     0.035 H 
ATOM     19  H13 KR2 d          -0.427   7.131  -7.937  0.00  0.00     0.035 H 
ATOM     20  H14 KR2 d          -1.027   4.829  -7.254  0.00  0.00     0.066 H 
ATOM     21  H15 KR2 d          -1.041   5.003  -9.042  0.00  0.00     0.066 H 
ENDROOT
BRANCH  10  22
ATOM     22  CAN KR2 d          -2.905   4.675  -5.682  0.00  0.00     0.025 C 
ATOM     23  H16 KR2 d          -1.829   4.548  -5.870  0.00  0.00     0.048 H 
ATOM     24  H17 KR2 d          -3.281   3.814  -5.109  0.00  0.00     0.048 H 
BRANCH  22  25
ATOM     25  CAL KR2 d          -3.129   5.954  -4.875  0.00  0.00     0.111 C 
ATOM     26  H18 KR2 d          -3.485   6.748  -5.547  0.00  0.00     0.085 H 
BRANCH  25  27
ATOM     27  NAM KR2 d          -1.836   6.282  -4.260  0.00  0.00    -0.074 N 
ATOM     28  H19 KR2 d          -1.101   6.168  -4.941  0.00  0.00     0.274 HD
ATOM     29  H20 KR2 d          -1.669   5.667  -3.479  0.00  0.00     0.274 HD
ATOM     30  H21 KR2 d          -1.849   7.238  -3.938  0.00  0.00     0.274 HD
ENDBRANCH  25  27
BRANCH  25  31
ATOM     31  CAK KR2 d          -4.041   5.852  -3.653  0.00  0.00    -0.011 C 
ATOM     32  H22 KR2 d          -5.074   5.897  -4.029  0.00  0.00     0.043 H 
ATOM     33  H23 KR2 d          -3.836   6.740  -3.036  0.00  0.00     0.043 H 
BRANCH  31  34
ATOM     34  CAG KR2 d          -3.979   4.755  -2.800  0.00  0.00    -0.015 A 
ATOM     35  CAH KR2 d          -3.198   4.798  -1.656  0.00  0.00    -0.034 A 
ATOM     36  CAC KR2 d          -2.930   3.656  -0.905  0.00  0.00     0.155 A 
ATOM     37  H24 KR2 d          -2.783   5.747  -1.335  0.00  0.00     0.089 H 
ATOM     38  FAB KR2 d          -2.304   3.794   0.278  0.00  0.00    -0.203 F 
ATOM     39  CAD KR2 d          -3.441   2.434  -1.332  0.00  0.00     0.157 A 
ATOM     40  FAI KR2 d          -2.938   1.265  -0.887  0.00  0.00    -0.203 F 
ATOM     41  CAE KR2 d          -4.294   2.403  -2.427  0.00  0.00    -0.005 A 
ATOM     42  CAF KR2 d          -4.581   3.551  -3.156  0.00  0.00     0.125 A 
ATOM     43  H25 KR2 d          -4.746   1.462  -2.720  0.00  0.00     0.093 H 
ATOM     44  FAJ KR2 d          -5.362   3.430  -4.243  0.00  0.00    -0.205 F 
ENDBRANCH  31  34
ENDBRANCH  25  31
ENDBRANCH  22  25
ENDBRANCH  10  22
BRANCH   1  45
ATOM     45  CAX KR2 d          -3.758   2.528 -10.008  0.00  0.00     0.001 A 
ATOM     46  CAY KR2 d          -5.086   2.400 -10.410  0.00  0.00    -0.072 A 
ATOM     47  CBC KR2 d          -5.835   1.298 -10.005  0.00  0.00    -0.082 A 
ATOM     48  H1  KR2 d          -5.536   3.160 -11.038  0.00  0.00     0.084 H 
ATOM     49  CBB KR2 d          -5.255   0.320  -9.199  0.00  0.00    -0.083 A 
ATOM     50  H2  KR2 d          -6.868   1.201 -10.317  0.00  0.00     0.083 H 
ATOM     51  CBA KR2 d          -3.924   0.442  -8.808  0.00  0.00    -0.082 A 
ATOM     52  H3  KR2 d          -5.840  -0.533  -8.877  0.00  0.00     0.083 H 
ATOM     53  CAZ KR2 d          -3.174   1.542  -9.217  0.00  0.00    -0.072 A 
ATOM     54  H4  KR2 d          -3.470  -0.321  -8.185  0.00  0.00     0.083 H 
ATOM     55  H5  KR2 d          -2.136   1.630  -8.919  0.00  0.00     0.084 H 
ENDBRANCH   1  45
TORSDOF 6
ENDMDL
MODEL 10
REMARK VINA RESULT:      -4.8      2.197      4.140
REMARK  6 active torsions:
REMARK  status: ('A' for Active; 'I' for Inactive)
REMARK    1  A    between atoms: CAX_6  and  CAW_7 
REMARK       I    between atoms: CAW_7  and  NAR_9 
REMARK    2  A    between atoms: CAO_16  and  CAN_18 
REMARK    3  A    between atoms: CAN_18  and  CAL_19 
REMARK    4  A    between atoms: CAL_19  and  NAM_20 
REMARK    5  A    between atoms: CAL_19  and  CAK_21 
REMARK    6  A    between atoms: CAK_21  and  CAG_22 
ROOT
ATOM      1  CAW KR2 d          -3.619   4.996  -8.938  0.00  0.00     0.250 C 
ATOM      2  OAA KR2 d          -2.260   4.551  -9.016  0.00  0.00    -0.199 OA
ATOM      3  NAR KR2 d          -4.176   4.808  -7.587  0.00  0.00    -0.181 NA
ATOM      4  CAV KR2 d          -4.387   6.124  -6.961  0.00  0.00     0.001 C 
ATOM      5  CDD KR2 d          -3.895   6.229  -5.516  0.00  0.00    -0.052 C 
ATOM      6  CNN KR2 d          -2.370   6.274  -5.400  0.00  0.00    -0.062 C 
ATOM      7  CAT KR2 d          -1.726   4.883  -5.384  0.00  0.00    -0.049 C 
ATOM      8  CAS KR2 d          -1.947   4.097  -6.681  0.00  0.00     0.013 C 
ATOM      9  NAQ KR2 d          -3.389   3.919  -6.922  0.00  0.00    -0.288 N 
ATOM     10  CAO KR2 d          -4.073   2.994  -6.259  0.00  0.00     0.170 C 
ATOM     11  OAP KR2 d          -5.415   3.051  -6.064  0.00  0.00    -0.176 OA
ATOM     12  H6  KR2 d          -5.466   6.340  -6.972  0.00  0.00     0.058 H 
ATOM     13  H7  KR2 d          -3.856   6.878  -7.560  0.00  0.00     0.058 H 
ATOM     14  H8  KR2 d          -4.263   5.356  -4.957  0.00  0.00     0.034 H 
ATOM     15  H9  KR2 d          -4.306   7.148  -5.073  0.00  0.00     0.034 H 
ATOM     16  H10 KR2 d          -2.105   6.793  -4.467  0.00  0.00     0.033 H 
ATOM     17  H11 KR2 d          -1.970   6.834  -6.259  0.00  0.00     0.033 H 
ATOM     18  H12 KR2 d          -2.157   4.309  -4.550  0.00  0.00     0.035 H 
ATOM     19  H13 KR2 d          -0.644   5.001  -5.227  0.00  0.00     0.035 H 
ATOM     20  H14 KR2 d          -1.467   3.111  -6.595  0.00  0.00     0.066 H 
ATOM     21  H15 KR2 d          -1.502   4.649  -7.522  0.00  0.00     0.066 H 
ENDROOT
BRANCH  10  22
ATOM     22  CAN KR2 d          -3.318   1.844  -5.597  0.00  0.00     0.025 C 
ATOM     23  H16 KR2 d          -2.570   2.253  -4.902  0.00  0.00     0.048 H 
ATOM     24  H17 KR2 d          -2.811   1.249  -6.373  0.00  0.00     0.048 H 
BRANCH  22  25
ATOM     25  CAL KR2 d          -4.286   0.947  -4.826  0.00  0.00     0.111 C 
ATOM     26  H18 KR2 d          -3.738   0.080  -4.429  0.00  0.00     0.085 H 
BRANCH  25  27
ATOM     27  NAM KR2 d          -5.332   0.557  -5.781  0.00  0.00    -0.074 N 
ATOM     28  H19 KR2 d          -4.938   0.500  -6.707  0.00  0.00     0.274 HD
ATOM     29  H20 KR2 d          -6.070   1.244  -5.771  0.00  0.00     0.274 HD
ATOM     30  H21 KR2 d          -5.707  -0.342  -5.519  0.00  0.00     0.274 HD
ENDBRANCH  25  27
BRANCH  25  31
ATOM     31  CAK KR2 d          -5.104   1.605  -3.715  0.00  0.00    -0.011 C 
ATOM     32  H22 KR2 d          -5.663   0.798  -3.219  0.00  0.00     0.043 H 
ATOM     33  H23 KR2 d          -5.809   2.290  -4.210  0.00  0.00     0.043 H 
BRANCH  31  34
ATOM     34  CAG KR2 d          -4.486   2.335  -2.704  0.00  0.00    -0.015 A 
ATOM     35  CAH KR2 d          -4.447   3.719  -2.761  0.00  0.00    -0.034 A 
ATOM     36  CAC KR2 d          -3.649   4.468  -1.899  0.00  0.00     0.155 A 
ATOM     37  H24 KR2 d          -5.054   4.234  -3.496  0.00  0.00     0.089 H 
ATOM     38  FAB KR2 d          -3.781   5.807  -1.898  0.00  0.00    -0.203 F 
ATOM     39  CAD KR2 d          -2.849   3.804  -0.974  0.00  0.00     0.157 A 
ATOM     40  FAI KR2 d          -1.806   4.414  -0.377  0.00  0.00    -0.203 F 
ATOM     41  CAE KR2 d          -2.952   2.425  -0.857  0.00  0.00    -0.005 A 
ATOM     42  CAF KR2 d          -3.773   1.684  -1.701  0.00  0.00     0.125 A 
ATOM     43  H25 KR2 d          -2.380   1.913  -0.091  0.00  0.00     0.093 H 
ATOM     44  FAJ KR2 d          -3.769   0.347  -1.571  0.00  0.00    -0.205 F 
ENDBRANCH  31  34
ENDBRANCH  25  31
ENDBRANCH  22  25
ENDBRANCH  10  22
BRANCH   1  45
ATOM     45  CAX KR2 d          -4.484   4.076  -9.806  0.00  0.00     0.001 A 
ATOM     46  CAY KR2 d          -5.859   4.286  -9.884  0.00  0.00    -0.072 A 
ATOM     47  CBC KR2 d          -6.682   3.318 -10.453  0.00  0.00    -0.082 A 
ATOM     48  H1  KR2 d          -6.288   5.205  -9.501  0.00  0.00     0.084 H 
ATOM     49  CBB KR2 d          -6.131   2.138 -10.948  0.00  0.00    -0.083 A 
ATOM     50  H2  KR2 d          -7.752   3.482 -10.510  0.00  0.00     0.083 H 
ATOM     51  CBA KR2 d          -4.755   1.933 -10.882  0.00  0.00    -0.082 A 
ATOM     52  H3  KR2 d          -6.772   1.380 -11.383  0.00  0.00     0.083 H 
ATOM     53  CAZ KR2 d          -3.931   2.904 -10.317  0.00  0.00    -0.072 A 
ATOM     54  H4  KR2 d          -4.324   1.017 -11.271  0.00  0.00     0.083 H 
ATOM     55  H5  KR2 d          -2.859   2.746 -10.274  0.00  0.00     0.084 H 
ENDBRANCH   1  45
TORSDOF 6
ENDMDL
