MODEL 1
REMARK VINA RESULT:      -4.2      0.000      0.000
REMARK  13 active torsions:
REMARK  status: ('A' for Active; 'I' for Inactive)
REMARK    1  A    between atoms: N1_1  and  C2_2 
REMARK    2  A    between atoms: C2_2  and  C3_3 
REMARK    3  A    between atoms: C3_3  and  C4_4 
REMARK    4  A    between atoms: C4_4  and  N5_5 
REMARK    5  A    between atoms: N5_5  and  C6_6 
REMARK    6  A    between atoms: C6_6  and  C7_7 
REMARK    7  A    between atoms: C7_7  and  C8_8 
REMARK    8  A    between atoms: C8_8  and  C9_9 
REMARK    9  A    between atoms: C9_9  and  N10_10 
REMARK   10  A    between atoms: N10_10  and  C11_11 
REMARK   11  A    between atoms: C11_11  and  C12_12 
REMARK   12  A    between atoms: C12_12  and  C13_13 
REMARK   13  A    between atoms: C13_13  and  N14_14 
ROOT
ATOM      1  C7  SPM d          -5.682   5.495  14.770  0.00  0.00    -0.041 C 
ATOM      2  H14 SPM d          -6.557   6.092  15.062  0.00  0.00     0.035 H 
ATOM      3  H15 SPM d          -4.866   5.665  15.487  0.00  0.00     0.035 H 
ENDROOT
BRANCH   1   4
ATOM      4  C6  SPM d          -5.242   5.836  13.362  0.00  0.00     0.082 C 
ATOM      5  H12 SPM d          -4.994   4.898  12.843  0.00  0.00     0.075 H 
ATOM      6  H13 SPM d          -6.084   6.326  12.850  0.00  0.00     0.075 H 
BRANCH   4   7
ATOM      7  N5  SPM d          -4.090   6.717  13.278  0.00  0.00    -0.075 N 
ATOM      8  H10 SPM d          -3.506   6.377  12.529  0.00  0.00     0.277 HD
ATOM      9  H11 SPM d          -4.430   7.637  13.047  0.00  0.00     0.277 HD
BRANCH   7  10
ATOM     10  C4  SPM d          -3.254   6.848  14.449  0.00  0.00     0.083 C 
ATOM     11  H8  SPM d          -3.251   7.906  14.750  0.00  0.00     0.075 H 
ATOM     12  H9  SPM d          -3.694   6.239  15.252  0.00  0.00     0.075 H 
BRANCH  10  13
ATOM     13  C3  SPM d          -1.801   6.403  14.253  0.00  0.00    -0.020 C 
ATOM     14  H6  SPM d          -1.359   6.980  13.428  0.00  0.00     0.037 H 
ATOM     15  H7  SPM d          -1.240   6.601  15.179  0.00  0.00     0.037 H 
BRANCH  13  16
ATOM     16  C2  SPM d          -1.706   4.929  13.927  0.00  0.00     0.081 C 
ATOM     17  H4  SPM d          -2.642   4.587  13.461  0.00  0.00     0.075 H 
ATOM     18  H5  SPM d          -0.868   4.752  13.237  0.00  0.00     0.075 H 
BRANCH  16  19
ATOM     19  N1  SPM d          -1.484   4.216  15.161  0.00  0.00    -0.079 N 
ATOM     20  H1  SPM d          -2.356   4.125  15.658  0.00  0.00     0.274 HD
ATOM     21  H2  SPM d          -0.825   4.725  15.729  0.00  0.00     0.274 HD
ATOM     22  H3  SPM d          -1.115   3.300  14.958  0.00  0.00     0.274 HD
ENDBRANCH  16  19
ENDBRANCH  13  16
ENDBRANCH  10  13
ENDBRANCH   7  10
ENDBRANCH   4   7
ENDBRANCH   1   4
BRANCH   1  23
ATOM     23  C8  SPM d          -6.035   4.020  14.694  0.00  0.00    -0.041 C 
ATOM     24  H16 SPM d          -7.001   3.889  14.185  0.00  0.00     0.035 H 
ATOM     25  H17 SPM d          -6.092   3.591  15.705  0.00  0.00     0.035 H 
BRANCH  23  26
ATOM     26  C9  SPM d          -4.941   3.350  13.909  0.00  0.00     0.082 C 
ATOM     27  H18 SPM d          -4.146   4.080  13.697  0.00  0.00     0.075 H 
ATOM     28  H19 SPM d          -5.353   2.971  12.961  0.00  0.00     0.075 H 
BRANCH  26  29
ATOM     29  N10 SPM d          -4.390   2.249  14.662  0.00  0.00    -0.075 N 
ATOM     30  H20 SPM d          -3.401   2.250  14.465  0.00  0.00     0.277 HD
ATOM     31  H21 SPM d          -4.809   1.417  14.277  0.00  0.00     0.277 HD
BRANCH  29  32
ATOM     32  C11 SPM d          -4.504   2.120  16.084  0.00  0.00     0.083 C 
ATOM     33  H22 SPM d          -5.041   2.991  16.487  0.00  0.00     0.075 H 
ATOM     34  H23 SPM d          -3.498   2.072  16.527  0.00  0.00     0.075 H 
BRANCH  32  35
ATOM     35  C12 SPM d          -5.266   0.857  16.428  0.00  0.00    -0.020 C 
ATOM     36  H24 SPM d          -4.544   0.068  16.687  0.00  0.00     0.037 H 
ATOM     37  H25 SPM d          -5.849   0.547  15.548  0.00  0.00     0.037 H 
BRANCH  35  38
ATOM     38  C13 SPM d          -6.220   1.053  17.603  0.00  0.00     0.081 C 
ATOM     39  H26 SPM d          -5.898   1.930  18.184  0.00  0.00     0.075 H 
ATOM     40  H27 SPM d          -6.189   0.159  18.244  0.00  0.00     0.075 H 
BRANCH  38  41
ATOM     41  N14 SPM d          -7.578   1.261  17.147  0.00  0.00    -0.079 N 
ATOM     42  H28 SPM d          -7.933   2.124  17.530  0.00  0.00     0.274 HD
ATOM     43  H29 SPM d          -8.158   0.495  17.453  0.00  0.00     0.274 HD
ATOM     44  H30 SPM d          -7.591   1.310  16.140  0.00  0.00     0.274 HD
ENDBRANCH  38  41
ENDBRANCH  35  38
ENDBRANCH  32  35
ENDBRANCH  29  32
ENDBRANCH  26  29
ENDBRANCH  23  26
ENDBRANCH   1  23
TORSDOF 13
ENDMDL
MODEL 2
REMARK VINA RESULT:      -4.1      1.185      5.527
REMARK  13 active torsions:
REMARK  status: ('A' for Active; 'I' for Inactive)
REMARK    1  A    between atoms: N1_1  and  C2_2 
REMARK    2  A    between atoms: C2_2  and  C3_3 
REMARK    3  A    between atoms: C3_3  and  C4_4 
REMARK    4  A    between atoms: C4_4  and  N5_5 
REMARK    5  A    between atoms: N5_5  and  C6_6 
REMARK    6  A    between atoms: C6_6  and  C7_7 
REMARK    7  A    between atoms: C7_7  and  C8_8 
REMARK    8  A    between atoms: C8_8  and  C9_9 
REMARK    9  A    between atoms: C9_9  and  N10_10 
REMARK   10  A    between atoms: N10_10  and  C11_11 
REMARK   11  A    between atoms: C11_11  and  C12_12 
REMARK   12  A    between atoms: C12_12  and  C13_13 
REMARK   13  A    between atoms: C13_13  and  N14_14 
ROOT
ATOM      1  C7  SPM d          -5.672   5.770  14.777  0.00  0.00    -0.041 C 
ATOM      2  H14 SPM d          -4.882   6.361  15.262  0.00  0.00     0.035 H 
ATOM      3  H15 SPM d          -6.557   5.736  15.429  0.00  0.00     0.035 H 
ENDROOT
BRANCH   1   4
ATOM      4  C6  SPM d          -5.182   4.372  14.460  0.00  0.00     0.082 C 
ATOM      5  H12 SPM d          -5.002   4.311  13.376  0.00  0.00     0.075 H 
ATOM      6  H13 SPM d          -4.237   4.212  14.999  0.00  0.00     0.075 H 
BRANCH   4   7
ATOM      7  N5  SPM d          -6.097   3.306  14.827  0.00  0.00    -0.075 N 
ATOM      8  H10 SPM d          -7.000   3.726  14.988  0.00  0.00     0.277 HD
ATOM      9  H11 SPM d          -6.155   2.676  14.042  0.00  0.00     0.277 HD
BRANCH   7  10
ATOM     10  C4  SPM d          -5.778   2.513  15.992  0.00  0.00     0.083 C 
ATOM     11  H8  SPM d          -5.623   1.474  15.666  0.00  0.00     0.075 H 
ATOM     12  H9  SPM d          -4.846   2.905  16.426  0.00  0.00     0.075 H 
BRANCH  10  13
ATOM     13  C3  SPM d          -6.852   2.517  17.084  0.00  0.00    -0.020 C 
ATOM     14  H6  SPM d          -6.490   3.108  17.939  0.00  0.00     0.037 H 
ATOM     15  H7  SPM d          -7.768   2.976  16.683  0.00  0.00     0.037 H 
BRANCH  13  16
ATOM     16  C2  SPM d          -7.173   1.116  17.558  0.00  0.00     0.081 C 
ATOM     17  H4  SPM d          -7.632   1.155  18.557  0.00  0.00     0.075 H 
ATOM     18  H5  SPM d          -7.868   0.634  16.855  0.00  0.00     0.075 H 
BRANCH  16  19
ATOM     19  N1  SPM d          -5.938   0.374  17.614  0.00  0.00    -0.079 N 
ATOM     20  H1  SPM d          -6.138  -0.596  17.804  0.00  0.00     0.274 HD
ATOM     21  H2  SPM d          -5.355   0.747  18.347  0.00  0.00     0.274 HD
ATOM     22  H3  SPM d          -5.459   0.453  16.731  0.00  0.00     0.274 HD
ENDBRANCH  16  19
ENDBRANCH  13  16
ENDBRANCH  10  13
ENDBRANCH   7  10
ENDBRANCH   4   7
ENDBRANCH   1   4
BRANCH   1  23
ATOM     23  C8  SPM d          -6.025   6.349  13.419  0.00  0.00    -0.041 C 
ATOM     24  H16 SPM d          -6.290   7.411  13.518  0.00  0.00     0.035 H 
ATOM     25  H17 SPM d          -6.870   5.799  12.980  0.00  0.00     0.035 H 
BRANCH  23  26
ATOM     26  C9  SPM d          -4.805   6.200  12.551  0.00  0.00     0.082 C 
ATOM     27  H18 SPM d          -5.105   6.234  11.494  0.00  0.00     0.075 H 
ATOM     28  H19 SPM d          -4.323   5.233  12.765  0.00  0.00     0.075 H 
BRANCH  26  29
ATOM     29  N10 SPM d          -3.870   7.267  12.816  0.00  0.00    -0.075 N 
ATOM     30  H20 SPM d          -4.113   7.624  13.727  0.00  0.00     0.277 HD
ATOM     31  H21 SPM d          -4.054   7.971  12.119  0.00  0.00     0.277 HD
BRANCH  29  32
ATOM     32  C11 SPM d          -2.449   7.095  12.832  0.00  0.00     0.083 C 
ATOM     33  H22 SPM d          -1.961   8.079  12.777  0.00  0.00     0.075 H 
ATOM     34  H23 SPM d          -2.145   6.486  11.968  0.00  0.00     0.075 H 
BRANCH  32  35
ATOM     35  C12 SPM d          -2.028   6.398  14.110  0.00  0.00    -0.020 C 
ATOM     36  H24 SPM d          -2.871   6.417  14.817  0.00  0.00     0.037 H 
ATOM     37  H25 SPM d          -1.175   6.940  14.543  0.00  0.00     0.037 H 
BRANCH  35  38
ATOM     38  C13 SPM d          -1.618   4.946  13.875  0.00  0.00     0.081 C 
ATOM     39  H26 SPM d          -0.639   4.926  13.375  0.00  0.00     0.075 H 
ATOM     40  H27 SPM d          -2.368   4.461  13.233  0.00  0.00     0.075 H 
BRANCH  38  41
ATOM     41  N14 SPM d          -1.525   4.219  15.125  0.00  0.00    -0.079 N 
ATOM     42  H28 SPM d          -1.993   4.739  15.851  0.00  0.00     0.274 HD
ATOM     43  H29 SPM d          -0.555   4.096  15.371  0.00  0.00     0.274 HD
ATOM     44  H30 SPM d          -1.962   3.317  15.022  0.00  0.00     0.274 HD
ENDBRANCH  38  41
ENDBRANCH  35  38
ENDBRANCH  32  35
ENDBRANCH  29  32
ENDBRANCH  26  29
ENDBRANCH  23  26
ENDBRANCH   1  23
TORSDOF 13
ENDMDL
MODEL 3
REMARK VINA RESULT:      -4.0      1.456      2.642
REMARK  13 active torsions:
REMARK  status: ('A' for Active; 'I' for Inactive)
REMARK    1  A    between atoms: N1_1  and  C2_2 
REMARK    2  A    between atoms: C2_2  and  C3_3 
REMARK    3  A    between atoms: C3_3  and  C4_4 
REMARK    4  A    between atoms: C4_4  and  N5_5 
REMARK    5  A    between atoms: N5_5  and  C6_6 
REMARK    6  A    between atoms: C6_6  and  C7_7 
REMARK    7  A    between atoms: C7_7  and  C8_8 
REMARK    8  A    between atoms: C8_8  and  C9_9 
REMARK    9  A    between atoms: C9_9  and  N10_10 
REMARK   10  A    between atoms: N10_10  and  C11_11 
REMARK   11  A    between atoms: C11_11  and  C12_12 
REMARK   12  A    between atoms: C12_12  and  C13_13 
REMARK   13  A    between atoms: C13_13  and  N14_14 
ROOT
ATOM      1  C7  SPM d          -3.531   3.521  11.917  0.00  0.00    -0.041 C 
ATOM      2  H14 SPM d          -3.813   3.619  10.859  0.00  0.00     0.035 H 
ATOM      3  H15 SPM d          -3.990   4.335  12.496  0.00  0.00     0.035 H 
ENDROOT
BRANCH   1   4
ATOM      4  C6  SPM d          -2.025   3.529  12.076  0.00  0.00     0.082 C 
ATOM      5  H12 SPM d          -1.675   2.486  12.080  0.00  0.00     0.075 H 
ATOM      6  H13 SPM d          -1.594   4.057  11.212  0.00  0.00     0.075 H 
BRANCH   4   7
ATOM      7  N5  SPM d          -1.542   4.172  13.285  0.00  0.00    -0.075 N 
ATOM      8  H10 SPM d          -2.101   3.831  14.052  0.00  0.00     0.277 HD
ATOM      9  H11 SPM d          -0.584   3.887  13.416  0.00  0.00     0.277 HD
BRANCH   7  10
ATOM     10  C4  SPM d          -1.572   5.615  13.341  0.00  0.00     0.083 C 
ATOM     11  H8  SPM d          -0.535   5.981  13.313  0.00  0.00     0.075 H 
ATOM     12  H9  SPM d          -2.114   5.980  12.455  0.00  0.00     0.075 H 
BRANCH  10  13
ATOM     13  C3  SPM d          -2.250   6.195  14.587  0.00  0.00    -0.020 C 
ATOM     14  H6  SPM d          -1.952   5.602  15.464  0.00  0.00     0.037 H 
ATOM     15  H7  SPM d          -1.920   7.237  14.719  0.00  0.00     0.037 H 
BRANCH  13  16
ATOM     16  C2  SPM d          -3.758   6.170  14.467  0.00  0.00     0.081 C 
ATOM     17  H4  SPM d          -4.116   5.130  14.477  0.00  0.00     0.075 H 
ATOM     18  H5  SPM d          -4.209   6.720  15.306  0.00  0.00     0.075 H 
BRANCH  16  19
ATOM     19  N1  SPM d          -4.114   6.799  13.220  0.00  0.00    -0.079 N 
ATOM     20  H1  SPM d          -3.597   7.659  13.117  0.00  0.00     0.274 HD
ATOM     21  H2  SPM d          -5.102   6.999  13.214  0.00  0.00     0.274 HD
ATOM     22  H3  SPM d          -3.893   6.180  12.456  0.00  0.00     0.274 HD
ENDBRANCH  16  19
ENDBRANCH  13  16
ENDBRANCH  10  13
ENDBRANCH   7  10
ENDBRANCH   4   7
ENDBRANCH   1   4
BRANCH   1  23
ATOM     23  C8  SPM d          -3.947   2.167  12.464  0.00  0.00    -0.041 C 
ATOM     24  H16 SPM d          -3.059   1.584  12.746  0.00  0.00     0.035 H 
ATOM     25  H17 SPM d          -4.524   1.614  11.707  0.00  0.00     0.035 H 
BRANCH  23  26
ATOM     26  C9  SPM d          -4.801   2.429  13.674  0.00  0.00     0.082 C 
ATOM     27  H18 SPM d          -5.847   2.182  13.440  0.00  0.00     0.075 H 
ATOM     28  H19 SPM d          -4.728   3.493  13.946  0.00  0.00     0.075 H 
BRANCH  26  29
ATOM     29  N10 SPM d          -4.356   1.621  14.783  0.00  0.00    -0.075 N 
ATOM     30  H20 SPM d          -3.354   1.552  14.688  0.00  0.00     0.277 HD
ATOM     31  H21 SPM d          -4.770   0.713  14.644  0.00  0.00     0.277 HD
BRANCH  29  32
ATOM     32  C11 SPM d          -4.595   1.952  16.156  0.00  0.00     0.083 C 
ATOM     33  H22 SPM d          -3.941   2.786  16.449  0.00  0.00     0.075 H 
ATOM     34  H23 SPM d          -4.377   1.076  16.786  0.00  0.00     0.075 H 
BRANCH  32  35
ATOM     35  C12 SPM d          -6.042   2.358  16.344  0.00  0.00    -0.020 C 
ATOM     36  H24 SPM d          -6.489   2.542  15.356  0.00  0.00     0.037 H 
ATOM     37  H25 SPM d          -6.075   3.282  16.940  0.00  0.00     0.037 H 
BRANCH  35  38
ATOM     38  C13 SPM d          -6.861   1.285  17.058  0.00  0.00     0.081 C 
ATOM     39  H26 SPM d          -7.457   0.735  16.315  0.00  0.00     0.075 H 
ATOM     40  H27 SPM d          -7.534   1.769  17.782  0.00  0.00     0.075 H 
BRANCH  38  41
ATOM     41  N14 SPM d          -6.004   0.352  17.759  0.00  0.00    -0.079 N 
ATOM     42  H28 SPM d          -6.487  -0.003  18.570  0.00  0.00     0.274 HD
ATOM     43  H29 SPM d          -5.161   0.822  18.050  0.00  0.00     0.274 HD
ATOM     44  H30 SPM d          -5.767  -0.413  17.147  0.00  0.00     0.274 HD
ENDBRANCH  38  41
ENDBRANCH  35  38
ENDBRANCH  32  35
ENDBRANCH  29  32
ENDBRANCH  26  29
ENDBRANCH  23  26
ENDBRANCH   1  23
TORSDOF 13
ENDMDL
MODEL 4
REMARK VINA RESULT:      -3.9      2.076      5.786
REMARK  13 active torsions:
REMARK  status: ('A' for Active; 'I' for Inactive)
REMARK    1  A    between atoms: N1_1  and  C2_2 
REMARK    2  A    between atoms: C2_2  and  C3_3 
REMARK    3  A    between atoms: C3_3  and  C4_4 
REMARK    4  A    between atoms: C4_4  and  N5_5 
REMARK    5  A    between atoms: N5_5  and  C6_6 
REMARK    6  A    between atoms: C6_6  and  C7_7 
REMARK    7  A    between atoms: C7_7  and  C8_8 
REMARK    8  A    between atoms: C8_8  and  C9_9 
REMARK    9  A    between atoms: C9_9  and  N10_10 
REMARK   10  A    between atoms: N10_10  and  C11_11 
REMARK   11  A    between atoms: C11_11  and  C12_12 
REMARK   12  A    between atoms: C12_12  and  C13_13 
REMARK   13  A    between atoms: C13_13  and  N14_14 
ROOT
ATOM      1  C7  SPM d          -4.731   2.244  13.919  0.00  0.00    -0.041 C 
ATOM      2  H14 SPM d          -4.090   3.003  14.392  0.00  0.00     0.035 H 
ATOM      3  H15 SPM d          -5.784   2.548  14.006  0.00  0.00     0.035 H 
ENDROOT
BRANCH   1   4
ATOM      4  C6  SPM d          -4.509   0.884  14.548  0.00  0.00     0.082 C 
ATOM      5  H12 SPM d          -5.467   0.344  14.542  0.00  0.00     0.075 H 
ATOM      6  H13 SPM d          -3.778   0.339  13.932  0.00  0.00     0.075 H 
BRANCH   4   7
ATOM      7  N5  SPM d          -4.015   0.915  15.913  0.00  0.00    -0.075 N 
ATOM      8  H10 SPM d          -3.825  -0.037  16.186  0.00  0.00     0.277 HD
ATOM      9  H11 SPM d          -3.156   1.442  15.911  0.00  0.00     0.277 HD
BRANCH   7  10
ATOM     10  C4  SPM d          -4.869   1.490  16.927  0.00  0.00     0.083 C 
ATOM     11  H8  SPM d          -4.323   1.479  17.881  0.00  0.00     0.075 H 
ATOM     12  H9  SPM d          -5.087   2.530  16.641  0.00  0.00     0.075 H 
BRANCH  10  13
ATOM     13  C3  SPM d          -6.202   0.763  17.131  0.00  0.00    -0.020 C 
ATOM     14  H6  SPM d          -6.441   0.194  16.220  0.00  0.00     0.037 H 
ATOM     15  H7  SPM d          -6.104   0.070  17.980  0.00  0.00     0.037 H 
BRANCH  13  16
ATOM     16  C2  SPM d          -7.330   1.730  17.414  0.00  0.00     0.081 C 
ATOM     17  H4  SPM d          -8.244   1.402  16.897  0.00  0.00     0.075 H 
ATOM     18  H5  SPM d          -7.520   1.776  18.497  0.00  0.00     0.075 H 
BRANCH  16  19
ATOM     19  N1  SPM d          -6.932   3.029  16.930  0.00  0.00    -0.079 N 
ATOM     20  H1  SPM d          -7.748   3.544  16.640  0.00  0.00     0.274 HD
ATOM     21  H2  SPM d          -6.308   2.918  16.147  0.00  0.00     0.274 HD
ATOM     22  H3  SPM d          -6.461   3.532  17.666  0.00  0.00     0.274 HD
ENDBRANCH  16  19
ENDBRANCH  13  16
ENDBRANCH  10  13
ENDBRANCH   7  10
ENDBRANCH   4   7
ENDBRANCH   1   4
BRANCH   1  23
ATOM     23  C8  SPM d          -4.345   2.041  12.465  0.00  0.00    -0.041 C 
ATOM     24  H16 SPM d          -5.244   1.867  11.856  0.00  0.00     0.035 H 
ATOM     25  H17 SPM d          -3.665   1.181  12.369  0.00  0.00     0.035 H 
BRANCH  23  26
ATOM     26  C9  SPM d          -3.653   3.299  12.018  0.00  0.00     0.082 C 
ATOM     27  H18 SPM d          -3.847   4.099  12.747  0.00  0.00     0.075 H 
ATOM     28  H19 SPM d          -4.043   3.598  11.033  0.00  0.00     0.075 H 
BRANCH  26  29
ATOM     29  N10 SPM d          -2.230   3.078  11.920  0.00  0.00    -0.075 N 
ATOM     30  H20 SPM d          -2.056   2.839  10.956  0.00  0.00     0.277 HD
ATOM     31  H21 SPM d          -2.036   2.281  12.505  0.00  0.00     0.277 HD
BRANCH  29  32
ATOM     32  C11 SPM d          -1.246   4.061  12.261  0.00  0.00     0.083 C 
ATOM     33  H22 SPM d          -0.669   4.326  11.363  0.00  0.00     0.075 H 
ATOM     34  H23 SPM d          -0.569   3.649  13.025  0.00  0.00     0.075 H 
BRANCH  32  35
ATOM     35  C12 SPM d          -1.924   5.301  12.807  0.00  0.00    -0.020 C 
ATOM     36  H24 SPM d          -3.009   5.207  12.653  0.00  0.00     0.037 H 
ATOM     37  H25 SPM d          -1.550   6.178  12.258  0.00  0.00     0.037 H 
BRANCH  35  38
ATOM     38  C13 SPM d          -1.656   5.505  14.296  0.00  0.00     0.081 C 
ATOM     39  H26 SPM d          -2.484   6.081  14.734  0.00  0.00     0.075 H 
ATOM     40  H27 SPM d          -0.716   6.063  14.419  0.00  0.00     0.075 H 
BRANCH  38  41
ATOM     41  N14 SPM d          -1.547   4.236  14.987  0.00  0.00    -0.079 N 
ATOM     42  H28 SPM d          -1.367   3.504  14.318  0.00  0.00     0.274 HD
ATOM     43  H29 SPM d          -2.409   4.042  15.473  0.00  0.00     0.274 HD
ATOM     44  H30 SPM d          -0.790   4.280  15.651  0.00  0.00     0.274 HD
ENDBRANCH  38  41
ENDBRANCH  35  38
ENDBRANCH  32  35
ENDBRANCH  29  32
ENDBRANCH  26  29
ENDBRANCH  23  26
ENDBRANCH   1  23
TORSDOF 13
ENDMDL
MODEL 5
REMARK VINA RESULT:      -3.8      1.588      5.572
REMARK  13 active torsions:
REMARK  status: ('A' for Active; 'I' for Inactive)
REMARK    1  A    between atoms: N1_1  and  C2_2 
REMARK    2  A    between atoms: C2_2  and  C3_3 
REMARK    3  A    between atoms: C3_3  and  C4_4 
REMARK    4  A    between atoms: C4_4  and  N5_5 
REMARK    5  A    between atoms: N5_5  and  C6_6 
REMARK    6  A    between atoms: C6_6  and  C7_7 
REMARK    7  A    between atoms: C7_7  and  C8_8 
REMARK    8  A    between atoms: C8_8  and  C9_9 
REMARK    9  A    between atoms: C9_9  and  N10_10 
REMARK   10  A    between atoms: N10_10  and  C11_11 
REMARK   11  A    between atoms: C11_11  and  C12_12 
REMARK   12  A    between atoms: C12_12  and  C13_13 
REMARK   13  A    between atoms: C13_13  and  N14_14 
ROOT
ATOM      1  C7  SPM d          -3.931   2.122  11.917  0.00  0.00    -0.041 C 
ATOM      2  H14 SPM d          -4.824   2.223  11.282  0.00  0.00     0.035 H 
ATOM      3  H15 SPM d          -3.100   1.721  11.319  0.00  0.00     0.035 H 
ENDROOT
BRANCH   1   4
ATOM      4  C6  SPM d          -4.217   1.234  13.109  0.00  0.00     0.082 C 
ATOM      5  H12 SPM d          -5.126   0.653  12.894  0.00  0.00     0.075 H 
ATOM      6  H13 SPM d          -3.366   0.548  13.236  0.00  0.00     0.075 H 
BRANCH   4   7
ATOM      7  N5  SPM d          -4.418   1.939  14.363  0.00  0.00    -0.075 N 
ATOM      8  H10 SPM d          -3.609   2.521  14.514  0.00  0.00     0.277 HD
ATOM      9  H11 SPM d          -5.234   2.521  14.253  0.00  0.00     0.277 HD
BRANCH   7  10
ATOM     10  C4  SPM d          -4.610   1.151  15.558  0.00  0.00     0.083 C 
ATOM     11  H8  SPM d          -5.186   0.253  15.287  0.00  0.00     0.075 H 
ATOM     12  H9  SPM d          -3.620   0.852  15.933  0.00  0.00     0.075 H 
BRANCH  10  13
ATOM     13  C3  SPM d          -5.352   1.870  16.689  0.00  0.00    -0.020 C 
ATOM     14  H6  SPM d          -4.614   2.306  17.379  0.00  0.00     0.037 H 
ATOM     15  H7  SPM d          -5.968   2.673  16.257  0.00  0.00     0.037 H 
BRANCH  13  16
ATOM     16  C2  SPM d          -6.246   0.926  17.462  0.00  0.00     0.081 C 
ATOM     17  H4  SPM d          -6.019  -0.115  17.187  0.00  0.00     0.075 H 
ATOM     18  H5  SPM d          -6.089   1.062  18.542  0.00  0.00     0.075 H 
BRANCH  16  19
ATOM     19  N1  SPM d          -7.613   1.235  17.123  0.00  0.00    -0.079 N 
ATOM     20  H1  SPM d          -7.634   1.787  16.280  0.00  0.00     0.274 HD
ATOM     21  H2  SPM d          -8.037   1.755  17.875  0.00  0.00     0.274 HD
ATOM     22  H3  SPM d          -8.125   0.379  16.977  0.00  0.00     0.274 HD
ENDBRANCH  16  19
ENDBRANCH  13  16
ENDBRANCH  10  13
ENDBRANCH   7  10
ENDBRANCH   4   7
ENDBRANCH   1   4
BRANCH   1  23
ATOM     23  C8  SPM d          -3.556   3.456  12.537  0.00  0.00    -0.041 C 
ATOM     24  H16 SPM d          -3.672   3.411  13.630  0.00  0.00     0.035 H 
ATOM     25  H17 SPM d          -4.195   4.255  12.134  0.00  0.00     0.035 H 
BRANCH  23  26
ATOM     26  C9  SPM d          -2.118   3.714  12.180  0.00  0.00     0.082 C 
ATOM     27  H18 SPM d          -2.074   4.419  11.337  0.00  0.00     0.075 H 
ATOM     28  H19 SPM d          -1.640   2.765  11.891  0.00  0.00     0.075 H 
BRANCH  26  29
ATOM     29  N10 SPM d          -1.416   4.276  13.309  0.00  0.00    -0.075 N 
ATOM     30  H20 SPM d          -0.866   5.036  12.939  0.00  0.00     0.277 HD
ATOM     31  H21 SPM d          -0.803   3.548  13.640  0.00  0.00     0.277 HD
BRANCH  29  32
ATOM     32  C11 SPM d          -2.068   4.797  14.473  0.00  0.00     0.083 C 
ATOM     33  H22 SPM d          -1.575   4.402  15.374  0.00  0.00     0.075 H 
ATOM     34  H23 SPM d          -3.124   4.489  14.467  0.00  0.00     0.075 H 
BRANCH  32  35
ATOM     35  C12 SPM d          -1.985   6.309  14.476  0.00  0.00    -0.020 C 
ATOM     36  H24 SPM d          -1.279   6.626  13.694  0.00  0.00     0.037 H 
ATOM     37  H25 SPM d          -1.616   6.640  15.459  0.00  0.00     0.037 H 
BRANCH  35  38
ATOM     38  C13 SPM d          -3.337   6.968  14.213  0.00  0.00     0.081 C 
ATOM     39  H26 SPM d          -3.430   7.180  13.138  0.00  0.00     0.075 H 
ATOM     40  H27 SPM d          -3.392   7.911  14.778  0.00  0.00     0.075 H 
BRANCH  38  41
ATOM     41  N14 SPM d          -4.427   6.108  14.622  0.00  0.00    -0.079 N 
ATOM     42  H28 SPM d          -5.299   6.491  14.291  0.00  0.00     0.274 HD
ATOM     43  H29 SPM d          -4.449   6.045  15.628  0.00  0.00     0.274 HD
ATOM     44  H30 SPM d          -4.294   5.188  14.232  0.00  0.00     0.274 HD
ENDBRANCH  38  41
ENDBRANCH  35  38
ENDBRANCH  32  35
ENDBRANCH  29  32
ENDBRANCH  26  29
ENDBRANCH  23  26
ENDBRANCH   1  23
TORSDOF 13
ENDMDL
MODEL 6
REMARK VINA RESULT:      -3.5      1.759      3.237
REMARK  13 active torsions:
REMARK  status: ('A' for Active; 'I' for Inactive)
REMARK    1  A    between atoms: N1_1  and  C2_2 
REMARK    2  A    between atoms: C2_2  and  C3_3 
REMARK    3  A    between atoms: C3_3  and  C4_4 
REMARK    4  A    between atoms: C4_4  and  N5_5 
REMARK    5  A    between atoms: N5_5  and  C6_6 
REMARK    6  A    between atoms: C6_6  and  C7_7 
REMARK    7  A    between atoms: C7_7  and  C8_8 
REMARK    8  A    between atoms: C8_8  and  C9_9 
REMARK    9  A    between atoms: C9_9  and  N10_10 
REMARK   10  A    between atoms: N10_10  and  C11_11 
REMARK   11  A    between atoms: C11_11  and  C12_12 
REMARK   12  A    between atoms: C12_12  and  C13_13 
REMARK   13  A    between atoms: C13_13  and  N14_14 
ROOT
ATOM      1  C7  SPM d          -6.204   4.283  14.512  0.00  0.00    -0.041 C 
ATOM      2  H14 SPM d          -6.043   3.810  13.533  0.00  0.00     0.035 H 
ATOM      3  H15 SPM d          -7.279   4.285  14.747  0.00  0.00     0.035 H 
ENDROOT
BRANCH   1   4
ATOM      4  C6  SPM d          -5.647   5.691  14.528  0.00  0.00     0.082 C 
ATOM      5  H12 SPM d          -6.479   6.386  14.718  0.00  0.00     0.075 H 
ATOM      6  H13 SPM d          -4.918   5.760  15.348  0.00  0.00     0.075 H 
BRANCH   4   7
ATOM      7  N5  SPM d          -4.987   6.101  13.301  0.00  0.00    -0.075 N 
ATOM      8  H10 SPM d          -4.982   5.305  12.682  0.00  0.00     0.277 HD
ATOM      9  H11 SPM d          -5.540   6.839  12.894  0.00  0.00     0.277 HD
BRANCH   7  10
ATOM     10  C4  SPM d          -3.628   6.583  13.394  0.00  0.00     0.083 C 
ATOM     11  H8  SPM d          -3.046   6.124  12.580  0.00  0.00     0.075 H 
ATOM     12  H9  SPM d          -3.643   7.675  13.263  0.00  0.00     0.075 H 
BRANCH  10  13
ATOM     13  C3  SPM d          -2.926   6.270  14.719  0.00  0.00    -0.020 C 
ATOM     14  H6  SPM d          -2.434   7.183  15.086  0.00  0.00     0.037 H 
ATOM     15  H7  SPM d          -3.677   5.938  15.451  0.00  0.00     0.037 H 
BRANCH  13  16
ATOM     16  C2  SPM d          -1.885   5.184  14.558  0.00  0.00     0.081 C 
ATOM     17  H4  SPM d          -1.212   5.179  15.428  0.00  0.00     0.075 H 
ATOM     18  H5  SPM d          -2.377   4.204  14.471  0.00  0.00     0.075 H 
BRANCH  16  19
ATOM     19  N1  SPM d          -1.135   5.464  13.359  0.00  0.00    -0.079 N 
ATOM     20  H1  SPM d          -0.409   4.773  13.247  0.00  0.00     0.274 HD
ATOM     21  H2  SPM d          -0.719   6.379  13.429  0.00  0.00     0.274 HD
ATOM     22  H3  SPM d          -1.752   5.435  12.562  0.00  0.00     0.274 HD
ENDBRANCH  16  19
ENDBRANCH  13  16
ENDBRANCH  10  13
ENDBRANCH   7  10
ENDBRANCH   4   7
ENDBRANCH   1   4
BRANCH   1  23
ATOM     23  C8  SPM d          -5.416   3.567  15.594  0.00  0.00    -0.041 C 
ATOM     24  H16 SPM d          -5.880   3.739  16.576  0.00  0.00     0.035 H 
ATOM     25  H17 SPM d          -4.378   3.930  15.610  0.00  0.00     0.035 H 
BRANCH  23  26
ATOM     26  C9  SPM d          -5.446   2.101  15.257  0.00  0.00     0.082 C 
ATOM     27  H18 SPM d          -6.322   1.891  14.627  0.00  0.00     0.075 H 
ATOM     28  H19 SPM d          -5.514   1.516  16.187  0.00  0.00     0.075 H 
BRANCH  26  29
ATOM     29  N10 SPM d          -4.247   1.728  14.546  0.00  0.00    -0.075 N 
ATOM     30  H20 SPM d          -3.720   1.148  15.181  0.00  0.00     0.277 HD
ATOM     31  H21 SPM d          -3.747   2.588  14.383  0.00  0.00     0.277 HD
BRANCH  29  32
ATOM     32  C11 SPM d          -4.247   1.034  13.294  0.00  0.00     0.083 C 
ATOM     33  H22 SPM d          -4.972   0.208  13.335  0.00  0.00     0.075 H 
ATOM     34  H23 SPM d          -3.241   0.630  13.100  0.00  0.00     0.075 H 
BRANCH  32  35
ATOM     35  C12 SPM d          -4.631   1.984  12.178  0.00  0.00    -0.020 C 
ATOM     36  H24 SPM d          -5.607   2.431  12.415  0.00  0.00     0.037 H 
ATOM     37  H25 SPM d          -4.706   1.414  11.240  0.00  0.00     0.037 H 
BRANCH  35  38
ATOM     38  C13 SPM d          -3.611   3.105  11.990  0.00  0.00     0.081 C 
ATOM     39  H26 SPM d          -3.681   3.800  12.839  0.00  0.00     0.075 H 
ATOM     40  H27 SPM d          -3.838   3.643  11.057  0.00  0.00     0.075 H 
BRANCH  38  41
ATOM     41  N14 SPM d          -2.263   2.580  11.918  0.00  0.00    -0.079 N 
ATOM     42  H28 SPM d          -2.185   1.772  12.515  0.00  0.00     0.274 HD
ATOM     43  H29 SPM d          -1.611   3.286  12.221  0.00  0.00     0.274 HD
ATOM     44  H30 SPM d          -2.055   2.318  10.967  0.00  0.00     0.274 HD
ENDBRANCH  38  41
ENDBRANCH  35  38
ENDBRANCH  32  35
ENDBRANCH  29  32
ENDBRANCH  26  29
ENDBRANCH  23  26
ENDBRANCH   1  23
TORSDOF 13
ENDMDL
MODEL 7
REMARK VINA RESULT:      -3.5      1.773      4.744
REMARK  13 active torsions:
REMARK  status: ('A' for Active; 'I' for Inactive)
REMARK    1  A    between atoms: N1_1  and  C2_2 
REMARK    2  A    between atoms: C2_2  and  C3_3 
REMARK    3  A    between atoms: C3_3  and  C4_4 
REMARK    4  A    between atoms: C4_4  and  N5_5 
REMARK    5  A    between atoms: N5_5  and  C6_6 
REMARK    6  A    between atoms: C6_6  and  C7_7 
REMARK    7  A    between atoms: C7_7  and  C8_8 
REMARK    8  A    between atoms: C8_8  and  C9_9 
REMARK    9  A    between atoms: C9_9  and  N10_10 
REMARK   10  A    between atoms: N10_10  and  C11_11 
REMARK   11  A    between atoms: C11_11  and  C12_12 
REMARK   12  A    between atoms: C12_12  and  C13_13 
REMARK   13  A    between atoms: C13_13  and  N14_14 
ROOT
ATOM      1  C7  SPM d          -4.434   6.240  13.389  0.00  0.00    -0.041 C 
ATOM      2  H14 SPM d          -4.567   7.132  12.759  0.00  0.00     0.035 H 
ATOM      3  H15 SPM d          -3.856   5.485  12.837  0.00  0.00     0.035 H 
ENDROOT
BRANCH   1   4
ATOM      4  C6  SPM d          -5.773   5.684  13.823  0.00  0.00     0.082 C 
ATOM      5  H12 SPM d          -6.459   6.529  13.984  0.00  0.00     0.075 H 
ATOM      6  H13 SPM d          -6.159   5.049  13.012  0.00  0.00     0.075 H 
BRANCH   4   7
ATOM      7  N5  SPM d          -5.740   4.892  15.040  0.00  0.00    -0.075 N 
ATOM      8  H10 SPM d          -4.831   5.019  15.457  0.00  0.00     0.277 HD
ATOM      9  H11 SPM d          -6.447   5.260  15.658  0.00  0.00     0.277 HD
BRANCH   7  10
ATOM     10  C4  SPM d          -5.966   3.470  14.926  0.00  0.00     0.083 C 
ATOM     11  H8  SPM d          -6.931   3.238  15.401  0.00  0.00     0.075 H 
ATOM     12  H9  SPM d          -6.013   3.215  13.857  0.00  0.00     0.075 H 
BRANCH  10  13
ATOM     13  C3  SPM d          -4.891   2.595  15.579  0.00  0.00    -0.020 C 
ATOM     14  H6  SPM d          -4.650   1.762  14.902  0.00  0.00     0.037 H 
ATOM     15  H7  SPM d          -3.990   3.203  15.746  0.00  0.00     0.037 H 
BRANCH  13  16
ATOM     16  C2  SPM d          -5.355   2.031  16.904  0.00  0.00     0.081 C 
ATOM     17  H4  SPM d          -4.630   2.283  17.692  0.00  0.00     0.075 H 
ATOM     18  H5  SPM d          -6.339   2.449  17.164  0.00  0.00     0.075 H 
BRANCH  16  19
ATOM     19  N1  SPM d          -5.452   0.599  16.766  0.00  0.00    -0.079 N 
ATOM     20  H1  SPM d          -5.540   0.178  17.678  0.00  0.00     0.274 HD
ATOM     21  H2  SPM d          -4.623   0.248  16.313  0.00  0.00     0.274 HD
ATOM     22  H3  SPM d          -6.261   0.369  16.210  0.00  0.00     0.274 HD
ENDBRANCH  16  19
ENDBRANCH  13  16
ENDBRANCH  10  13
ENDBRANCH   7  10
ENDBRANCH   4   7
ENDBRANCH   1   4
BRANCH   1  23
ATOM     23  C8  SPM d          -3.747   6.598  14.694  0.00  0.00    -0.041 C 
ATOM     24  H16 SPM d          -4.121   5.958  15.506  0.00  0.00     0.035 H 
ATOM     25  H17 SPM d          -3.933   7.654  14.944  0.00  0.00     0.035 H 
BRANCH  23  26
ATOM     26  C9  SPM d          -2.275   6.368  14.490  0.00  0.00     0.082 C 
ATOM     27  H18 SPM d          -1.875   5.795  15.339  0.00  0.00     0.075 H 
ATOM     28  H19 SPM d          -1.760   7.339  14.428  0.00  0.00     0.075 H 
BRANCH  26  29
ATOM     29  N10 SPM d          -2.050   5.631  13.269  0.00  0.00    -0.075 N 
ATOM     30  H20 SPM d          -1.408   6.189  12.727  0.00  0.00     0.277 HD
ATOM     31  H21 SPM d          -2.942   5.596  12.803  0.00  0.00     0.277 HD
BRANCH  29  32
ATOM     32  C11 SPM d          -1.535   4.296  13.229  0.00  0.00     0.083 C 
ATOM     33  H22 SPM d          -1.959   3.716  14.062  0.00  0.00     0.075 H 
ATOM     34  H23 SPM d          -0.439   4.324  13.322  0.00  0.00     0.075 H 
BRANCH  32  35
ATOM     35  C12 SPM d          -1.911   3.638  11.917  0.00  0.00    -0.020 C 
ATOM     36  H24 SPM d          -1.206   2.818  11.717  0.00  0.00     0.037 H 
ATOM     37  H25 SPM d          -1.841   4.387  11.114  0.00  0.00     0.037 H 
BRANCH  35  38
ATOM     38  C13 SPM d          -3.329   3.070  11.934  0.00  0.00     0.081 C 
ATOM     39  H26 SPM d          -3.770   3.175  10.932  0.00  0.00     0.075 H 
ATOM     40  H27 SPM d          -3.933   3.635  12.661  0.00  0.00     0.075 H 
BRANCH  38  41
ATOM     41  N14 SPM d          -3.328   1.671  12.307  0.00  0.00    -0.079 N 
ATOM     42  H28 SPM d          -3.654   1.117  11.530  0.00  0.00     0.274 HD
ATOM     43  H29 SPM d          -3.939   1.532  13.097  0.00  0.00     0.274 HD
ATOM     44  H30 SPM d          -2.392   1.389  12.553  0.00  0.00     0.274 HD
ENDBRANCH  38  41
ENDBRANCH  35  38
ENDBRANCH  32  35
ENDBRANCH  29  32
ENDBRANCH  26  29
ENDBRANCH  23  26
ENDBRANCH   1  23
TORSDOF 13
ENDMDL
MODEL 8
REMARK VINA RESULT:      -2.2      1.955      5.806
REMARK  13 active torsions:
REMARK  status: ('A' for Active; 'I' for Inactive)
REMARK    1  A    between atoms: N1_1  and  C2_2 
REMARK    2  A    between atoms: C2_2  and  C3_3 
REMARK    3  A    between atoms: C3_3  and  C4_4 
REMARK    4  A    between atoms: C4_4  and  N5_5 
REMARK    5  A    between atoms: N5_5  and  C6_6 
REMARK    6  A    between atoms: C6_6  and  C7_7 
REMARK    7  A    between atoms: C7_7  and  C8_8 
REMARK    8  A    between atoms: C8_8  and  C9_9 
REMARK    9  A    between atoms: C9_9  and  N10_10 
REMARK   10  A    between atoms: N10_10  and  C11_11 
REMARK   11  A    between atoms: C11_11  and  C12_12 
REMARK   12  A    between atoms: C12_12  and  C13_13 
REMARK   13  A    between atoms: C13_13  and  N14_14 
ROOT
ATOM      1  C7  SPM d          -3.793   3.301  14.981  0.00  0.00    -0.041 C 
ATOM      2  H14 SPM d          -2.876   2.697  15.022  0.00  0.00     0.035 H 
ATOM      3  H15 SPM d          -3.786   4.035  15.800  0.00  0.00     0.035 H 
ENDROOT
BRANCH   1   4
ATOM      4  C6  SPM d          -5.022   2.420  15.058  0.00  0.00     0.082 C 
ATOM      5  H12 SPM d          -5.152   1.928  14.082  0.00  0.00     0.075 H 
ATOM      6  H13 SPM d          -4.849   1.659  15.832  0.00  0.00     0.075 H 
BRANCH   4   7
ATOM      7  N5  SPM d          -6.255   3.118  15.378  0.00  0.00    -0.075 N 
ATOM      8  H10 SPM d          -6.010   4.066  15.621  0.00  0.00     0.277 HD
ATOM      9  H11 SPM d          -6.824   3.121  14.546  0.00  0.00     0.277 HD
BRANCH   7  10
ATOM     10  C4  SPM d          -7.067   2.595  16.453  0.00  0.00     0.083 C 
ATOM     11  H8  SPM d          -7.967   3.222  16.538  0.00  0.00     0.075 H 
ATOM     12  H9  SPM d          -7.359   1.567  16.192  0.00  0.00     0.075 H 
BRANCH  10  13
ATOM     13  C3  SPM d          -6.377   2.562  17.820  0.00  0.00    -0.020 C 
ATOM     14  H6  SPM d          -5.809   3.495  17.956  0.00  0.00     0.037 H 
ATOM     15  H7  SPM d          -7.145   2.483  18.605  0.00  0.00     0.037 H 
BRANCH  13  16
ATOM     16  C2  SPM d          -5.429   1.389  17.942  0.00  0.00     0.081 C 
ATOM     17  H4  SPM d          -4.699   1.412  17.119  0.00  0.00     0.075 H 
ATOM     18  H5  SPM d          -4.899   1.436  18.904  0.00  0.00     0.075 H 
BRANCH  16  19
ATOM     19  N1  SPM d          -6.211   0.180  17.871  0.00  0.00    -0.079 N 
ATOM     20  H1  SPM d          -5.607  -0.598  17.655  0.00  0.00     0.274 HD
ATOM     21  H2  SPM d          -6.910   0.273  17.150  0.00  0.00     0.274 HD
ATOM     22  H3  SPM d          -6.663   0.019  18.757  0.00  0.00     0.274 HD
ENDBRANCH  16  19
ENDBRANCH  13  16
ENDBRANCH  10  13
ENDBRANCH   7  10
ENDBRANCH   4   7
ENDBRANCH   1   4
BRANCH   1  23
ATOM     23  C8  SPM d          -3.924   3.994  13.636  0.00  0.00    -0.041 C 
ATOM     24  H16 SPM d          -4.481   4.935  13.749  0.00  0.00     0.035 H 
ATOM     25  H17 SPM d          -4.449   3.341  12.923  0.00  0.00     0.035 H 
BRANCH  23  26
ATOM     26  C9  SPM d          -2.528   4.273  13.152  0.00  0.00     0.082 C 
ATOM     27  H18 SPM d          -2.079   3.340  12.781  0.00  0.00     0.075 H 
ATOM     28  H19 SPM d          -1.925   4.664  13.985  0.00  0.00     0.075 H 
BRANCH  26  29
ATOM     29  N10 SPM d          -2.555   5.246  12.086  0.00  0.00    -0.075 N 
ATOM     30  H20 SPM d          -3.467   5.165  11.664  0.00  0.00     0.277 HD
ATOM     31  H21 SPM d          -1.852   4.950  11.427  0.00  0.00     0.277 HD
BRANCH  29  32
ATOM     32  C11 SPM d          -2.339   6.648  12.282  0.00  0.00     0.083 C 
ATOM     33  H22 SPM d          -2.095   7.118  11.318  0.00  0.00     0.075 H 
ATOM     34  H23 SPM d          -1.504   6.794  12.984  0.00  0.00     0.075 H 
BRANCH  32  35
ATOM     35  C12 SPM d          -3.590   7.287  12.849  0.00  0.00    -0.020 C 
ATOM     36  H24 SPM d          -3.401   8.360  13.002  0.00  0.00     0.037 H 
ATOM     37  H25 SPM d          -3.821   6.814  13.816  0.00  0.00     0.037 H 
BRANCH  35  38
ATOM     38  C13 SPM d          -4.796   7.129  11.926  0.00  0.00     0.081 C 
ATOM     39  H26 SPM d          -4.613   6.292  11.236  0.00  0.00     0.075 H 
ATOM     40  H27 SPM d          -4.931   8.056  11.350  0.00  0.00     0.075 H 
BRANCH  38  41
ATOM     41  N14 SPM d          -6.003   6.862  12.682  0.00  0.00    -0.079 N 
ATOM     42  H28 SPM d          -5.928   7.286  13.593  0.00  0.00     0.274 HD
ATOM     43  H29 SPM d          -6.124   5.867  12.783  0.00  0.00     0.274 HD
ATOM     44  H30 SPM d          -6.796   7.249  12.194  0.00  0.00     0.274 HD
ENDBRANCH  38  41
ENDBRANCH  35  38
ENDBRANCH  32  35
ENDBRANCH  29  32
ENDBRANCH  26  29
ENDBRANCH  23  26
ENDBRANCH   1  23
TORSDOF 13
ENDMDL
MODEL 9
REMARK VINA RESULT:      -2.2      1.728      5.885
REMARK  13 active torsions:
REMARK  status: ('A' for Active; 'I' for Inactive)
REMARK    1  A    between atoms: N1_1  and  C2_2 
REMARK    2  A    between atoms: C2_2  and  C3_3 
REMARK    3  A    between atoms: C3_3  and  C4_4 
REMARK    4  A    between atoms: C4_4  and  N5_5 
REMARK    5  A    between atoms: N5_5  and  C6_6 
REMARK    6  A    between atoms: C6_6  and  C7_7 
REMARK    7  A    between atoms: C7_7  and  C8_8 
REMARK    8  A    between atoms: C8_8  and  C9_9 
REMARK    9  A    between atoms: C9_9  and  N10_10 
REMARK   10  A    between atoms: N10_10  and  C11_11 
REMARK   11  A    between atoms: C11_11  and  C12_12 
REMARK   12  A    between atoms: C12_12  and  C13_13 
REMARK   13  A    between atoms: C13_13  and  N14_14 
ROOT
ATOM      1  C7  SPM d          -5.686   3.323  13.812  0.00  0.00    -0.041 C 
ATOM      2  H14 SPM d          -6.515   3.575  13.135  0.00  0.00     0.035 H 
ATOM      3  H15 SPM d          -5.562   2.230  13.847  0.00  0.00     0.035 H 
ENDROOT
BRANCH   1   4
ATOM      4  C6  SPM d          -5.932   3.883  15.197  0.00  0.00     0.082 C 
ATOM      5  H12 SPM d          -5.560   4.918  15.218  0.00  0.00     0.075 H 
ATOM      6  H13 SPM d          -7.016   3.880  15.379  0.00  0.00     0.075 H 
BRANCH   4   7
ATOM      7  N5  SPM d          -5.291   3.150  16.275  0.00  0.00    -0.075 N 
ATOM      8  H10 SPM d          -4.368   3.538  16.396  0.00  0.00     0.277 HD
ATOM      9  H11 SPM d          -5.833   3.308  17.110  0.00  0.00     0.277 HD
BRANCH   7  10
ATOM     10  C4  SPM d          -5.140   1.721  16.124  0.00  0.00     0.083 C 
ATOM     11  H8  SPM d          -5.800   1.392  15.307  0.00  0.00     0.075 H 
ATOM     12  H9  SPM d          -4.094   1.515  15.855  0.00  0.00     0.075 H 
BRANCH  10  13
ATOM     13  C3  SPM d          -5.483   0.904  17.373  0.00  0.00    -0.020 C 
ATOM     14  H6  SPM d          -5.588  -0.153  17.090  0.00  0.00     0.037 H 
ATOM     15  H7  SPM d          -4.665   1.008  18.102  0.00  0.00     0.037 H 
BRANCH  13  16
ATOM     16  C2  SPM d          -6.772   1.371  18.012  0.00  0.00     0.081 C 
ATOM     17  H4  SPM d          -7.001   0.750  18.891  0.00  0.00     0.075 H 
ATOM     18  H5  SPM d          -6.676   2.422  18.322  0.00  0.00     0.075 H 
BRANCH  16  19
ATOM     19  N1  SPM d          -7.823   1.243  17.033  0.00  0.00    -0.079 N 
ATOM     20  H1  SPM d          -7.639   1.863  16.260  0.00  0.00     0.274 HD
ATOM     21  H2  SPM d          -8.706   1.483  17.455  0.00  0.00     0.274 HD
ATOM     22  H3  SPM d          -7.857   0.292  16.701  0.00  0.00     0.274 HD
ENDBRANCH  16  19
ENDBRANCH  13  16
ENDBRANCH  10  13
ENDBRANCH   7  10
ENDBRANCH   4   7
ENDBRANCH   1   4
BRANCH   1  23
ATOM     23  C8  SPM d          -4.401   3.998  13.368  0.00  0.00    -0.041 C 
ATOM     24  H16 SPM d          -3.963   4.563  14.203  0.00  0.00     0.035 H 
ATOM     25  H17 SPM d          -4.602   4.682  12.529  0.00  0.00     0.035 H 
BRANCH  23  26
ATOM     26  C9  SPM d          -3.463   2.907  12.931  0.00  0.00     0.082 C 
ATOM     27  H18 SPM d          -4.046   2.068  12.523  0.00  0.00     0.075 H 
ATOM     28  H19 SPM d          -2.880   2.561  13.798  0.00  0.00     0.075 H 
BRANCH  26  29
ATOM     29  N10 SPM d          -2.561   3.399  11.917  0.00  0.00    -0.075 N 
ATOM     30  H20 SPM d          -3.067   4.122  11.429  0.00  0.00     0.277 HD
ATOM     31  H21 SPM d          -2.399   2.624  11.295  0.00  0.00     0.277 HD
BRANCH  29  32
ATOM     32  C11 SPM d          -1.270   3.950  12.199  0.00  0.00     0.083 C 
ATOM     33  H22 SPM d          -0.845   4.374  11.277  0.00  0.00     0.075 H 
ATOM     34  H23 SPM d          -0.609   3.155  12.576  0.00  0.00     0.075 H 
BRANCH  32  35
ATOM     35  C12 SPM d          -1.392   5.041  13.244  0.00  0.00    -0.020 C 
ATOM     36  H24 SPM d          -0.623   4.879  14.014  0.00  0.00     0.037 H 
ATOM     37  H25 SPM d          -2.390   4.980  13.702  0.00  0.00     0.037 H 
BRANCH  35  38
ATOM     38  C13 SPM d          -1.208   6.437  12.654  0.00  0.00     0.081 C 
ATOM     39  H26 SPM d          -0.413   6.404  11.894  0.00  0.00     0.075 H 
ATOM     40  H27 SPM d          -0.917   7.131  13.457  0.00  0.00     0.075 H 
BRANCH  38  41
ATOM     41  N14 SPM d          -2.430   6.911  12.039  0.00  0.00    -0.079 N 
ATOM     42  H28 SPM d          -3.211   6.383  12.394  0.00  0.00     0.274 HD
ATOM     43  H29 SPM d          -2.372   6.792  11.039  0.00  0.00     0.274 HD
ATOM     44  H30 SPM d          -2.558   7.887  12.253  0.00  0.00     0.274 HD
ENDBRANCH  38  41
ENDBRANCH  35  38
ENDBRANCH  32  35
ENDBRANCH  29  32
ENDBRANCH  26  29
ENDBRANCH  23  26
ENDBRANCH   1  23
TORSDOF 13
ENDMDL
MODEL 10
REMARK VINA RESULT:      -1.9      1.548      5.843
REMARK  13 active torsions:
REMARK  status: ('A' for Active; 'I' for Inactive)
REMARK    1  A    between atoms: N1_1  and  C2_2 
REMARK    2  A    between atoms: C2_2  and  C3_3 
REMARK    3  A    between atoms: C3_3  and  C4_4 
REMARK    4  A    between atoms: C4_4  and  N5_5 
REMARK    5  A    between atoms: N5_5  and  C6_6 
REMARK    6  A    between atoms: C6_6  and  C7_7 
REMARK    7  A    between atoms: C7_7  and  C8_8 
REMARK    8  A    between atoms: C8_8  and  C9_9 
REMARK    9  A    between atoms: C9_9  and  N10_10 
REMARK   10  A    between atoms: N10_10  and  C11_11 
REMARK   11  A    between atoms: C11_11  and  C12_12 
REMARK   12  A    between atoms: C12_12  and  C13_13 
REMARK   13  A    between atoms: C13_13  and  N14_14 
ROOT
ATOM      1  C7  SPM d          -4.730   3.195  13.116  0.00  0.00    -0.041 C 
ATOM      2  H14 SPM d          -4.535   3.742  14.050  0.00  0.00     0.035 H 
ATOM      3  H15 SPM d          -5.757   3.399  12.779  0.00  0.00     0.035 H 
ENDROOT
BRANCH   1   4
ATOM      4  C6  SPM d          -4.511   1.709  13.308  0.00  0.00     0.082 C 
ATOM      5  H12 SPM d          -5.481   1.202  13.186  0.00  0.00     0.075 H 
ATOM      6  H13 SPM d          -3.817   1.362  12.528  0.00  0.00     0.075 H 
BRANCH   4   7
ATOM      7  N5  SPM d          -3.964   1.333  14.600  0.00  0.00    -0.075 N 
ATOM      8  H10 SPM d          -4.056   0.332  14.686  0.00  0.00     0.277 HD
ATOM      9  H11 SPM d          -2.987   1.581  14.596  0.00  0.00     0.277 HD
BRANCH   7  10
ATOM     10  C4  SPM d          -4.554   1.921  15.780  0.00  0.00     0.083 C 
ATOM     11  H8  SPM d          -3.760   2.052  16.530  0.00  0.00     0.075 H 
ATOM     12  H9  SPM d          -4.964   2.904  15.503  0.00  0.00     0.075 H 
BRANCH  10  13
ATOM     13  C3  SPM d          -5.679   1.097  16.414  0.00  0.00    -0.020 C 
ATOM     14  H6  SPM d          -6.453   0.907  15.656  0.00  0.00     0.037 H 
ATOM     15  H7  SPM d          -5.265   0.139  16.763  0.00  0.00     0.037 H 
BRANCH  13  16
ATOM     16  C2  SPM d          -6.307   1.817  17.587  0.00  0.00     0.081 C 
ATOM     17  H4  SPM d          -5.571   2.487  18.053  0.00  0.00     0.075 H 
ATOM     18  H5  SPM d          -7.172   2.404  17.245  0.00  0.00     0.075 H 
BRANCH  16  19
ATOM     19  N1  SPM d          -6.736   0.822  18.539  0.00  0.00    -0.079 N 
ATOM     20  H1  SPM d          -6.330  -0.070  18.299  0.00  0.00     0.274 HD
ATOM     21  H2  SPM d          -7.741   0.749  18.520  0.00  0.00     0.274 HD
ATOM     22  H3  SPM d          -6.436   1.090  19.463  0.00  0.00     0.274 HD
ENDBRANCH  16  19
ENDBRANCH  13  16
ENDBRANCH  10  13
ENDBRANCH   7  10
ENDBRANCH   4   7
ENDBRANCH   1   4
BRANCH   1  23
ATOM     23  C8  SPM d          -3.724   3.576  12.046  0.00  0.00    -0.041 C 
ATOM     24  H16 SPM d          -4.114   3.318  11.051  0.00  0.00     0.035 H 
ATOM     25  H17 SPM d          -2.772   3.050  12.214  0.00  0.00     0.035 H 
BRANCH  23  26
ATOM     26  C9  SPM d          -3.518   5.062  12.151  0.00  0.00     0.082 C 
ATOM     27  H18 SPM d          -3.691   5.523  11.167  0.00  0.00     0.075 H 
ATOM     28  H19 SPM d          -2.485   5.264  12.474  0.00  0.00     0.075 H 
BRANCH  26  29
ATOM     29  N10 SPM d          -4.437   5.627  13.110  0.00  0.00    -0.075 N 
ATOM     30  H20 SPM d          -5.190   4.962  13.192  0.00  0.00     0.277 HD
ATOM     31  H21 SPM d          -4.781   6.476  12.692  0.00  0.00     0.277 HD
BRANCH  29  32
ATOM     32  C11 SPM d          -4.074   5.972  14.452  0.00  0.00     0.083 C 
ATOM     33  H22 SPM d          -4.513   5.242  15.147  0.00  0.00     0.075 H 
ATOM     34  H23 SPM d          -4.456   6.977  14.686  0.00  0.00     0.075 H 
BRANCH  32  35
ATOM     35  C12 SPM d          -2.566   5.960  14.598  0.00  0.00    -0.020 C 
ATOM     36  H24 SPM d          -2.170   5.065  14.095  0.00  0.00     0.037 H 
ATOM     37  H25 SPM d          -2.316   5.920  15.668  0.00  0.00     0.037 H 
BRANCH  35  38
ATOM     38  C13 SPM d          -1.911   7.196  13.986  0.00  0.00     0.081 C 
ATOM     39  H26 SPM d          -1.354   7.731  14.769  0.00  0.00     0.075 H 
ATOM     40  H27 SPM d          -2.695   7.853  13.580  0.00  0.00     0.075 H 
BRANCH  38  41
ATOM     41  N14 SPM d          -0.999   6.833  12.922  0.00  0.00    -0.079 N 
ATOM     42  H28 SPM d          -1.341   7.199  12.047  0.00  0.00     0.274 HD
ATOM     43  H29 SPM d          -0.932   5.829  12.863  0.00  0.00     0.274 HD
ATOM     44  H30 SPM d          -0.088   7.219  13.114  0.00  0.00     0.274 HD
ENDBRANCH  38  41
ENDBRANCH  35  38
ENDBRANCH  32  35
ENDBRANCH  29  32
ENDBRANCH  26  29
ENDBRANCH  23  26
ENDBRANCH   1  23
TORSDOF 13
ENDMDL
