MODEL 1
REMARK VINA RESULT:     -10.0      0.000      0.000
REMARK  11 active torsions:
REMARK  status: ('A' for Active; 'I' for Inactive)
REMARK    1  A    between atoms: CAA_1  and  CAP_2 
REMARK    2  A    between atoms: CAP_2  and  CAQ_3 
REMARK    3  A    between atoms: CAQ_3  and  CAS_4 
REMARK    4  A    between atoms: CAS_4  and  CAV_5 
REMARK    5  A    between atoms: CAX_10  and  CAY_11 
REMARK    6  A    between atoms: CAW_16  and  CAT_17 
REMARK    7  A    between atoms: CAT_17  and  CAR_18 
REMARK    8  A    between atoms: CAR_18  and  CAU_19 
REMARK    9  A    between atoms: CAU_19  and  CAZ_20 
REMARK   10  A    between atoms: CAZ_20  and  PBA_21 
REMARK   11  A    between atoms: CAZ_20  and  SBB_25 
ROOT
ATOM      1  CAY B69 d          14.245  56.750  37.773  0.00  0.00    -0.026 A 
ATOM      2  CAO B69 d          15.000  56.229  38.819  0.00  0.00    -0.072 A 
ATOM      3  CAK B69 d          15.892  55.187  38.578  0.00  0.00    -0.076 A 
ATOM      4  CAN B69 d          14.370  56.212  36.498  0.00  0.00    -0.072 A 
ATOM      5  CAJ B69 d          15.263  55.172  36.257  0.00  0.00    -0.076 A 
ATOM      6  CAW B69 d          16.030  54.662  37.299  0.00  0.00    -0.058 A 
ATOM      7  H14 B69 d          14.895  56.634  39.819  0.00  0.00     0.084 H 
ATOM      8  H15 B69 d          16.481  54.783  39.393  0.00  0.00     0.084 H 
ATOM      9  H16 B69 d          13.769  56.605  35.686  0.00  0.00     0.084 H 
ATOM     10  H17 B69 d          15.361  54.760  35.259  0.00  0.00     0.084 H 
ENDROOT
BRANCH   1  11
ATOM     11  CAX B69 d          13.459  57.878  37.979  0.00  0.00    -0.026 A 
ATOM     12  CAM B69 d          12.473  58.249  37.071  0.00  0.00    -0.072 A 
ATOM     13  CAI B69 d          11.761  59.428  37.258  0.00  0.00    -0.076 A 
ATOM     14  H11 B69 d          12.260  57.618  36.216  0.00  0.00     0.084 H 
ATOM     15  CAV B69 d          12.018  60.240  38.359  0.00  0.00    -0.058 A 
ATOM     16  H10 B69 d          11.001  59.717  36.541  0.00  0.00     0.084 H 
ATOM     17  CAH B69 d          13.013  59.876  39.257  0.00  0.00    -0.076 A 
ATOM     18  CAL B69 d          13.726  58.698  39.070  0.00  0.00    -0.072 A 
ATOM     19  H12 B69 d          13.234  60.513  40.106  0.00  0.00     0.084 H 
ATOM     20  H13 B69 d          14.497  58.417  39.778  0.00  0.00     0.084 H 
BRANCH  15  21
ATOM     21  CAS B69 d          11.047  61.362  38.735  0.00  0.00    -0.041 C 
ATOM     22  H8  B69 d          10.694  61.173  39.759  0.00  0.00     0.040 H 
ATOM     23  H9  B69 d          11.603  62.311  38.708  0.00  0.00     0.040 H 
BRANCH  21  24
ATOM     24  CAQ B69 d           9.816  61.515  37.838  0.00  0.00    -0.062 C 
ATOM     25  H6  B69 d           9.678  62.573  37.571  0.00  0.00     0.033 H 
ATOM     26  H7  B69 d           9.946  60.919  36.922  0.00  0.00     0.033 H 
BRANCH  24  27
ATOM     27  CAP B69 d           8.597  61.013  38.618  0.00  0.00    -0.068 C 
ATOM     28  H4  B69 d           8.757  61.208  39.689  0.00  0.00     0.032 H 
ATOM     29  H5  B69 d           7.707  61.559  38.276  0.00  0.00     0.032 H 
BRANCH  27  30
ATOM     30  CAA B69 d           8.367  59.515  38.417  0.00  0.00    -0.077 C 
ATOM     31  H1  B69 d           7.364  59.351  37.996  0.00  0.00     0.027 H 
ATOM     32  H2  B69 d           8.447  58.998  39.385  0.00  0.00     0.027 H 
ATOM     33  H3  B69 d           9.124  59.117  37.725  0.00  0.00     0.027 H 
ENDBRANCH  27  30
ENDBRANCH  24  27
ENDBRANCH  21  24
ENDBRANCH  15  21
ENDBRANCH   1  11
BRANCH   6  34
ATOM     34  CAT B69 d          17.052  53.548  37.045  0.00  0.00    -0.041 C 
ATOM     35  H18 B69 d          17.923  53.974  36.525  0.00  0.00     0.040 H 
ATOM     36  H19 B69 d          16.589  52.776  36.413  0.00  0.00     0.040 H 
BRANCH  34  37
ATOM     37  CAR B69 d          17.518  52.907  38.353  0.00  0.00    -0.059 C 
ATOM     38  H20 B69 d          16.787  52.145  38.660  0.00  0.00     0.033 H 
ATOM     39  H21 B69 d          17.587  53.683  39.129  0.00  0.00     0.033 H 
BRANCH  37  40
ATOM     40  CAU B69 d          18.888  52.245  38.184  0.00  0.00    -0.034 C 
ATOM     41  H22 B69 d          18.753  51.154  38.194  0.00  0.00     0.036 H 
ATOM     42  H23 B69 d          19.528  52.544  39.027  0.00  0.00     0.036 H 
BRANCH  40  43
ATOM     43  CAZ B69 d          19.583  52.638  36.880  0.00  0.00     0.169 C 
ATOM     44  H24 B69 d          18.835  53.040  36.181  0.00  0.00     0.090 H 
BRANCH  43  45
ATOM     45  PBA B69 d          20.393  51.177  36.110  0.00  0.00     0.281 P 
ATOM     46  OAC B69 d          21.260  50.447  37.254  0.00  0.00    -0.639 OA
ATOM     47  OAD B69 d          19.204  50.168  35.711  0.00  0.00    -0.639 OA
ATOM     48  OAB B69 d          21.231  51.568  34.954  0.00  0.00    -0.639 OA
ENDBRANCH  43  45
BRANCH  43  49
ATOM     49  SBB B69 d          20.828  53.932  37.236  0.00  0.00     0.119 S 
ATOM     50  OAG B69 d          22.104  53.315  37.429  0.00  0.00    -0.594 OA
ATOM     51  OAF B69 d          20.432  54.674  38.477  0.00  0.00    -0.594 OA
ATOM     52  OAE B69 d          20.890  54.888  36.080  0.00  0.00    -0.594 OA
ENDBRANCH  43  49
ENDBRANCH  40  43
ENDBRANCH  37  40
ENDBRANCH  34  37
ENDBRANCH   6  34
TORSDOF 11
ENDMDL
MODEL 2
REMARK VINA RESULT:      -9.8      0.965      2.451
REMARK  11 active torsions:
REMARK  status: ('A' for Active; 'I' for Inactive)
REMARK    1  A    between atoms: CAA_1  and  CAP_2 
REMARK    2  A    between atoms: CAP_2  and  CAQ_3 
REMARK    3  A    between atoms: CAQ_3  and  CAS_4 
REMARK    4  A    between atoms: CAS_4  and  CAV_5 
REMARK    5  A    between atoms: CAX_10  and  CAY_11 
REMARK    6  A    between atoms: CAW_16  and  CAT_17 
REMARK    7  A    between atoms: CAT_17  and  CAR_18 
REMARK    8  A    between atoms: CAR_18  and  CAU_19 
REMARK    9  A    between atoms: CAU_19  and  CAZ_20 
REMARK   10  A    between atoms: CAZ_20  and  PBA_21 
REMARK   11  A    between atoms: CAZ_20  and  SBB_25 
ROOT
ATOM      1  CAY B69 d          14.601  56.777  38.098  0.00  0.00    -0.026 A 
ATOM      2  CAO B69 d          14.775  56.097  36.897  0.00  0.00    -0.072 A 
ATOM      3  CAK B69 d          15.528  54.927  36.866  0.00  0.00    -0.076 A 
ATOM      4  CAN B69 d          15.197  56.294  39.256  0.00  0.00    -0.072 A 
ATOM      5  CAJ B69 d          15.948  55.123  39.226  0.00  0.00    -0.076 A 
ATOM      6  CAW B69 d          16.110  54.435  38.028  0.00  0.00    -0.058 A 
ATOM      7  H14 B69 d          14.326  56.478  35.987  0.00  0.00     0.084 H 
ATOM      8  H15 B69 d          15.662  54.397  35.930  0.00  0.00     0.084 H 
ATOM      9  H16 B69 d          15.077  56.833  40.189  0.00  0.00     0.084 H 
ATOM     10  H17 B69 d          16.407  54.747  40.134  0.00  0.00     0.084 H 
ENDROOT
BRANCH   1  11
ATOM     11  CAX B69 d          13.738  57.866  38.160  0.00  0.00    -0.026 A 
ATOM     12  CAM B69 d          12.784  58.090  37.173  0.00  0.00    -0.072 A 
ATOM     13  CAI B69 d          11.994  59.234  37.215  0.00  0.00    -0.076 A 
ATOM     14  H11 B69 d          12.657  57.373  36.371  0.00  0.00     0.084 H 
ATOM     15  CAV B69 d          12.141  60.155  38.247  0.00  0.00    -0.058 A 
ATOM     16  H10 B69 d          11.259  59.408  36.437  0.00  0.00     0.084 H 
ATOM     17  CAH B69 d          13.104  59.938  39.224  0.00  0.00    -0.076 A 
ATOM     18  CAL B69 d          13.896  58.796  39.182  0.00  0.00    -0.072 A 
ATOM     19  H12 B69 d          13.239  60.660  40.020  0.00  0.00     0.084 H 
ATOM     20  H13 B69 d          14.642  58.629  39.951  0.00  0.00     0.084 H 
BRANCH  15  21
ATOM     21  CAS B69 d          11.085  61.242  38.469  0.00  0.00    -0.041 C 
ATOM     22  H8  B69 d          10.720  61.150  39.502  0.00  0.00     0.040 H 
ATOM     23  H9  B69 d          11.575  62.218  38.339  0.00  0.00     0.040 H 
BRANCH  21  24
ATOM     24  CAQ B69 d           9.872  61.200  37.538  0.00  0.00    -0.062 C 
ATOM     25  H6  B69 d           9.711  62.191  37.089  0.00  0.00     0.033 H 
ATOM     26  H7  B69 d          10.037  60.458  36.742  0.00  0.00     0.033 H 
BRANCH  24  27
ATOM     27  CAP B69 d           8.649  60.804  38.373  0.00  0.00    -0.068 C 
ATOM     28  H4  B69 d           8.744  61.249  39.374  0.00  0.00     0.032 H 
ATOM     29  H5  B69 d           7.744  61.192  37.884  0.00  0.00     0.032 H 
BRANCH  27  30
ATOM     30  CAA B69 d           8.522  59.287  38.516  0.00  0.00    -0.077 C 
ATOM     31  H1  B69 d           7.786  59.053  39.300  0.00  0.00     0.027 H 
ATOM     32  H2  B69 d           9.498  58.861  38.790  0.00  0.00     0.027 H 
ATOM     33  H3  B69 d           8.189  58.855  37.561  0.00  0.00     0.027 H 
ENDBRANCH  27  30
ENDBRANCH  24  27
ENDBRANCH  21  24
ENDBRANCH  15  21
ENDBRANCH   1  11
BRANCH   6  34
ATOM     34  CAT B69 d          16.894  53.118  37.983  0.00  0.00    -0.041 C 
ATOM     35  H18 B69 d          16.374  52.371  38.600  0.00  0.00     0.040 H 
ATOM     36  H19 B69 d          17.903  53.290  38.385  0.00  0.00     0.040 H 
BRANCH  34  37
ATOM     37  CAR B69 d          17.013  52.586  36.554  0.00  0.00    -0.059 C 
ATOM     38  H20 B69 d          16.252  53.071  35.925  0.00  0.00     0.033 H 
ATOM     39  H21 B69 d          16.845  51.499  36.560  0.00  0.00     0.033 H 
BRANCH  37  40
ATOM     40  CAU B69 d          18.399  52.874  35.973  0.00  0.00    -0.034 C 
ATOM     41  H22 B69 d          18.504  53.961  35.840  0.00  0.00     0.036 H 
ATOM     42  H23 B69 d          18.481  52.375  34.995  0.00  0.00     0.036 H 
BRANCH  40  43
ATOM     43  CAZ B69 d          19.535  52.381  36.868  0.00  0.00     0.169 C 
ATOM     44  H24 B69 d          19.110  51.975  37.799  0.00  0.00     0.090 H 
BRANCH  43  45
ATOM     45  PBA B69 d          20.676  53.760  37.289  0.00  0.00     0.281 P 
ATOM     46  OAC B69 d          20.698  54.769  36.033  0.00  0.00    -0.639 OA
ATOM     47  OAD B69 d          19.988  54.551  38.510  0.00  0.00    -0.639 OA
ATOM     48  OAB B69 d          22.033  53.264  37.614  0.00  0.00    -0.639 OA
ENDBRANCH  43  45
BRANCH  43  49
ATOM     49  SBB B69 d          20.448  51.055  35.996  0.00  0.00     0.119 S 
ATOM     50  OAG B69 d          19.512  50.184  35.356  0.00  0.00    -0.594 OA
ATOM     51  OAF B69 d          21.264  50.280  36.987  0.00  0.00    -0.594 OA
ATOM     52  OAE B69 d          21.357  51.673  34.974  0.00  0.00    -0.594 OA
ENDBRANCH  43  49
ENDBRANCH  40  43
ENDBRANCH  37  40
ENDBRANCH  34  37
ENDBRANCH   6  34
TORSDOF 11
ENDMDL
MODEL 3
REMARK VINA RESULT:      -9.7      0.632      1.862
REMARK  11 active torsions:
REMARK  status: ('A' for Active; 'I' for Inactive)
REMARK    1  A    between atoms: CAA_1  and  CAP_2 
REMARK    2  A    between atoms: CAP_2  and  CAQ_3 
REMARK    3  A    between atoms: CAQ_3  and  CAS_4 
REMARK    4  A    between atoms: CAS_4  and  CAV_5 
REMARK    5  A    between atoms: CAX_10  and  CAY_11 
REMARK    6  A    between atoms: CAW_16  and  CAT_17 
REMARK    7  A    between atoms: CAT_17  and  CAR_18 
REMARK    8  A    between atoms: CAR_18  and  CAU_19 
REMARK    9  A    between atoms: CAU_19  and  CAZ_20 
REMARK   10  A    between atoms: CAZ_20  and  PBA_21 
REMARK   11  A    between atoms: CAZ_20  and  SBB_25 
ROOT
ATOM      1  CAY B69 d          14.923  56.355  37.790  0.00  0.00    -0.026 A 
ATOM      2  CAO B69 d          15.057  55.843  36.503  0.00  0.00    -0.072 A 
ATOM      3  CAK B69 d          15.698  54.624  36.305  0.00  0.00    -0.076 A 
ATOM      4  CAN B69 d          15.450  55.654  38.868  0.00  0.00    -0.072 A 
ATOM      5  CAJ B69 d          16.089  54.434  38.671  0.00  0.00    -0.076 A 
ATOM      6  CAW B69 d          16.209  53.915  37.386  0.00  0.00    -0.058 A 
ATOM      7  H14 B69 d          14.662  56.394  35.656  0.00  0.00     0.084 H 
ATOM      8  H15 B69 d          15.800  54.225  35.302  0.00  0.00     0.084 H 
ATOM      9  H16 B69 d          15.362  56.061  39.869  0.00  0.00     0.084 H 
ATOM     10  H17 B69 d          16.493  53.889  39.516  0.00  0.00     0.084 H 
ENDROOT
BRANCH   1  11
ATOM     11  CAX B69 d          14.165  57.500  38.007  0.00  0.00    -0.026 A 
ATOM     12  CAM B69 d          14.393  58.322  39.106  0.00  0.00    -0.072 A 
ATOM     13  CAI B69 d          13.564  59.412  39.345  0.00  0.00    -0.076 A 
ATOM     14  H11 B69 d          15.218  58.112  39.777  0.00  0.00     0.084 H 
ATOM     15  CAV B69 d          12.509  59.698  38.483  0.00  0.00    -0.058 A 
ATOM     16  H10 B69 d          13.740  60.043  40.208  0.00  0.00     0.084 H 
ATOM     17  CAH B69 d          12.273  58.868  37.395  0.00  0.00    -0.076 A 
ATOM     18  CAL B69 d          13.100  57.777  37.156  0.00  0.00    -0.072 A 
ATOM     19  H12 B69 d          11.441  59.071  36.730  0.00  0.00     0.084 H 
ATOM     20  H13 B69 d          12.915  57.137  36.301  0.00  0.00     0.084 H 
BRANCH  15  21
ATOM     21  CAS B69 d          11.792  61.048  38.561  0.00  0.00    -0.041 C 
ATOM     22  H8  B69 d          12.485  61.772  39.015  0.00  0.00     0.040 H 
ATOM     23  H9  B69 d          11.554  61.363  37.534  0.00  0.00     0.040 H 
BRANCH  21  24
ATOM     24  CAQ B69 d          10.493  61.073  39.370  0.00  0.00    -0.062 C 
ATOM     25  H6  B69 d          10.467  60.218  40.061  0.00  0.00     0.033 H 
ATOM     26  H7  B69 d          10.429  62.010  39.943  0.00  0.00     0.033 H 
BRANCH  24  27
ATOM     27  CAP B69 d           9.322  60.983  38.386  0.00  0.00    -0.068 C 
ATOM     28  H4  B69 d           8.533  61.678  38.710  0.00  0.00     0.032 H 
ATOM     29  H5  B69 d           9.676  61.271  37.386  0.00  0.00     0.032 H 
BRANCH  27  30
ATOM     30  CAA B69 d           8.741  59.571  38.318  0.00  0.00    -0.077 C 
ATOM     31  H1  B69 d           9.535  58.837  38.524  0.00  0.00     0.027 H 
ATOM     32  H2  B69 d           8.328  59.392  37.313  0.00  0.00     0.027 H 
ATOM     33  H3  B69 d           7.942  59.466  39.066  0.00  0.00     0.027 H 
ENDBRANCH  27  30
ENDBRANCH  24  27
ENDBRANCH  21  24
ENDBRANCH  15  21
ENDBRANCH   1  11
BRANCH   6  34
ATOM     34  CAT B69 d          16.867  52.551  37.153  0.00  0.00    -0.041 C 
ATOM     35  H18 B69 d          17.660  52.661  36.398  0.00  0.00     0.040 H 
ATOM     36  H19 B69 d          16.107  51.845  36.786  0.00  0.00     0.040 H 
BRANCH  34  37
ATOM     37  CAR B69 d          17.480  51.997  38.440  0.00  0.00    -0.059 C 
ATOM     38  H20 B69 d          17.242  50.926  38.519  0.00  0.00     0.033 H 
ATOM     39  H21 B69 d          17.052  52.532  39.301  0.00  0.00     0.033 H 
BRANCH  37  40
ATOM     40  CAU B69 d          19.000  52.172  38.446  0.00  0.00    -0.034 C 
ATOM     41  H22 B69 d          19.462  51.223  38.755  0.00  0.00     0.036 H 
ATOM     42  H23 B69 d          19.260  52.959  39.171  0.00  0.00     0.036 H 
BRANCH  40  43
ATOM     43  CAZ B69 d          19.561  52.565  37.079  0.00  0.00     0.169 C 
ATOM     44  H24 B69 d          18.734  52.896  36.433  0.00  0.00     0.090 H 
BRANCH  43  45
ATOM     45  PBA B69 d          20.397  51.132  36.285  0.00  0.00     0.281 P 
ATOM     46  OAC B69 d          19.248  50.149  35.730  0.00  0.00    -0.639 OA
ATOM     47  OAD B69 d          21.167  51.721  35.001  0.00  0.00    -0.639 OA
ATOM     48  OAB B69 d          21.300  50.437  37.231  0.00  0.00    -0.639 OA
ENDBRANCH  43  45
BRANCH  43  49
ATOM     49  SBB B69 d          20.745  53.943  37.295  0.00  0.00     0.119 S 
ATOM     50  OAG B69 d          20.343  54.737  38.414  0.00  0.00    -0.594 OA
ATOM     51  OAF B69 d          20.758  54.786  36.055  0.00  0.00    -0.594 OA
ATOM     52  OAE B69 d          22.118  53.381  37.530  0.00  0.00    -0.594 OA
ENDBRANCH  43  49
ENDBRANCH  40  43
ENDBRANCH  37  40
ENDBRANCH  34  37
ENDBRANCH   6  34
TORSDOF 11
ENDMDL
MODEL 4
REMARK VINA RESULT:      -9.4      1.419      2.907
REMARK  11 active torsions:
REMARK  status: ('A' for Active; 'I' for Inactive)
REMARK    1  A    between atoms: CAA_1  and  CAP_2 
REMARK    2  A    between atoms: CAP_2  and  CAQ_3 
REMARK    3  A    between atoms: CAQ_3  and  CAS_4 
REMARK    4  A    between atoms: CAS_4  and  CAV_5 
REMARK    5  A    between atoms: CAX_10  and  CAY_11 
REMARK    6  A    between atoms: CAW_16  and  CAT_17 
REMARK    7  A    between atoms: CAT_17  and  CAR_18 
REMARK    8  A    between atoms: CAR_18  and  CAU_19 
REMARK    9  A    between atoms: CAU_19  and  CAZ_20 
REMARK   10  A    between atoms: CAZ_20  and  PBA_21 
REMARK   11  A    between atoms: CAZ_20  and  SBB_25 
ROOT
ATOM      1  CAY B69 d          15.207  55.631  37.865  0.00  0.00    -0.026 A 
ATOM      2  CAO B69 d          15.380  55.185  36.559  0.00  0.00    -0.072 A 
ATOM      3  CAK B69 d          15.888  53.910  36.324  0.00  0.00    -0.076 A 
ATOM      4  CAN B69 d          15.563  54.809  38.927  0.00  0.00    -0.072 A 
ATOM      5  CAJ B69 d          16.068  53.535  38.692  0.00  0.00    -0.076 A 
ATOM      6  CAW B69 d          16.226  53.082  37.387  0.00  0.00    -0.058 A 
ATOM      7  H14 B69 d          15.120  55.828  35.726  0.00  0.00     0.084 H 
ATOM      8  H15 B69 d          16.021  53.562  35.306  0.00  0.00     0.084 H 
ATOM      9  H16 B69 d          15.445  55.163  39.945  0.00  0.00     0.084 H 
ATOM     10  H17 B69 d          16.338  52.895  39.525  0.00  0.00     0.084 H 
ENDROOT
BRANCH   1  11
ATOM     11  CAX B69 d          14.573  56.846  38.105  0.00  0.00    -0.026 A 
ATOM     12  CAM B69 d          14.946  57.658  39.171  0.00  0.00    -0.072 A 
ATOM     13  CAI B69 d          14.238  58.824  39.439  0.00  0.00    -0.076 A 
ATOM     14  H11 B69 d          15.789  57.382  39.793  0.00  0.00     0.084 H 
ATOM     15  CAV B69 d          13.162  59.195  38.639  0.00  0.00    -0.058 A 
ATOM     16  H10 B69 d          14.527  59.449  40.277  0.00  0.00     0.084 H 
ATOM     17  CAH B69 d          12.781  58.376  37.585  0.00  0.00    -0.076 A 
ATOM     18  CAL B69 d          13.487  57.208  37.317  0.00  0.00    -0.072 A 
ATOM     19  H12 B69 d          11.930  58.646  36.970  0.00  0.00     0.084 H 
ATOM     20  H13 B69 d          13.188  56.576  36.489  0.00  0.00     0.084 H 
BRANCH  15  21
ATOM     21  CAS B69 d          12.578  60.608  38.735  0.00  0.00    -0.041 C 
ATOM     22  H8  B69 d          13.305  61.236  39.270  0.00  0.00     0.040 H 
ATOM     23  H9  B69 d          12.449  60.988  37.711  0.00  0.00     0.040 H 
BRANCH  21  24
ATOM     24  CAQ B69 d          11.233  60.732  39.453  0.00  0.00    -0.062 C 
ATOM     25  H6  B69 d          10.814  59.732  39.637  0.00  0.00     0.033 H 
ATOM     26  H7  B69 d          11.369  61.256  40.412  0.00  0.00     0.033 H 
BRANCH  24  27
ATOM     27  CAP B69 d          10.288  61.533  38.552  0.00  0.00    -0.068 C 
ATOM     28  H4  B69 d           9.301  61.589  39.032  0.00  0.00     0.032 H 
ATOM     29  H5  B69 d          10.692  62.549  38.427  0.00  0.00     0.032 H 
BRANCH  27  30
ATOM     30  CAA B69 d          10.133  60.891  37.173  0.00  0.00    -0.077 C 
ATOM     31  H1  B69 d           9.069  60.684  36.983  0.00  0.00     0.027 H 
ATOM     32  H2  B69 d          10.701  59.949  37.140  0.00  0.00     0.027 H 
ATOM     33  H3  B69 d          10.515  61.577  36.403  0.00  0.00     0.027 H 
ENDBRANCH  27  30
ENDBRANCH  24  27
ENDBRANCH  21  24
ENDBRANCH  15  21
ENDBRANCH   1  11
BRANCH   6  34
ATOM     34  CAT B69 d          16.737  51.664  37.108  0.00  0.00    -0.041 C 
ATOM     35  H18 B69 d          16.740  51.492  36.021  0.00  0.00     0.040 H 
ATOM     36  H19 B69 d          16.066  50.940  37.593  0.00  0.00     0.040 H 
BRANCH  34  37
ATOM     37  CAR B69 d          18.155  51.463  37.646  0.00  0.00    -0.059 C 
ATOM     38  H20 B69 d          18.317  50.393  37.843  0.00  0.00     0.033 H 
ATOM     39  H21 B69 d          18.268  52.030  38.582  0.00  0.00     0.033 H 
BRANCH  37  40
ATOM     40  CAU B69 d          19.200  51.949  36.639  0.00  0.00    -0.034 C 
ATOM     41  H22 B69 d          18.868  52.913  36.227  0.00  0.00     0.036 H 
ATOM     42  H23 B69 d          19.276  51.209  35.827  0.00  0.00     0.036 H 
BRANCH  40  43
ATOM     43  CAZ B69 d          20.585  52.135  37.259  0.00  0.00     0.169 C 
ATOM     44  H24 B69 d          20.621  51.606  38.223  0.00  0.00     0.090 H 
BRANCH  43  45
ATOM     45  PBA B69 d          20.932  53.918  37.547  0.00  0.00     0.281 P 
ATOM     46  OAC B69 d          20.853  54.662  36.120  0.00  0.00    -0.639 OA
ATOM     47  OAD B69 d          19.708  54.474  38.431  0.00  0.00    -0.639 OA
ATOM     48  OAB B69 d          22.249  54.118  38.194  0.00  0.00    -0.639 OA
ENDBRANCH  43  45
BRANCH  43  49
ATOM     49  SBB B69 d          21.842  51.423  36.135  0.00  0.00     0.119 S 
ATOM     50  OAG B69 d          23.136  51.893  36.520  0.00  0.00    -0.594 OA
ATOM     51  OAF B69 d          21.547  51.848  34.728  0.00  0.00    -0.594 OA
ATOM     52  OAE B69 d          21.791  49.926  36.226  0.00  0.00    -0.594 OA
ENDBRANCH  43  49
ENDBRANCH  40  43
ENDBRANCH  37  40
ENDBRANCH  34  37
ENDBRANCH   6  34
TORSDOF 11
ENDMDL
MODEL 5
REMARK VINA RESULT:      -9.2      1.330      2.148
REMARK  11 active torsions:
REMARK  status: ('A' for Active; 'I' for Inactive)
REMARK    1  A    between atoms: CAA_1  and  CAP_2 
REMARK    2  A    between atoms: CAP_2  and  CAQ_3 
REMARK    3  A    between atoms: CAQ_3  and  CAS_4 
REMARK    4  A    between atoms: CAS_4  and  CAV_5 
REMARK    5  A    between atoms: CAX_10  and  CAY_11 
REMARK    6  A    between atoms: CAW_16  and  CAT_17 
REMARK    7  A    between atoms: CAT_17  and  CAR_18 
REMARK    8  A    between atoms: CAR_18  and  CAU_19 
REMARK    9  A    between atoms: CAU_19  and  CAZ_20 
REMARK   10  A    between atoms: CAZ_20  and  PBA_21 
REMARK   11  A    between atoms: CAZ_20  and  SBB_25 
ROOT
ATOM      1  CAY B69 d          14.597  56.919  38.270  0.00  0.00    -0.026 A 
ATOM      2  CAO B69 d          14.816  56.185  39.433  0.00  0.00    -0.072 A 
ATOM      3  CAK B69 d          15.799  55.200  39.455  0.00  0.00    -0.076 A 
ATOM      4  CAN B69 d          15.348  56.648  37.133  0.00  0.00    -0.072 A 
ATOM      5  CAJ B69 d          16.332  55.664  37.157  0.00  0.00    -0.076 A 
ATOM      6  CAW B69 d          16.562  54.942  38.323  0.00  0.00    -0.058 A 
ATOM      7  H14 B69 d          14.222  56.381  40.318  0.00  0.00     0.084 H 
ATOM      8  H15 B69 d          15.970  54.630  40.362  0.00  0.00     0.084 H 
ATOM      9  H16 B69 d          15.166  57.206  36.222  0.00  0.00     0.084 H 
ATOM     10  H17 B69 d          16.919  55.461  36.268  0.00  0.00     0.084 H 
ENDROOT
BRANCH   1  11
ATOM     11  CAX B69 d          13.715  57.994  38.284  0.00  0.00    -0.026 A 
ATOM     12  CAM B69 d          12.683  58.094  37.357  0.00  0.00    -0.072 A 
ATOM     13  CAI B69 d          11.870  59.222  37.339  0.00  0.00    -0.076 A 
ATOM     14  H11 B69 d          12.512  57.292  36.649  0.00  0.00     0.084 H 
ATOM     15  CAV B69 d          12.073  60.252  38.252  0.00  0.00    -0.058 A 
ATOM     16  H10 B69 d          11.073  59.299  36.608  0.00  0.00     0.084 H 
ATOM     17  CAH B69 d          13.114  60.158  39.167  0.00  0.00    -0.076 A 
ATOM     18  CAL B69 d          13.928  59.032  39.184  0.00  0.00    -0.072 A 
ATOM     19  H12 B69 d          13.292  60.965  39.868  0.00  0.00     0.084 H 
ATOM     20  H13 B69 d          14.735  58.961  39.906  0.00  0.00     0.084 H 
BRANCH  15  21
ATOM     21  CAS B69 d          11.011  61.339  38.440  0.00  0.00    -0.041 C 
ATOM     22  H8  B69 d          10.665  61.295  39.482  0.00  0.00     0.040 H 
ATOM     23  H9  B69 d          11.489  62.312  38.253  0.00  0.00     0.040 H 
BRANCH  21  24
ATOM     24  CAQ B69 d           9.781  61.241  37.534  0.00  0.00    -0.062 C 
ATOM     25  H6  B69 d           9.599  62.209  37.045  0.00  0.00     0.033 H 
ATOM     26  H7  B69 d           9.942  60.467  36.768  0.00  0.00     0.033 H 
BRANCH  24  27
ATOM     27  CAP B69 d           8.580  60.865  38.408  0.00  0.00    -0.068 C 
ATOM     28  H4  B69 d           8.735  61.273  39.418  0.00  0.00     0.032 H 
ATOM     29  H5  B69 d           7.672  61.305  37.972  0.00  0.00     0.032 H 
BRANCH  27  30
ATOM     30  CAA B69 d           8.397  59.351  38.509  0.00  0.00    -0.077 C 
ATOM     31  H1  B69 d           9.092  58.946  39.258  0.00  0.00     0.027 H 
ATOM     32  H2  B69 d           8.603  58.891  37.531  0.00  0.00     0.027 H 
ATOM     33  H3  B69 d           7.363  59.125  38.809  0.00  0.00     0.027 H 
ENDBRANCH  27  30
ENDBRANCH  24  27
ENDBRANCH  21  24
ENDBRANCH  15  21
ENDBRANCH   1  11
BRANCH   6  34
ATOM     34  CAT B69 d          17.672  53.887  38.383  0.00  0.00    -0.041 C 
ATOM     35  H18 B69 d          17.380  53.025  37.766  0.00  0.00     0.040 H 
ATOM     36  H19 B69 d          17.802  53.565  39.427  0.00  0.00     0.040 H 
BRANCH  34  37
ATOM     37  CAR B69 d          19.000  54.442  37.866  0.00  0.00    -0.059 C 
ATOM     38  H20 B69 d          19.751  54.384  38.668  0.00  0.00     0.033 H 
ATOM     39  H21 B69 d          18.860  55.492  37.570  0.00  0.00     0.033 H 
BRANCH  37  40
ATOM     40  CAU B69 d          19.497  53.644  36.658  0.00  0.00    -0.034 C 
ATOM     41  H22 B69 d          20.462  54.061  36.335  0.00  0.00     0.036 H 
ATOM     42  H23 B69 d          18.763  53.744  35.845  0.00  0.00     0.036 H 
BRANCH  40  43
ATOM     43  CAZ B69 d          19.686  52.157  36.963  0.00  0.00     0.169 C 
ATOM     44  H24 B69 d          19.588  51.997  38.047  0.00  0.00     0.090 H 
BRANCH  43  45
ATOM     45  PBA B69 d          21.353  51.592  36.428  0.00  0.00     0.281 P 
ATOM     46  OAC B69 d          22.438  52.544  37.143  0.00  0.00    -0.639 OA
ATOM     47  OAD B69 d          21.544  50.120  37.048  0.00  0.00    -0.639 OA
ATOM     48  OAB B69 d          21.489  51.621  34.954  0.00  0.00    -0.639 OA
ENDBRANCH  43  45
BRANCH  43  49
ATOM     49  SBB B69 d          18.389  51.202  36.093  0.00  0.00     0.119 S 
ATOM     50  OAG B69 d          17.647  52.082  35.246  0.00  0.00    -0.594 OA
ATOM     51  OAF B69 d          17.473  50.577  37.102  0.00  0.00    -0.594 OA
ATOM     52  OAE B69 d          19.039  50.125  35.273  0.00  0.00    -0.594 OA
ENDBRANCH  43  49
ENDBRANCH  40  43
ENDBRANCH  37  40
ENDBRANCH  34  37
ENDBRANCH   6  34
TORSDOF 11
ENDMDL
MODEL 6
REMARK VINA RESULT:      -9.0      1.907      3.120
REMARK  11 active torsions:
REMARK  status: ('A' for Active; 'I' for Inactive)
REMARK    1  A    between atoms: CAA_1  and  CAP_2 
REMARK    2  A    between atoms: CAP_2  and  CAQ_3 
REMARK    3  A    between atoms: CAQ_3  and  CAS_4 
REMARK    4  A    between atoms: CAS_4  and  CAV_5 
REMARK    5  A    between atoms: CAX_10  and  CAY_11 
REMARK    6  A    between atoms: CAW_16  and  CAT_17 
REMARK    7  A    between atoms: CAT_17  and  CAR_18 
REMARK    8  A    between atoms: CAR_18  and  CAU_19 
REMARK    9  A    between atoms: CAU_19  and  CAZ_20 
REMARK   10  A    between atoms: CAZ_20  and  PBA_21 
REMARK   11  A    between atoms: CAZ_20  and  SBB_25 
ROOT
ATOM      1  CAY B69 d          15.944  55.535  37.797  0.00  0.00    -0.026 A 
ATOM      2  CAO B69 d          16.024  54.406  38.606  0.00  0.00    -0.072 A 
ATOM      3  CAK B69 d          17.182  53.635  38.606  0.00  0.00    -0.076 A 
ATOM      4  CAN B69 d          17.014  55.874  36.978  0.00  0.00    -0.072 A 
ATOM      5  CAJ B69 d          18.173  55.103  36.980  0.00  0.00    -0.076 A 
ATOM      6  CAW B69 d          18.259  53.984  37.800  0.00  0.00    -0.058 A 
ATOM      7  H14 B69 d          15.185  54.128  39.236  0.00  0.00     0.084 H 
ATOM      8  H15 B69 d          17.245  52.756  39.239  0.00  0.00     0.084 H 
ATOM      9  H16 B69 d          16.946  56.743  36.334  0.00  0.00     0.084 H 
ATOM     10  H17 B69 d          19.007  55.375  36.343  0.00  0.00     0.084 H 
ENDROOT
BRANCH   1  11
ATOM     11  CAX B69 d          14.847  56.384  37.897  0.00  0.00    -0.026 A 
ATOM     12  CAM B69 d          13.929  56.504  36.858  0.00  0.00    -0.072 A 
ATOM     13  CAI B69 d          12.890  57.424  36.949  0.00  0.00    -0.076 A 
ATOM     14  H11 B69 d          14.023  55.880  35.978  0.00  0.00     0.084 H 
ATOM     15  CAV B69 d          12.752  58.222  38.082  0.00  0.00    -0.058 A 
ATOM     16  H10 B69 d          12.183  57.520  36.133  0.00  0.00     0.084 H 
ATOM     17  CAH B69 d          13.678  58.112  39.111  0.00  0.00    -0.076 A 
ATOM     18  CAL B69 d          14.718  57.194  39.020  0.00  0.00    -0.072 A 
ATOM     19  H12 B69 d          13.590  58.744  39.987  0.00  0.00     0.084 H 
ATOM     20  H13 B69 d          15.434  57.108  39.830  0.00  0.00     0.084 H 
BRANCH  15  21
ATOM     21  CAS B69 d          11.458  59.005  38.322  0.00  0.00    -0.041 C 
ATOM     22  H8  B69 d          10.666  58.281  38.560  0.00  0.00     0.040 H 
ATOM     23  H9  B69 d          11.622  59.666  39.185  0.00  0.00     0.040 H 
BRANCH  21  24
ATOM     24  CAQ B69 d          10.969  59.868  37.157  0.00  0.00    -0.062 C 
ATOM     25  H6  B69 d          11.828  60.321  36.641  0.00  0.00     0.033 H 
ATOM     26  H7  B69 d          10.399  59.249  36.448  0.00  0.00     0.033 H 
BRANCH  24  27
ATOM     27  CAP B69 d          10.068  60.967  37.730  0.00  0.00    -0.068 C 
ATOM     28  H4  B69 d           9.961  61.765  36.980  0.00  0.00     0.032 H 
ATOM     29  H5  B69 d           9.079  60.537  37.949  0.00  0.00     0.032 H 
BRANCH  27  30
ATOM     30  CAA B69 d          10.642  61.566  39.013  0.00  0.00    -0.077 C 
ATOM     31  H1  B69 d           9.852  61.625  39.776  0.00  0.00     0.027 H 
ATOM     32  H2  B69 d          11.028  62.576  38.806  0.00  0.00     0.027 H 
ATOM     33  H3  B69 d          11.461  60.930  39.381  0.00  0.00     0.027 H 
ENDBRANCH  27  30
ENDBRANCH  24  27
ENDBRANCH  21  24
ENDBRANCH  15  21
ENDBRANCH   1  11
BRANCH   6  34
ATOM     34  CAT B69 d          19.544  53.149  37.852  0.00  0.00    -0.041 C 
ATOM     35  H18 B69 d          19.359  52.178  37.370  0.00  0.00     0.040 H 
ATOM     36  H19 B69 d          19.825  52.991  38.903  0.00  0.00     0.040 H 
BRANCH  34  37
ATOM     37  CAR B69 d          20.696  53.850  37.130  0.00  0.00    -0.059 C 
ATOM     38  H20 B69 d          21.430  54.194  37.874  0.00  0.00     0.033 H 
ATOM     39  H21 B69 d          20.301  54.715  36.578  0.00  0.00     0.033 H 
BRANCH  37  40
ATOM     40  CAU B69 d          21.388  52.903  36.147  0.00  0.00    -0.034 C 
ATOM     41  H22 B69 d          22.374  53.318  35.895  0.00  0.00     0.036 H 
ATOM     42  H23 B69 d          20.775  52.833  35.236  0.00  0.00     0.036 H 
BRANCH  40  43
ATOM     43  CAZ B69 d          21.582  51.496  36.712  0.00  0.00     0.169 C 
ATOM     44  H24 B69 d          21.012  51.402  37.649  0.00  0.00     0.090 H 
BRANCH  43  45
ATOM     45  PBA B69 d          23.359  51.178  37.065  0.00  0.00     0.281 P 
ATOM     46  OAC B69 d          23.922  52.441  37.890  0.00  0.00    -0.639 OA
ATOM     47  OAD B69 d          23.396  49.915  38.062  0.00  0.00    -0.639 OA
ATOM     48  OAB B69 d          24.128  50.953  35.820  0.00  0.00    -0.639 OA
ENDBRANCH  43  45
BRANCH  43  49
ATOM     49  SBB B69 d          20.954  50.276  35.501  0.00  0.00     0.119 S 
ATOM     50  OAG B69 d          19.578  50.005  35.779  0.00  0.00    -0.594 OA
ATOM     51  OAF B69 d          21.751  49.010  35.611  0.00  0.00    -0.594 OA
ATOM     52  OAE B69 d          21.097  50.838  34.117  0.00  0.00    -0.594 OA
ENDBRANCH  43  49
ENDBRANCH  40  43
ENDBRANCH  37  40
ENDBRANCH  34  37
ENDBRANCH   6  34
TORSDOF 11
ENDMDL
MODEL 7
REMARK VINA RESULT:      -8.2      2.131      3.865
REMARK  11 active torsions:
REMARK  status: ('A' for Active; 'I' for Inactive)
REMARK    1  A    between atoms: CAA_1  and  CAP_2 
REMARK    2  A    between atoms: CAP_2  and  CAQ_3 
REMARK    3  A    between atoms: CAQ_3  and  CAS_4 
REMARK    4  A    between atoms: CAS_4  and  CAV_5 
REMARK    5  A    between atoms: CAX_10  and  CAY_11 
REMARK    6  A    between atoms: CAW_16  and  CAT_17 
REMARK    7  A    between atoms: CAT_17  and  CAR_18 
REMARK    8  A    between atoms: CAR_18  and  CAU_19 
REMARK    9  A    between atoms: CAU_19  and  CAZ_20 
REMARK   10  A    between atoms: CAZ_20  and  PBA_21 
REMARK   11  A    between atoms: CAZ_20  and  SBB_25 
ROOT
ATOM      1  CAY B69 d          17.113  55.839  37.459  0.00  0.00    -0.026 A 
ATOM      2  CAO B69 d          17.905  56.252  36.391  0.00  0.00    -0.072 A 
ATOM      3  CAK B69 d          19.126  55.628  36.154  0.00  0.00    -0.076 A 
ATOM      4  CAN B69 d          17.558  54.822  38.294  0.00  0.00    -0.072 A 
ATOM      5  CAJ B69 d          18.778  54.198  38.055  0.00  0.00    -0.076 A 
ATOM      6  CAW B69 d          19.562  54.598  36.979  0.00  0.00    -0.058 A 
ATOM      7  H14 B69 d          17.570  57.056  35.746  0.00  0.00     0.084 H 
ATOM      8  H15 B69 d          19.742  55.948  35.320  0.00  0.00     0.084 H 
ATOM      9  H16 B69 d          16.950  54.512  39.137  0.00  0.00     0.084 H 
ATOM     10  H17 B69 d          19.117  53.400  38.706  0.00  0.00     0.084 H 
ENDROOT
BRANCH   1  11
ATOM     11  CAX B69 d          15.835  56.362  37.617  0.00  0.00    -0.026 A 
ATOM     12  CAM B69 d          15.392  56.831  38.850  0.00  0.00    -0.072 A 
ATOM     13  CAI B69 d          14.081  57.268  39.000  0.00  0.00    -0.076 A 
ATOM     14  H11 B69 d          16.071  56.856  39.695  0.00  0.00     0.084 H 
ATOM     15  CAV B69 d          13.205  57.253  37.919  0.00  0.00    -0.058 A 
ATOM     16  H10 B69 d          13.739  57.623  39.965  0.00  0.00     0.084 H 
ATOM     17  CAH B69 d          13.643  56.770  36.692  0.00  0.00    -0.076 A 
ATOM     18  CAL B69 d          14.953  56.331  36.542  0.00  0.00    -0.072 A 
ATOM     19  H12 B69 d          12.961  56.735  35.850  0.00  0.00     0.084 H 
ATOM     20  H13 B69 d          15.291  55.962  35.580  0.00  0.00     0.084 H 
BRANCH  15  21
ATOM     21  CAS B69 d          11.873  58.006  37.992  0.00  0.00    -0.041 C 
ATOM     22  H8  B69 d          11.208  57.588  37.222  0.00  0.00     0.040 H 
ATOM     23  H9  B69 d          11.440  57.827  38.987  0.00  0.00     0.040 H 
BRANCH  21  24
ATOM     24  CAQ B69 d          11.944  59.519  37.777  0.00  0.00    -0.062 C 
ATOM     25  H6  B69 d          12.603  59.973  38.532  0.00  0.00     0.033 H 
ATOM     26  H7  B69 d          12.335  59.736  36.772  0.00  0.00     0.033 H 
BRANCH  24  27
ATOM     27  CAP B69 d          10.527  60.083  37.917  0.00  0.00    -0.068 C 
ATOM     28  H4  B69 d          10.121  60.277  36.914  0.00  0.00     0.032 H 
ATOM     29  H5  B69 d           9.898  59.340  38.429  0.00  0.00     0.032 H 
BRANCH  27  30
ATOM     30  CAA B69 d          10.506  61.385  38.719  0.00  0.00    -0.077 C 
ATOM     31  H1  B69 d          11.333  61.381  39.445  0.00  0.00     0.027 H 
ATOM     32  H2  B69 d           9.549  61.470  39.255  0.00  0.00     0.027 H 
ATOM     33  H3  B69 d          10.622  62.239  38.036  0.00  0.00     0.027 H 
ENDBRANCH  27  30
ENDBRANCH  24  27
ENDBRANCH  21  24
ENDBRANCH  15  21
ENDBRANCH   1  11
BRANCH   6  34
ATOM     34  CAT B69 d          20.887  53.892  36.671  0.00  0.00    -0.041 C 
ATOM     35  H18 B69 d          21.470  53.805  37.599  0.00  0.00     0.040 H 
ATOM     36  H19 B69 d          21.449  54.490  35.939  0.00  0.00     0.040 H 
BRANCH  34  37
ATOM     37  CAR B69 d          20.656  52.493  36.096  0.00  0.00    -0.059 C 
ATOM     38  H20 B69 d          21.343  52.334  35.252  0.00  0.00     0.033 H 
ATOM     39  H21 B69 d          19.617  52.417  35.743  0.00  0.00     0.033 H 
BRANCH  37  40
ATOM     40  CAU B69 d          20.905  51.415  37.153  0.00  0.00    -0.034 C 
ATOM     41  H22 B69 d          19.938  50.983  37.447  0.00  0.00     0.036 H 
ATOM     42  H23 B69 d          21.379  51.885  38.028  0.00  0.00     0.036 H 
BRANCH  40  43
ATOM     43  CAZ B69 d          21.811  50.289  36.654  0.00  0.00     0.169 C 
ATOM     44  H24 B69 d          21.587  49.371  37.218  0.00  0.00     0.090 H 
BRANCH  43  45
ATOM     45  PBA B69 d          23.581  50.722  36.903  0.00  0.00     0.281 P 
ATOM     46  OAC B69 d          23.630  52.153  37.640  0.00  0.00    -0.639 OA
ATOM     47  OAD B69 d          24.162  49.641  37.944  0.00  0.00    -0.639 OA
ATOM     48  OAB B69 d          24.320  50.744  35.620  0.00  0.00    -0.639 OA
ENDBRANCH  43  45
BRANCH  43  49
ATOM     49  SBB B69 d          21.478  50.000  34.878  0.00  0.00     0.119 S 
ATOM     50  OAG B69 d          21.923  51.132  34.127  0.00  0.00    -0.594 OA
ATOM     51  OAF B69 d          20.006  49.803  34.674  0.00  0.00    -0.594 OA
ATOM     52  OAE B69 d          22.213  48.768  34.434  0.00  0.00    -0.594 OA
ENDBRANCH  43  49
ENDBRANCH  40  43
ENDBRANCH  37  40
ENDBRANCH  34  37
ENDBRANCH   6  34
TORSDOF 11
ENDMDL
MODEL 8
REMARK VINA RESULT:      -7.1      5.845     10.634
REMARK  11 active torsions:
REMARK  status: ('A' for Active; 'I' for Inactive)
REMARK    1  A    between atoms: CAA_1  and  CAP_2 
REMARK    2  A    between atoms: CAP_2  and  CAQ_3 
REMARK    3  A    between atoms: CAQ_3  and  CAS_4 
REMARK    4  A    between atoms: CAS_4  and  CAV_5 
REMARK    5  A    between atoms: CAX_10  and  CAY_11 
REMARK    6  A    between atoms: CAW_16  and  CAT_17 
REMARK    7  A    between atoms: CAT_17  and  CAR_18 
REMARK    8  A    between atoms: CAR_18  and  CAU_19 
REMARK    9  A    between atoms: CAU_19  and  CAZ_20 
REMARK   10  A    between atoms: CAZ_20  and  PBA_21 
REMARK   11  A    between atoms: CAZ_20  and  SBB_25 
ROOT
ATOM      1  CAY B69 d          17.274  53.759  37.422  0.00  0.00    -0.026 A 
ATOM      2  CAO B69 d          17.313  55.117  37.123  0.00  0.00    -0.072 A 
ATOM      3  CAK B69 d          16.556  56.013  37.873  0.00  0.00    -0.076 A 
ATOM      4  CAN B69 d          16.461  53.303  38.453  0.00  0.00    -0.072 A 
ATOM      5  CAJ B69 d          15.706  54.199  39.202  0.00  0.00    -0.076 A 
ATOM      6  CAW B69 d          15.758  55.558  38.915  0.00  0.00    -0.058 A 
ATOM      7  H14 B69 d          17.933  55.477  36.310  0.00  0.00     0.084 H 
ATOM      8  H15 B69 d          16.589  57.072  37.641  0.00  0.00     0.084 H 
ATOM      9  H16 B69 d          16.416  52.242  38.674  0.00  0.00     0.084 H 
ATOM     10  H17 B69 d          15.079  53.838  40.009  0.00  0.00     0.084 H 
ENDROOT
BRANCH   1  11
ATOM     11  CAX B69 d          18.131  52.880  36.769  0.00  0.00    -0.026 A 
ATOM     12  CAM B69 d          17.664  51.695  36.210  0.00  0.00    -0.072 A 
ATOM     13  CAI B69 d          18.557  50.794  35.640  0.00  0.00    -0.076 A 
ATOM     14  H11 B69 d          16.603  51.473  36.219  0.00  0.00     0.084 H 
ATOM     15  CAV B69 d          19.920  51.074  35.612  0.00  0.00    -0.058 A 
ATOM     16  H10 B69 d          18.188  49.867  35.215  0.00  0.00     0.084 H 
ATOM     17  CAH B69 d          20.387  52.250  36.184  0.00  0.00    -0.076 A 
ATOM     18  CAL B69 d          19.495  53.150  36.756  0.00  0.00    -0.072 A 
ATOM     19  H12 B69 d          21.449  52.466  36.185  0.00  0.00     0.084 H 
ATOM     20  H13 B69 d          19.865  54.070  37.195  0.00  0.00     0.084 H 
BRANCH  15  21
ATOM     21  CAS B69 d          20.860  50.249  34.729  0.00  0.00    -0.041 C 
ATOM     22  H8  B69 d          20.693  49.187  34.960  0.00  0.00     0.040 H 
ATOM     23  H9  B69 d          20.593  50.443  33.680  0.00  0.00     0.040 H 
BRANCH  21  24
ATOM     24  CAQ B69 d          22.355  50.533  34.891  0.00  0.00    -0.062 C 
ATOM     25  H6  B69 d          22.861  50.438  33.919  0.00  0.00     0.033 H 
ATOM     26  H7  B69 d          22.502  51.550  35.283  0.00  0.00     0.033 H 
BRANCH  24  27
ATOM     27  CAP B69 d          22.926  49.508  35.876  0.00  0.00    -0.068 C 
ATOM     28  H4  B69 d          22.174  48.724  36.049  0.00  0.00     0.032 H 
ATOM     29  H5  B69 d          23.829  49.058  35.437  0.00  0.00     0.032 H 
BRANCH  27  30
ATOM     30  CAA B69 d          23.294  50.146  37.216  0.00  0.00    -0.077 C 
ATOM     31  H1  B69 d          22.408  50.167  37.867  0.00  0.00     0.027 H 
ATOM     32  H2  B69 d          23.650  51.173  37.048  0.00  0.00     0.027 H 
ATOM     33  H3  B69 d          24.088  49.557  37.697  0.00  0.00     0.027 H 
ENDBRANCH  27  30
ENDBRANCH  24  27
ENDBRANCH  21  24
ENDBRANCH  15  21
ENDBRANCH   1  11
BRANCH   6  34
ATOM     34  CAT B69 d          14.970  56.566  39.759  0.00  0.00    -0.041 C 
ATOM     35  H18 B69 d          15.411  56.613  40.766  0.00  0.00     0.040 H 
ATOM     36  H19 B69 d          13.925  56.231  39.832  0.00  0.00     0.040 H 
BRANCH  34  37
ATOM     37  CAR B69 d          15.001  57.964  39.138  0.00  0.00    -0.059 C 
ATOM     38  H20 B69 d          15.083  57.869  38.045  0.00  0.00     0.033 H 
ATOM     39  H21 B69 d          15.873  58.510  39.526  0.00  0.00     0.033 H 
BRANCH  37  40
ATOM     40  CAU B69 d          13.730  58.745  39.477  0.00  0.00    -0.034 C 
ATOM     41  H22 B69 d          13.992  59.556  40.172  0.00  0.00     0.036 H 
ATOM     42  H23 B69 d          13.016  58.062  39.962  0.00  0.00     0.036 H 
BRANCH  40  43
ATOM     43  CAZ B69 d          13.059  59.357  38.246  0.00  0.00     0.169 C 
ATOM     44  H24 B69 d          13.778  60.013  37.734  0.00  0.00     0.090 H 
BRANCH  43  45
ATOM     45  PBA B69 d          11.590  60.350  38.734  0.00  0.00     0.281 P 
ATOM     46  OAC B69 d          12.129  61.729  39.369  0.00  0.00    -0.639 OA
ATOM     47  OAD B69 d          10.836  60.731  37.364  0.00  0.00    -0.639 OA
ATOM     48  OAB B69 d          10.726  59.612  39.683  0.00  0.00    -0.639 OA
ENDBRANCH  43  45
BRANCH  43  49
ATOM     49  SBB B69 d          12.559  58.011  37.111  0.00  0.00     0.119 S 
ATOM     50  OAG B69 d          13.730  57.383  36.583  0.00  0.00    -0.594 OA
ATOM     51  OAF B69 d          11.743  58.583  35.991  0.00  0.00    -0.594 OA
ATOM     52  OAE B69 d          11.736  57.009  37.867  0.00  0.00    -0.594 OA
ENDBRANCH  43  49
ENDBRANCH  40  43
ENDBRANCH  37  40
ENDBRANCH  34  37
ENDBRANCH   6  34
TORSDOF 11
ENDMDL
MODEL 9
REMARK VINA RESULT:      -7.1      6.234     10.572
REMARK  11 active torsions:
REMARK  status: ('A' for Active; 'I' for Inactive)
REMARK    1  A    between atoms: CAA_1  and  CAP_2 
REMARK    2  A    between atoms: CAP_2  and  CAQ_3 
REMARK    3  A    between atoms: CAQ_3  and  CAS_4 
REMARK    4  A    between atoms: CAS_4  and  CAV_5 
REMARK    5  A    between atoms: CAX_10  and  CAY_11 
REMARK    6  A    between atoms: CAW_16  and  CAT_17 
REMARK    7  A    between atoms: CAT_17  and  CAR_18 
REMARK    8  A    between atoms: CAR_18  and  CAU_19 
REMARK    9  A    between atoms: CAU_19  and  CAZ_20 
REMARK   10  A    between atoms: CAZ_20  and  PBA_21 
REMARK   11  A    between atoms: CAZ_20  and  SBB_25 
ROOT
ATOM      1  CAY B69 d          17.246  54.994  37.064  0.00  0.00    -0.026 A 
ATOM      2  CAO B69 d          16.394  54.906  38.160  0.00  0.00    -0.072 A 
ATOM      3  CAK B69 d          15.140  55.511  38.112  0.00  0.00    -0.076 A 
ATOM      4  CAN B69 d          16.850  55.702  35.936  0.00  0.00    -0.072 A 
ATOM      5  CAJ B69 d          15.596  56.304  35.888  0.00  0.00    -0.076 A 
ATOM      6  CAW B69 d          14.737  56.203  36.977  0.00  0.00    -0.058 A 
ATOM      7  H14 B69 d          16.705  54.369  39.049  0.00  0.00     0.084 H 
ATOM      8  H15 B69 d          14.476  55.440  38.966  0.00  0.00     0.084 H 
ATOM      9  H16 B69 d          17.521  55.786  35.089  0.00  0.00     0.084 H 
ATOM     10  H17 B69 d          15.290  56.851  35.004  0.00  0.00     0.084 H 
ENDROOT
BRANCH   1  11
ATOM     11  CAX B69 d          18.439  54.278  37.054  0.00  0.00    -0.026 A 
ATOM     12  CAM B69 d          19.588  54.795  36.464  0.00  0.00    -0.072 A 
ATOM     13  CAI B69 d          20.742  54.022  36.392  0.00  0.00    -0.076 A 
ATOM     14  H11 B69 d          19.584  55.801  36.062  0.00  0.00     0.084 H 
ATOM     15  CAV B69 d          20.762  52.734  36.917  0.00  0.00    -0.058 A 
ATOM     16  H10 B69 d          21.631  54.426  35.923  0.00  0.00     0.084 H 
ATOM     17  CAH B69 d          19.609  52.213  37.491  0.00  0.00    -0.076 A 
ATOM     18  CAL B69 d          18.455  52.984  37.562  0.00  0.00    -0.072 A 
ATOM     19  H12 B69 d          19.610  51.203  37.884  0.00  0.00     0.084 H 
ATOM     20  H13 B69 d          17.560  52.574  38.018  0.00  0.00     0.084 H 
BRANCH  15  21
ATOM     21  CAS B69 d          22.091  52.000  37.116  0.00  0.00    -0.041 C 
ATOM     22  H8  B69 d          22.892  52.643  36.723  0.00  0.00     0.040 H 
ATOM     23  H9  B69 d          22.236  51.853  38.196  0.00  0.00     0.040 H 
BRANCH  21  24
ATOM     24  CAQ B69 d          22.213  50.634  36.437  0.00  0.00    -0.062 C 
ATOM     25  H6  B69 d          23.236  50.249  36.553  0.00  0.00     0.033 H 
ATOM     26  H7  B69 d          21.501  49.928  36.890  0.00  0.00     0.033 H 
BRANCH  24  27
ATOM     27  CAP B69 d          21.892  50.816  34.950  0.00  0.00    -0.068 C 
ATOM     28  H4  B69 d          21.595  51.861  34.776  0.00  0.00     0.032 H 
ATOM     29  H5  B69 d          22.792  50.588  34.361  0.00  0.00     0.032 H 
BRANCH  27  30
ATOM     30  CAA B69 d          20.758  49.897  34.494  0.00  0.00    -0.077 C 
ATOM     31  H1  B69 d          20.991  48.859  34.775  0.00  0.00     0.027 H 
ATOM     32  H2  B69 d          20.648  49.965  33.401  0.00  0.00     0.027 H 
ATOM     33  H3  B69 d          19.819  50.205  34.977  0.00  0.00     0.027 H 
ENDBRANCH  27  30
ENDBRANCH  24  27
ENDBRANCH  21  24
ENDBRANCH  15  21
ENDBRANCH   1  11
BRANCH   6  34
ATOM     34  CAT B69 d          13.335  56.819  36.926  0.00  0.00    -0.041 C 
ATOM     35  H18 B69 d          12.622  56.059  36.575  0.00  0.00     0.040 H 
ATOM     36  H19 B69 d          13.342  57.667  36.225  0.00  0.00     0.040 H 
BRANCH  34  37
ATOM     37  CAR B69 d          12.891  57.318  38.302  0.00  0.00    -0.059 C 
ATOM     38  H20 B69 d          13.599  58.083  38.653  0.00  0.00     0.033 H 
ATOM     39  H21 B69 d          12.886  56.472  39.006  0.00  0.00     0.033 H 
BRANCH  37  40
ATOM     40  CAU B69 d          11.488  57.926  38.242  0.00  0.00    -0.034 C 
ATOM     41  H22 B69 d          10.787  57.242  38.741  0.00  0.00     0.036 H 
ATOM     42  H23 B69 d          11.200  58.040  37.186  0.00  0.00     0.036 H 
BRANCH  40  43
ATOM     43  CAZ B69 d          11.401  59.294  38.920  0.00  0.00     0.169 C 
ATOM     44  H24 B69 d          11.272  59.150  40.004  0.00  0.00     0.090 H 
BRANCH  43  45
ATOM     45  PBA B69 d           9.969  60.250  38.273  0.00  0.00     0.281 P 
ATOM     46  OAC B69 d          10.242  60.529  36.710  0.00  0.00    -0.639 OA
ATOM     47  OAD B69 d           8.701  59.263  38.357  0.00  0.00    -0.639 OA
ATOM     48  OAB B69 d           9.772  61.509  39.027  0.00  0.00    -0.639 OA
ENDBRANCH  43  45
BRANCH  43  49
ATOM     49  SBB B69 d          12.957  60.209  38.616  0.00  0.00     0.119 S 
ATOM     50  OAG B69 d          13.242  60.197  37.216  0.00  0.00    -0.594 OA
ATOM     51  OAF B69 d          14.076  59.550  39.366  0.00  0.00    -0.594 OA
ATOM     52  OAE B69 d          12.798  61.623  39.097  0.00  0.00    -0.594 OA
ENDBRANCH  43  49
ENDBRANCH  40  43
ENDBRANCH  37  40
ENDBRANCH  34  37
ENDBRANCH   6  34
TORSDOF 11
ENDMDL
