MODEL 1
REMARK VINA RESULT:      -6.7      0.000      0.000
REMARK  6 active torsions:
REMARK  status: ('A' for Active; 'I' for Inactive)
REMARK    1  A    between atoms: N1_2  and  O7_5 
REMARK    2  A    between atoms: C2_3  and  O2_6 
REMARK    3  A    between atoms: C3_7  and  O3_8 
REMARK    4  A    between atoms: C4_9  and  O4_10 
REMARK    5  A    between atoms: C5_11  and  C6_12 
REMARK    6  A    between atoms: C6_12  and  O6_13 
ROOT
ATOM      1  C1  GOX d           0.116  11.146  10.263  0.00  0.00     0.159 C 
ATOM      2  N1  GOX d           0.437  10.875  11.513  0.00  0.00    -0.120 NA
ATOM      3  C2  GOX d           1.256  11.795   9.453  0.00  0.00     0.121 C 
ATOM      4  N5  GOX d          -1.167  10.837   9.770  0.00  0.00    -0.365 N 
ATOM      5  C3  GOX d           0.700  12.281   8.117  0.00  0.00     0.094 C 
ATOM      6  C4  GOX d          -0.197  11.208   7.492  0.00  0.00     0.084 C 
ATOM      7  C5  GOX d          -1.479  11.166   8.372  0.00  0.00     0.058 C 
ATOM      8  H1  GOX d           2.031  11.038   9.263  0.00  0.00     0.099 H 
ATOM      9  H2  GOX d          -1.871  10.390  10.375  0.00  0.00     0.161 HD
ATOM     10  H5  GOX d           0.119  13.203   8.262  0.00  0.00     0.091 H 
ATOM     11  H7  GOX d           0.307  10.231   7.520  0.00  0.00     0.090 H 
ATOM     12  H9  GOX d          -1.953  12.158   8.331  0.00  0.00     0.079 H 
ENDROOT
BRANCH   7  13
ATOM     13  C6  GOX d          -2.489  10.105   7.889  0.00  0.00     0.038 C 
ATOM     14  H10 GOX d          -2.464  10.060   6.790  0.00  0.00     0.077 H 
ATOM     15  H11 GOX d          -3.497  10.391   8.221  0.00  0.00     0.077 H 
BRANCH  13  16
ATOM     16  O6  GOX d          -2.177   8.828   8.410  0.00  0.00    -0.399 OA
ATOM     17  H12 GOX d          -2.495   8.765   9.303  0.00  0.00     0.209 HD
ENDBRANCH  13  16
ENDBRANCH   7  13
BRANCH   6  18
ATOM     18  O4  GOX d          -0.504  11.530   6.141  0.00  0.00    -0.391 OA
ATOM     19  H8  GOX d           0.267  11.890   5.719  0.00  0.00     0.210 HD
ENDBRANCH   6  18
BRANCH   5  20
ATOM     20  O3  GOX d           1.824  12.535   7.277  0.00  0.00    -0.390 OA
ATOM     21  H6  GOX d           2.476  11.857   7.408  0.00  0.00     0.210 HD
ENDBRANCH   5  20
BRANCH   2  22
ATOM     22  O7  GOX d          -0.514  10.252  12.325  0.00  0.00    -0.265 OA
ATOM     23  H3  GOX d          -0.112  10.004  13.149  0.00  0.00     0.247 HD
ENDBRANCH   2  22
BRANCH   3  24
ATOM     24  O2  GOX d           1.840  12.863  10.158  0.00  0.00    -0.385 OA
ATOM     25  H4  GOX d           2.200  13.489   9.542  0.00  0.00     0.210 HD
ENDBRANCH   3  24
TORSDOF 6
ENDMDL
MODEL 2
REMARK VINA RESULT:      -5.8      1.537      3.077
REMARK  6 active torsions:
REMARK  status: ('A' for Active; 'I' for Inactive)
REMARK    1  A    between atoms: N1_2  and  O7_5 
REMARK    2  A    between atoms: C2_3  and  O2_6 
REMARK    3  A    between atoms: C3_7  and  O3_8 
REMARK    4  A    between atoms: C4_9  and  O4_10 
REMARK    5  A    between atoms: C5_11  and  C6_12 
REMARK    6  A    between atoms: C6_12  and  O6_13 
ROOT
ATOM      1  C1  GOX d           0.973  11.957   9.781  0.00  0.00     0.159 C 
ATOM      2  N1  GOX d           1.782  12.959  10.064  0.00  0.00    -0.120 NA
ATOM      3  C2  GOX d           1.030  11.506   8.309  0.00  0.00     0.121 C 
ATOM      4  N5  GOX d           0.160  11.389  10.783  0.00  0.00    -0.365 N 
ATOM      5  C3  GOX d          -0.109  10.523   8.047  0.00  0.00     0.094 C 
ATOM      6  C4  GOX d          -0.198   9.498   9.182  0.00  0.00     0.084 C 
ATOM      7  C5  GOX d          -0.731  10.281  10.416  0.00  0.00     0.058 C 
ATOM      8  H1  GOX d           1.988  10.997   8.131  0.00  0.00     0.099 H 
ATOM      9  H2  GOX d           0.191  11.743  11.750  0.00  0.00     0.161 HD
ATOM     10  H5  GOX d          -1.063  11.063   7.968  0.00  0.00     0.091 H 
ATOM     11  H7  GOX d           0.800   9.091   9.401  0.00  0.00     0.090 H 
ATOM     12  H9  GOX d          -1.723  10.682  10.162  0.00  0.00     0.079 H 
ENDROOT
BRANCH   7  13
ATOM     13  C6  GOX d          -0.856   9.388  11.668  0.00  0.00     0.038 C 
ATOM     14  H10 GOX d          -0.509   8.374  11.422  0.00  0.00     0.077 H 
ATOM     15  H11 GOX d          -1.910   9.351  11.979  0.00  0.00     0.077 H 
BRANCH  13  16
ATOM     16  O6  GOX d          -0.078   9.894  12.735  0.00  0.00    -0.399 OA
ATOM     17  H12 GOX d           0.772   9.470  12.735  0.00  0.00     0.209 HD
ENDBRANCH  13  16
ENDBRANCH   7  13
BRANCH   6  18
ATOM     18  O4  GOX d          -1.066   8.427   8.829  0.00  0.00    -0.391 OA
ATOM     19  H8  GOX d          -1.963   8.739   8.819  0.00  0.00     0.210 HD
ENDBRANCH   6  18
BRANCH   5  20
ATOM     20  O3  GOX d           0.191   9.871   6.815  0.00  0.00    -0.390 OA
ATOM     21  H6  GOX d           1.004   9.389   6.903  0.00  0.00     0.210 HD
ENDBRANCH   5  20
BRANCH   2  22
ATOM     22  O7  GOX d           1.834  13.423  11.380  0.00  0.00    -0.265 OA
ATOM     23  H3  GOX d           1.135  13.023  11.884  0.00  0.00     0.247 HD
ENDBRANCH   2  22
BRANCH   3  24
ATOM     24  O2  GOX d           0.940  12.604   7.433  0.00  0.00    -0.385 OA
ATOM     25  H4  GOX d           1.578  13.261   7.684  0.00  0.00     0.210 HD
ENDBRANCH   3  24
TORSDOF 6
ENDMDL
MODEL 3
REMARK VINA RESULT:      -5.7      1.218      3.465
REMARK  6 active torsions:
REMARK  status: ('A' for Active; 'I' for Inactive)
REMARK    1  A    between atoms: N1_2  and  O7_5 
REMARK    2  A    between atoms: C2_3  and  O2_6 
REMARK    3  A    between atoms: C3_7  and  O3_8 
REMARK    4  A    between atoms: C4_9  and  O4_10 
REMARK    5  A    between atoms: C5_11  and  C6_12 
REMARK    6  A    between atoms: C6_12  and  O6_13 
ROOT
ATOM      1  C1  GOX d          -0.459  10.098  10.485  0.00  0.00     0.159 C 
ATOM      2  N1  GOX d          -0.948   9.499  11.553  0.00  0.00    -0.120 NA
ATOM      3  C2  GOX d          -1.357   9.979   9.238  0.00  0.00     0.121 C 
ATOM      4  N5  GOX d           0.774  10.776  10.546  0.00  0.00    -0.365 N 
ATOM      5  C3  GOX d          -0.587  10.487   8.022  0.00  0.00     0.094 C 
ATOM      6  C4  GOX d           0.126  11.801   8.356  0.00  0.00     0.084 C 
ATOM      7  C5  GOX d           1.281  11.420   9.326  0.00  0.00     0.058 C 
ATOM      8  H1  GOX d          -2.249  10.605   9.382  0.00  0.00     0.099 H 
ATOM      9  H2  GOX d           1.309  10.820  11.425  0.00  0.00     0.161 HD
ATOM     10  H5  GOX d           0.155   9.740   7.705  0.00  0.00     0.091 H 
ATOM     11  H7  GOX d          -0.569  12.491   8.856  0.00  0.00     0.090 H 
ATOM     12  H9  GOX d           1.951  10.724   8.801  0.00  0.00     0.079 H 
ENDROOT
BRANCH   7  13
ATOM     13  C6  GOX d           2.092  12.649   9.786  0.00  0.00     0.038 C 
ATOM     14  H10 GOX d           2.019  13.435   9.019  0.00  0.00     0.077 H 
ATOM     15  H11 GOX d           3.144  12.357   9.914  0.00  0.00     0.077 H 
BRANCH  13  16
ATOM     16  O6  GOX d           1.601  13.155  11.012  0.00  0.00    -0.399 OA
ATOM     17  H12 GOX d           1.900  12.601  11.724  0.00  0.00     0.209 HD
ENDBRANCH  13  16
ENDBRANCH   7  13
BRANCH   6  18
ATOM     18  O4  GOX d           0.622  12.422   7.175  0.00  0.00    -0.391 OA
ATOM     19  H8  GOX d           0.078  12.175   6.436  0.00  0.00     0.210 HD
ENDBRANCH   6  18
BRANCH   5  20
ATOM     20  O3  GOX d          -1.547  10.695   6.989  0.00  0.00    -0.390 OA
ATOM     21  H6  GOX d          -2.410  10.790   7.374  0.00  0.00     0.210 HD
ENDBRANCH   5  20
BRANCH   2  22
ATOM     22  O7  GOX d          -0.229   9.577  12.748  0.00  0.00    -0.265 OA
ATOM     23  H3  GOX d          -0.829   9.733  13.468  0.00  0.00     0.247 HD
ENDBRANCH   2  22
BRANCH   3  24
ATOM     24  O2  GOX d          -1.774   8.650   9.033  0.00  0.00    -0.385 OA
ATOM     25  H4  GOX d          -1.225   8.065   9.542  0.00  0.00     0.210 HD
ENDBRANCH   3  24
TORSDOF 6
ENDMDL
MODEL 4
REMARK VINA RESULT:      -5.5      1.690      3.582
REMARK  6 active torsions:
REMARK  status: ('A' for Active; 'I' for Inactive)
REMARK    1  A    between atoms: N1_2  and  O7_5 
REMARK    2  A    between atoms: C2_3  and  O2_6 
REMARK    3  A    between atoms: C3_7  and  O3_8 
REMARK    4  A    between atoms: C4_9  and  O4_10 
REMARK    5  A    between atoms: C5_11  and  C6_12 
REMARK    6  A    between atoms: C6_12  and  O6_13 
ROOT
ATOM      1  C1  GOX d          -0.047  11.354   7.615  0.00  0.00     0.159 C 
ATOM      2  N1  GOX d          -0.228  11.698   6.355  0.00  0.00    -0.120 NA
ATOM      3  C2  GOX d           0.895  12.296   8.389  0.00  0.00     0.121 C 
ATOM      4  N5  GOX d          -0.691  10.220   8.148  0.00  0.00    -0.365 N 
ATOM      5  C3  GOX d           1.221  11.670   9.742  0.00  0.00     0.094 C 
ATOM      6  C4  GOX d          -0.052  11.120  10.394  0.00  0.00     0.084 C 
ATOM      7  C5  GOX d          -0.450   9.873   9.554  0.00  0.00     0.058 C 
ATOM      8  H1  GOX d           0.381  13.255   8.553  0.00  0.00     0.099 H 
ATOM      9  H2  GOX d          -1.318   9.646   7.564  0.00  0.00     0.161 HD
ATOM     10  H5  GOX d           1.948  10.855   9.617  0.00  0.00     0.091 H 
ATOM     11  H7  GOX d          -0.853  11.872  10.349  0.00  0.00     0.090 H 
ATOM     12  H9  GOX d           0.375   9.147   9.612  0.00  0.00     0.079 H 
ENDROOT
BRANCH   7  13
ATOM     13  C6  GOX d          -1.743   9.207  10.068  0.00  0.00     0.038 C 
ATOM     14  H10 GOX d          -1.989   8.352   9.422  0.00  0.00     0.077 H 
ATOM     15  H11 GOX d          -2.562   9.940  10.033  0.00  0.00     0.077 H 
BRANCH  13  16
ATOM     16  O6  GOX d          -1.589   8.751  11.398  0.00  0.00    -0.399 OA
ATOM     17  H12 GOX d          -2.420   8.819  11.853  0.00  0.00     0.209 HD
ENDBRANCH  13  16
ENDBRANCH   7  13
BRANCH   6  18
ATOM     18  O4  GOX d           0.184  10.779  11.755  0.00  0.00    -0.391 OA
ATOM     19  H8  GOX d           0.598   9.925  11.799  0.00  0.00     0.210 HD
ENDBRANCH   6  18
BRANCH   5  20
ATOM     20  O3  GOX d           1.779  12.707  10.547  0.00  0.00    -0.390 OA
ATOM     21  H6  GOX d           1.368  13.534  10.326  0.00  0.00     0.210 HD
ENDBRANCH   5  20
BRANCH   2  22
ATOM     22  O7  GOX d          -1.094  10.929   5.572  0.00  0.00    -0.265 OA
ATOM     23  H3  GOX d          -1.993  11.135   5.800  0.00  0.00     0.247 HD
ENDBRANCH   2  22
BRANCH   3  24
ATOM     24  O2  GOX d           2.077  12.544   7.667  0.00  0.00    -0.385 OA
ATOM     25  H4  GOX d           2.759  12.829   8.264  0.00  0.00     0.210 HD
ENDBRANCH   3  24
TORSDOF 6
ENDMDL
MODEL 5
REMARK VINA RESULT:      -5.3      1.086      3.599
REMARK  6 active torsions:
REMARK  status: ('A' for Active; 'I' for Inactive)
REMARK    1  A    between atoms: N1_2  and  O7_5 
REMARK    2  A    between atoms: C2_3  and  O2_6 
REMARK    3  A    between atoms: C3_7  and  O3_8 
REMARK    4  A    between atoms: C4_9  and  O4_10 
REMARK    5  A    between atoms: C5_11  and  C6_12 
REMARK    6  A    between atoms: C6_12  and  O6_13 
ROOT
ATOM      1  C1  GOX d          -1.169  10.652   8.283  0.00  0.00     0.159 C 
ATOM      2  N1  GOX d          -2.293  10.284   7.700  0.00  0.00    -0.120 NA
ATOM      3  C2  GOX d          -0.302  11.595   7.426  0.00  0.00     0.121 C 
ATOM      4  N5  GOX d          -0.851  10.196   9.578  0.00  0.00    -0.365 N 
ATOM      5  C3  GOX d           1.063  11.753   8.090  0.00  0.00     0.094 C 
ATOM      6  C4  GOX d           0.899  11.985   9.595  0.00  0.00     0.084 C 
ATOM      7  C5  GOX d           0.417  10.627  10.181  0.00  0.00     0.058 C 
ATOM      8  H1  GOX d          -0.791  12.579   7.377  0.00  0.00     0.099 H 
ATOM      9  H2  GOX d          -1.494   9.574  10.090  0.00  0.00     0.161 HD
ATOM     10  H5  GOX d           1.671  10.851   7.924  0.00  0.00     0.091 H 
ATOM     11  H7  GOX d           0.141  12.760   9.776  0.00  0.00     0.090 H 
ATOM     12  H9  GOX d           1.191   9.873   9.974  0.00  0.00     0.079 H 
ENDROOT
BRANCH   7  13
ATOM     13  C6  GOX d           0.175  10.697  11.703  0.00  0.00     0.038 C 
ATOM     14  H10 GOX d           1.128  10.527  12.226  0.00  0.00     0.077 H 
ATOM     15  H11 GOX d          -0.544   9.915  11.988  0.00  0.00     0.077 H 
BRANCH  13  16
ATOM     16  O6  GOX d          -0.340  11.958  12.081  0.00  0.00    -0.399 OA
ATOM     17  H12 GOX d           0.379  12.556  12.247  0.00  0.00     0.209 HD
ENDBRANCH  13  16
ENDBRANCH   7  13
BRANCH   6  18
ATOM     18  O4  GOX d           2.129  12.397  10.180  0.00  0.00    -0.391 OA
ATOM     19  H8  GOX d           2.782  12.505   9.499  0.00  0.00     0.210 HD
ENDBRANCH   6  18
BRANCH   5  20
ATOM     20  O3  GOX d           1.684  12.883   7.481  0.00  0.00    -0.390 OA
ATOM     21  H6  GOX d           2.627  12.818   7.583  0.00  0.00     0.210 HD
ENDBRANCH   5  20
BRANCH   2  22
ATOM     22  O7  GOX d          -3.170   9.456   8.405  0.00  0.00    -0.265 OA
ATOM     23  H3  GOX d          -2.681   8.949   9.043  0.00  0.00     0.247 HD
ENDBRANCH   2  22
BRANCH   3  24
ATOM     24  O2  GOX d          -0.156  11.105   6.115  0.00  0.00    -0.385 OA
ATOM     25  H4  GOX d           0.416  10.346   6.123  0.00  0.00     0.210 HD
ENDBRANCH   3  24
TORSDOF 6
ENDMDL
MODEL 6
REMARK VINA RESULT:      -5.2      1.745      4.040
REMARK  6 active torsions:
REMARK  status: ('A' for Active; 'I' for Inactive)
REMARK    1  A    between atoms: N1_2  and  O7_5 
REMARK    2  A    between atoms: C2_3  and  O2_6 
REMARK    3  A    between atoms: C3_7  and  O3_8 
REMARK    4  A    between atoms: C4_9  and  O4_10 
REMARK    5  A    between atoms: C5_11  and  C6_12 
REMARK    6  A    between atoms: C6_12  and  O6_13 
ROOT
ATOM      1  C1  GOX d           0.560  11.239   9.082  0.00  0.00     0.159 C 
ATOM      2  N1  GOX d           1.516  11.903   8.463  0.00  0.00    -0.120 NA
ATOM      3  C2  GOX d          -0.379  10.469   8.132  0.00  0.00     0.121 C 
ATOM      4  N5  GOX d           0.464  11.265  10.487  0.00  0.00    -0.365 N 
ATOM      5  C3  GOX d          -1.573   9.950   8.929  0.00  0.00     0.094 C 
ATOM      6  C4  GOX d          -1.102   9.327  10.247  0.00  0.00     0.084 C 
ATOM      7  C5  GOX d          -0.625  10.517  11.129  0.00  0.00     0.058 C 
ATOM      8  H1  GOX d           0.168   9.613   7.711  0.00  0.00     0.099 H 
ATOM      9  H2  GOX d           1.141  11.797  11.052  0.00  0.00     0.161 HD
ATOM     10  H5  GOX d          -2.271  10.772   9.143  0.00  0.00     0.091 H 
ATOM     11  H7  GOX d          -0.264   8.640  10.061  0.00  0.00     0.090 H 
ATOM     12  H9  GOX d          -1.482  11.188  11.287  0.00  0.00     0.079 H 
ENDROOT
BRANCH   7  13
ATOM     13  C6  GOX d          -0.089  10.054  12.499  0.00  0.00     0.038 C 
ATOM     14  H10 GOX d          -0.938   9.791  13.148  0.00  0.00     0.077 H 
ATOM     15  H11 GOX d           0.483  10.874  12.957  0.00  0.00     0.077 H 
BRANCH  13  16
ATOM     16  O6  GOX d           0.753   8.926  12.363  0.00  0.00    -0.399 OA
ATOM     17  H12 GOX d           0.889   8.743  11.441  0.00  0.00     0.209 HD
ENDBRANCH  13  16
ENDBRANCH   7  13
BRANCH   6  18
ATOM     18  O4  GOX d          -2.159   8.607  10.872  0.00  0.00    -0.391 OA
ATOM     19  H8  GOX d          -2.808   8.371  10.220  0.00  0.00     0.210 HD
ENDBRANCH   6  18
BRANCH   5  20
ATOM     20  O3  GOX d          -2.208   8.965   8.117  0.00  0.00    -0.390 OA
ATOM     21  H6  GOX d          -2.501   8.246   8.664  0.00  0.00     0.210 HD
ENDBRANCH   5  20
BRANCH   2  22
ATOM     22  O7  GOX d           2.445  12.607   9.234  0.00  0.00    -0.265 OA
ATOM     23  H3  GOX d           2.010  13.334   9.666  0.00  0.00     0.247 HD
ENDBRANCH   2  22
BRANCH   3  24
ATOM     24  O2  GOX d          -0.815  11.284   7.072  0.00  0.00    -0.385 OA
ATOM     25  H4  GOX d          -1.441  11.920   7.398  0.00  0.00     0.210 HD
ENDBRANCH   3  24
TORSDOF 6
ENDMDL
MODEL 7
REMARK VINA RESULT:      -4.9      1.784      4.143
REMARK  6 active torsions:
REMARK  status: ('A' for Active; 'I' for Inactive)
REMARK    1  A    between atoms: N1_2  and  O7_5 
REMARK    2  A    between atoms: C2_3  and  O2_6 
REMARK    3  A    between atoms: C3_7  and  O3_8 
REMARK    4  A    between atoms: C4_9  and  O4_10 
REMARK    5  A    between atoms: C5_11  and  C6_12 
REMARK    6  A    between atoms: C6_12  and  O6_13 
ROOT
ATOM      1  C1  GOX d          -1.402  10.419   8.735  0.00  0.00     0.159 C 
ATOM      2  N1  GOX d          -2.396   9.780   8.149  0.00  0.00    -0.120 NA
ATOM      3  C2  GOX d          -0.795   9.663   9.932  0.00  0.00     0.121 C 
ATOM      4  N5  GOX d          -0.977  11.674   8.255  0.00  0.00    -0.365 N 
ATOM      5  C3  GOX d           0.165  10.593  10.670  0.00  0.00     0.094 C 
ATOM      6  C4  GOX d           1.059  11.336   9.672  0.00  0.00     0.084 C 
ATOM      7  C5  GOX d           0.129  12.350   8.947  0.00  0.00     0.058 C 
ATOM      8  H1  GOX d          -0.232   8.796   9.555  0.00  0.00     0.099 H 
ATOM      9  H2  GOX d          -1.430  12.107   7.437  0.00  0.00     0.161 HD
ATOM     10  H5  GOX d          -0.401  11.323  11.267  0.00  0.00     0.091 H 
ATOM     11  H7  GOX d           1.479  10.628   8.944  0.00  0.00     0.090 H 
ATOM     12  H9  GOX d          -0.282  13.035   9.703  0.00  0.00     0.079 H 
ENDROOT
BRANCH   7  13
ATOM     13  C6  GOX d           0.877  13.171   7.876  0.00  0.00     0.038 C 
ATOM     14  H10 GOX d           1.204  14.124   8.318  0.00  0.00     0.077 H 
ATOM     15  H11 GOX d           0.195  13.371   7.037  0.00  0.00     0.077 H 
BRANCH  13  16
ATOM     16  O6  GOX d           2.008  12.473   7.396  0.00  0.00    -0.399 OA
ATOM     17  H12 GOX d           2.233  12.794   6.530  0.00  0.00     0.209 HD
ENDBRANCH  13  16
ENDBRANCH   7  13
BRANCH   6  18
ATOM     18  O4  GOX d           2.126  11.996  10.343  0.00  0.00    -0.391 OA
ATOM     19  H8  GOX d           1.854  12.874  10.582  0.00  0.00     0.210 HD
ENDBRANCH   6  18
BRANCH   5  20
ATOM     20  O3  GOX d           0.956   9.769  11.524  0.00  0.00    -0.390 OA
ATOM     21  H6  GOX d           0.387   9.287  12.112  0.00  0.00     0.210 HD
ENDBRANCH   5  20
BRANCH   2  22
ATOM     22  O7  GOX d          -2.995  10.362   7.030  0.00  0.00    -0.265 OA
ATOM     23  H3  GOX d          -2.362  10.910   6.581  0.00  0.00     0.247 HD
ENDBRANCH   2  22
BRANCH   3  24
ATOM     24  O2  GOX d          -1.795   9.199  10.805  0.00  0.00    -0.385 OA
ATOM     25  H4  GOX d          -2.548   9.776  10.758  0.00  0.00     0.210 HD
ENDBRANCH   3  24
TORSDOF 6
ENDMDL
MODEL 8
REMARK VINA RESULT:      -3.8      1.737      3.543
REMARK  6 active torsions:
REMARK  status: ('A' for Active; 'I' for Inactive)
REMARK    1  A    between atoms: N1_2  and  O7_5 
REMARK    2  A    between atoms: C2_3  and  O2_6 
REMARK    3  A    between atoms: C3_7  and  O3_8 
REMARK    4  A    between atoms: C4_9  and  O4_10 
REMARK    5  A    between atoms: C5_11  and  C6_12 
REMARK    6  A    between atoms: C6_12  and  O6_13 
ROOT
ATOM      1  C1  GOX d           0.519  11.240   8.844  0.00  0.00     0.159 C 
ATOM      2  N1  GOX d           1.224  12.147   8.197  0.00  0.00    -0.120 NA
ATOM      3  C2  GOX d           0.881  11.116  10.336  0.00  0.00     0.121 C 
ATOM      4  N5  GOX d          -0.468  10.489   8.174  0.00  0.00    -0.365 N 
ATOM      5  C3  GOX d           0.187   9.886  10.915  0.00  0.00     0.094 C 
ATOM      6  C4  GOX d          -1.272   9.832  10.452  0.00  0.00     0.084 C 
ATOM      7  C5  GOX d          -1.221   9.484   8.937  0.00  0.00     0.058 C 
ATOM      8  H1  GOX d           0.519  12.011  10.864  0.00  0.00     0.099 H 
ATOM      9  H2  GOX d          -0.658  10.642   7.173  0.00  0.00     0.161 HD
ATOM     10  H5  GOX d           0.706   8.972  10.592  0.00  0.00     0.091 H 
ATOM     11  H7  GOX d          -1.750  10.813  10.594  0.00  0.00     0.090 H 
ATOM     12  H9  GOX d          -0.731   8.506   8.829  0.00  0.00     0.079 H 
ENDROOT
BRANCH   7  13
ATOM     13  C6  GOX d          -2.625   9.416   8.302  0.00  0.00     0.038 C 
ATOM     14  H10 GOX d          -3.382   9.555   9.088  0.00  0.00     0.077 H 
ATOM     15  H11 GOX d          -2.760   8.431   7.832  0.00  0.00     0.077 H 
BRANCH  13  16
ATOM     16  O6  GOX d          -2.791  10.421   7.320  0.00  0.00    -0.399 OA
ATOM     17  H12 GOX d          -2.069  11.037   7.374  0.00  0.00     0.209 HD
ENDBRANCH  13  16
ENDBRANCH   7  13
BRANCH   6  18
ATOM     18  O4  GOX d          -2.000   8.855  11.186  0.00  0.00    -0.391 OA
ATOM     19  H8  GOX d          -2.899   9.143  11.291  0.00  0.00     0.210 HD
ENDBRANCH   6  18
BRANCH   5  20
ATOM     20  O3  GOX d           0.250  10.012  12.334  0.00  0.00    -0.390 OA
ATOM     21  H6  GOX d          -0.608  10.246  12.669  0.00  0.00     0.210 HD
ENDBRANCH   5  20
BRANCH   2  22
ATOM     22  O7  GOX d           0.951  12.364   6.844  0.00  0.00    -0.265 OA
ATOM     23  H3  GOX d           1.389  11.701   6.323  0.00  0.00     0.247 HD
ENDBRANCH   2  22
BRANCH   3  24
ATOM     24  O2  GOX d           2.273  11.024  10.519  0.00  0.00    -0.385 OA
ATOM     25  H4  GOX d           2.568  10.158  10.267  0.00  0.00     0.210 HD
ENDBRANCH   3  24
TORSDOF 6
ENDMDL
