MODEL 1
REMARK VINA RESULT:      -9.8      0.000      0.000
REMARK  3 active torsions:
REMARK  status: ('A' for Active; 'I' for Inactive)
REMARK    1  A    between atoms: C10_12  and  C9_11 
REMARK    2  A    between atoms: C12_14  and  N2_15 
REMARK    3  A    between atoms: C14_17  and  C15_18 
ROOT
ATOM      1  C1  HUP d           0.612  69.011  60.938  0.00  0.00     0.245 A 
ATOM      2  O1  HUP d           0.077  69.524  59.919  0.00  0.00    -0.268 OA
ATOM      3  N1  HUP d           1.923  68.532  60.872  0.00  0.00    -0.327 N 
ATOM      4  C2  HUP d          -0.051  68.876  62.227  0.00  0.00    -0.017 A 
ATOM      5  C3  HUP d           0.602  68.296  63.296  0.00  0.00    -0.067 A 
ATOM      6  C4  HUP d           1.964  67.800  63.210  0.00  0.00     0.005 A 
ATOM      7  C5  HUP d           2.621  67.940  61.946  0.00  0.00     0.022 A 
ATOM      8  C6  HUP d           4.034  67.482  61.668  0.00  0.00    -0.016 C 
ATOM      9  C7  HUP d           4.765  66.877  62.947  0.00  0.00    -0.008 C 
ATOM     10  C8  HUP d           5.455  67.967  63.793  0.00  0.00    -0.093 C 
ATOM     11  C10 HUP d           3.739  64.836  64.124  0.00  0.00    -0.101 C 
ATOM     12  C11 HUP d           3.750  66.133  63.846  0.00  0.00    -0.036 C 
ATOM     13  C12 HUP d           2.718  67.123  64.437  0.00  0.00     0.179 C 
ATOM     14  C13 HUP d           3.443  68.202  65.294  0.00  0.00    -0.006 C 
ATOM     15  C14 HUP d           4.851  68.566  64.857  0.00  0.00    -0.084 C 
ATOM     16  H1  HUP d           2.402  68.614  59.998  0.00  0.00     0.169 HD
ATOM     17  H2  HUP d          -1.072  69.234  62.349  0.00  0.00     0.092 H 
ATOM     18  H3  HUP d           0.074  68.208  64.244  0.00  0.00     0.084 H 
ATOM     19  H4  HUP d           4.616  68.343  61.309  0.00  0.00     0.043 H 
ATOM     20  H5  HUP d           4.002  66.708  60.886  0.00  0.00     0.043 H 
ATOM     21  H6  HUP d           5.528  66.163  62.603  0.00  0.00     0.053 H 
ATOM     22  H7  HUP d           6.467  68.271  63.528  0.00  0.00     0.078 H 
ATOM     23  H11 HUP d           2.955  64.500  64.802  0.00  0.00     0.076 H 
ATOM     24  H15 HUP d           3.497  67.829  66.328  0.00  0.00     0.044 H 
ATOM     25  H16 HUP d           2.834  69.118  65.266  0.00  0.00     0.044 H 
ENDROOT
BRANCH  13  26
ATOM     26  N2  HUP d           1.732  66.423  65.307  0.00  0.00    -0.062 N 
ATOM     27  H12 HUP d           1.563  65.497  64.946  0.00  0.00     0.276 HD
ATOM     28  H13 HUP d           0.869  66.942  65.321  0.00  0.00     0.276 HD
ATOM     29  H14 HUP d           2.099  66.356  66.244  0.00  0.00     0.276 HD
ENDBRANCH  13  26
BRANCH  11  30
ATOM     30  C9  HUP d           4.673  63.777  63.622  0.00  0.00    -0.059 C 
ATOM     31  H8  HUP d           5.328  64.204  62.848  0.00  0.00     0.032 H 
ATOM     32  H9  HUP d           4.090  62.948  63.194  0.00  0.00     0.032 H 
ATOM     33  H10 HUP d           5.286  63.404  64.456  0.00  0.00     0.032 H 
ENDBRANCH  11  30
BRANCH  15  34
ATOM     34  C15 HUP d           5.512  69.631  65.707  0.00  0.00    -0.055 C 
ATOM     35  H17 HUP d           6.524  69.301  65.985  0.00  0.00     0.033 H 
ATOM     36  H18 HUP d           4.917  69.796  66.617  0.00  0.00     0.033 H 
ATOM     37  H19 HUP d           5.576  70.568  65.135  0.00  0.00     0.033 H 
ENDBRANCH  15  34
TORSDOF 3
ENDMDL
MODEL 2
REMARK VINA RESULT:      -9.5      1.373      3.476
REMARK  3 active torsions:
REMARK  status: ('A' for Active; 'I' for Inactive)
REMARK    1  A    between atoms: C10_12  and  C9_11 
REMARK    2  A    between atoms: C12_14  and  N2_15 
REMARK    3  A    between atoms: C14_17  and  C15_18 
ROOT
ATOM      1  C1  HUP d           0.520  68.929  61.369  0.00  0.00     0.245 A 
ATOM      2  O1  HUP d          -0.608  69.368  61.020  0.00  0.00    -0.268 OA
ATOM      3  N1  HUP d           0.834  68.808  62.725  0.00  0.00    -0.327 N 
ATOM      4  C2  HUP d           1.561  68.520  60.436  0.00  0.00    -0.017 A 
ATOM      5  C3  HUP d           2.775  68.054  60.898  0.00  0.00    -0.067 A 
ATOM      6  C4  HUP d           3.086  67.938  62.312  0.00  0.00     0.005 A 
ATOM      7  C5  HUP d           2.061  68.331  63.230  0.00  0.00     0.022 A 
ATOM      8  C6  HUP d           2.204  68.280  64.734  0.00  0.00    -0.016 C 
ATOM      9  C7  HUP d           3.598  67.679  65.216  0.00  0.00    -0.008 C 
ATOM     10  C8  HUP d           3.560  66.140  65.329  0.00  0.00    -0.093 C 
ATOM     11  C10 HUP d           5.776  68.832  64.488  0.00  0.00    -0.101 C 
ATOM     12  C11 HUP d           4.722  68.068  64.229  0.00  0.00    -0.036 C 
ATOM     13  C12 HUP d           4.488  67.409  62.849  0.00  0.00     0.179 C 
ATOM     14  C13 HUP d           4.468  65.859  62.993  0.00  0.00    -0.006 C 
ATOM     15  C14 HUP d           3.956  65.318  64.316  0.00  0.00    -0.084 C 
ATOM     16  H1  HUP d           0.135  69.081  63.387  0.00  0.00     0.169 HD
ATOM     17  H2  HUP d           1.380  68.584  59.364  0.00  0.00     0.092 H 
ATOM     18  H3  HUP d           3.532  67.761  60.172  0.00  0.00     0.084 H 
ATOM     19  H4  HUP d           1.396  67.656  65.141  0.00  0.00     0.043 H 
ATOM     20  H5  HUP d           2.111  69.304  65.127  0.00  0.00     0.043 H 
ATOM     21  H6  HUP d           3.830  68.098  66.207  0.00  0.00     0.053 H 
ATOM     22  H7  HUP d           3.202  65.694  66.255  0.00  0.00     0.078 H 
ATOM     23  H11 HUP d           6.477  68.973  63.667  0.00  0.00     0.076 H 
ATOM     24  H15 HUP d           5.497  65.496  62.856  0.00  0.00     0.044 H 
ATOM     25  H16 HUP d           3.827  65.456  62.194  0.00  0.00     0.044 H 
ENDROOT
BRANCH  13  26
ATOM     26  N2  HUP d           5.564  67.773  61.885  0.00  0.00    -0.062 N 
ATOM     27  H12 HUP d           6.464  67.643  62.321  0.00  0.00     0.276 HD
ATOM     28  H13 HUP d           5.459  68.737  61.611  0.00  0.00     0.276 HD
ATOM     29  H14 HUP d           5.499  67.183  61.070  0.00  0.00     0.276 HD
ENDBRANCH  13  26
BRANCH  11  30
ATOM     30  C9  HUP d           6.119  69.525  65.772  0.00  0.00    -0.059 C 
ATOM     31  H8  HUP d           6.440  70.555  65.558  0.00  0.00     0.032 H 
ATOM     32  H9  HUP d           6.934  68.983  66.274  0.00  0.00     0.032 H 
ATOM     33  H10 HUP d           5.234  69.544  66.426  0.00  0.00     0.032 H 
ENDBRANCH  11  30
BRANCH  15  34
ATOM     34  C15 HUP d           3.936  63.807  64.407  0.00  0.00    -0.055 C 
ATOM     35  H17 HUP d           4.527  63.383  63.582  0.00  0.00     0.033 H 
ATOM     36  H18 HUP d           2.899  63.449  64.338  0.00  0.00     0.033 H 
ATOM     37  H19 HUP d           4.370  63.493  65.368  0.00  0.00     0.033 H 
ENDBRANCH  15  34
TORSDOF 3
ENDMDL
MODEL 3
REMARK VINA RESULT:      -7.9      2.762      4.671
REMARK  3 active torsions:
REMARK  status: ('A' for Active; 'I' for Inactive)
REMARK    1  A    between atoms: C10_12  and  C9_11 
REMARK    2  A    between atoms: C12_14  and  N2_15 
REMARK    3  A    between atoms: C14_17  and  C15_18 
ROOT
ATOM      1  C1  HUP d           5.974  70.043  65.880  0.00  0.00     0.245 A 
ATOM      2  O1  HUP d           6.891  70.748  66.380  0.00  0.00    -0.268 OA
ATOM      3  N1  HUP d           6.163  69.426  64.641  0.00  0.00    -0.327 N 
ATOM      4  C2  HUP d           4.684  69.810  66.517  0.00  0.00    -0.017 A 
ATOM      5  C3  HUP d           3.728  69.028  65.901  0.00  0.00    -0.067 A 
ATOM      6  C4  HUP d           3.941  68.396  64.611  0.00  0.00     0.005 A 
ATOM      7  C5  HUP d           5.210  68.616  63.988  0.00  0.00     0.022 A 
ATOM      8  C6  HUP d           5.609  68.043  62.648  0.00  0.00    -0.016 C 
ATOM      9  C7  HUP d           4.497  67.100  62.008  0.00  0.00    -0.008 C 
ATOM     10  C8  HUP d           4.624  65.640  62.491  0.00  0.00    -0.093 C 
ATOM     11  C10 HUP d           2.165  68.066  61.528  0.00  0.00    -0.101 C 
ATOM     12  C11 HUP d           3.084  67.612  62.370  0.00  0.00    -0.036 C 
ATOM     13  C12 HUP d           2.838  67.501  63.894  0.00  0.00     0.179 C 
ATOM     14  C13 HUP d           2.959  66.017  64.348  0.00  0.00    -0.006 C 
ATOM     15  C14 HUP d           3.924  65.153  63.554  0.00  0.00    -0.084 C 
ATOM     16  H1  HUP d           7.041  69.569  64.183  0.00  0.00     0.169 HD
ATOM     17  H2  HUP d           4.473  70.257  67.487  0.00  0.00     0.092 H 
ATOM     18  H3  HUP d           2.775  68.878  66.404  0.00  0.00     0.084 H 
ATOM     19  H4  HUP d           6.530  67.456  62.780  0.00  0.00     0.043 H 
ATOM     20  H5  HUP d           5.801  68.876  61.955  0.00  0.00     0.043 H 
ATOM     21  H6  HUP d           4.616  67.119  60.914  0.00  0.00     0.053 H 
ATOM     22  H7  HUP d           5.300  64.972  61.961  0.00  0.00     0.078 H 
ATOM     23  H11 HUP d           1.214  68.360  61.971  0.00  0.00     0.076 H 
ATOM     24  H15 HUP d           1.961  65.560  64.276  0.00  0.00     0.044 H 
ATOM     25  H16 HUP d           3.290  66.013  65.397  0.00  0.00     0.044 H 
ENDROOT
BRANCH  13  26
ATOM     26  N2  HUP d           1.479  67.989  64.260  0.00  0.00    -0.062 N 
ATOM     27  H12 HUP d           1.074  67.372  64.947  0.00  0.00     0.276 HD
ATOM     28  H13 HUP d           0.895  68.008  63.439  0.00  0.00     0.276 HD
ATOM     29  H14 HUP d           1.547  68.919  64.644  0.00  0.00     0.276 HD
ENDBRANCH  13  26
BRANCH  11  30
ATOM     30  C9  HUP d           2.274  68.224  60.041  0.00  0.00    -0.059 C 
ATOM     31  H8  HUP d           2.196  69.289  59.779  0.00  0.00     0.032 H 
ATOM     32  H9  HUP d           1.462  67.665  59.553  0.00  0.00     0.032 H 
ATOM     33  H10 HUP d           3.245  67.833  59.702  0.00  0.00     0.032 H 
ENDBRANCH  11  30
BRANCH  15  34
ATOM     34  C15 HUP d           4.025  63.723  64.040  0.00  0.00    -0.055 C 
ATOM     35  H17 HUP d           3.096  63.186  63.794  0.00  0.00     0.033 H 
ATOM     36  H18 HUP d           4.175  63.715  65.129  0.00  0.00     0.033 H 
ATOM     37  H19 HUP d           4.876  63.228  63.549  0.00  0.00     0.033 H 
ENDBRANCH  15  34
TORSDOF 3
ENDMDL
MODEL 4
REMARK VINA RESULT:      -7.8      2.700      4.798
REMARK  3 active torsions:
REMARK  status: ('A' for Active; 'I' for Inactive)
REMARK    1  A    between atoms: C10_12  and  C9_11 
REMARK    2  A    between atoms: C12_14  and  N2_15 
REMARK    3  A    between atoms: C14_17  and  C15_18 
ROOT
ATOM      1  C1  HUP d           5.802  70.191  65.817  0.00  0.00     0.245 A 
ATOM      2  O1  HUP d           6.211  70.993  66.699  0.00  0.00    -0.268 OA
ATOM      3  N1  HUP d           4.736  69.332  66.096  0.00  0.00    -0.327 N 
ATOM      4  C2  HUP d           6.372  70.085  64.482  0.00  0.00    -0.017 A 
ATOM      5  C3  HUP d           5.871  69.175  63.574  0.00  0.00    -0.067 A 
ATOM      6  C4  HUP d           4.764  68.287  63.880  0.00  0.00     0.005 A 
ATOM      7  C5  HUP d           4.196  68.395  65.190  0.00  0.00     0.022 A 
ATOM      8  C6  HUP d           3.043  67.554  65.687  0.00  0.00    -0.016 C 
ATOM      9  C7  HUP d           2.461  66.564  64.584  0.00  0.00    -0.008 C 
ATOM     10  C8  HUP d           1.383  67.238  63.708  0.00  0.00    -0.093 C 
ATOM     11  C10 HUP d           4.016  64.809  63.534  0.00  0.00    -0.101 C 
ATOM     12  C11 HUP d           3.594  66.061  63.661  0.00  0.00    -0.036 C 
ATOM     13  C12 HUP d           4.188  67.230  62.839  0.00  0.00     0.179 C 
ATOM     14  C13 HUP d           3.081  67.879  61.957  0.00  0.00    -0.006 C 
ATOM     15  C14 HUP d           1.670  67.834  62.516  0.00  0.00    -0.084 C 
ATOM     16  H1  HUP d           4.325  69.385  67.006  0.00  0.00     0.169 HD
ATOM     17  H2  HUP d           7.203  70.729  64.197  0.00  0.00     0.092 H 
ATOM     18  H3  HUP d           6.324  69.121  62.585  0.00  0.00     0.084 H 
ATOM     19  H4  HUP d           2.236  68.227  66.013  0.00  0.00     0.043 H 
ATOM     20  H5  HUP d           3.391  66.957  66.543  0.00  0.00     0.043 H 
ATOM     21  H6  HUP d           2.008  65.703  65.098  0.00  0.00     0.053 H 
ATOM     22  H7  HUP d           0.352  67.236  64.057  0.00  0.00     0.078 H 
ATOM     23  H11 HUP d           4.814  64.646  62.810  0.00  0.00     0.076 H 
ATOM     24  H15 HUP d           3.076  67.360  60.988  0.00  0.00     0.044 H 
ATOM     25  H16 HUP d           3.349  68.935  61.807  0.00  0.00     0.044 H 
ENDROOT
BRANCH  13  26
ATOM     26  N2  HUP d           5.281  66.762  61.942  0.00  0.00    -0.062 N 
ATOM     27  H12 HUP d           5.863  66.103  62.437  0.00  0.00     0.276 HD
ATOM     28  H13 HUP d           5.838  67.549  61.652  0.00  0.00     0.276 HD
ATOM     29  H14 HUP d           4.883  66.315  61.131  0.00  0.00     0.276 HD
ENDBRANCH  13  26
BRANCH  11  30
ATOM     30  C9  HUP d           3.531  63.594  64.264  0.00  0.00    -0.059 C 
ATOM     31  H8  HUP d           4.066  63.503  65.221  0.00  0.00     0.032 H 
ATOM     32  H9  HUP d           3.719  62.699  63.652  0.00  0.00     0.032 H 
ATOM     33  H10 HUP d           2.451  63.688  64.454  0.00  0.00     0.032 H 
ENDBRANCH  11  30
BRANCH  15  34
ATOM     34  C15 HUP d           0.629  68.491  61.636  0.00  0.00    -0.055 C 
ATOM     35  H17 HUP d           0.273  67.769  60.887  0.00  0.00     0.033 H 
ATOM     36  H18 HUP d           1.074  69.359  61.127  0.00  0.00     0.033 H 
ATOM     37  H19 HUP d          -0.217  68.824  62.256  0.00  0.00     0.033 H 
ENDBRANCH  15  34
TORSDOF 3
ENDMDL
