MODEL 1
REMARK VINA RESULT:     -10.7      0.000      0.000
REMARK  8 active torsions:
REMARK  status: ('A' for Active; 'I' for Inactive)
REMARK    1  A    between atoms: CAA_1  and  OAN_2 
REMARK    2  A    between atoms: OAN_2  and  CAR_3 
REMARK    3  A    between atoms: CAQ_8  and  CAL_9 
REMARK    4  A    between atoms: CAL_9  and  CAU_10 
REMARK    5  A    between atoms: CAT_13  and  OAF_14 
REMARK    6  A    between atoms: CAS_15  and  OAE_16 
REMARK    7  A    between atoms: CAV_18  and  CAO_19 
REMARK    8  A    between atoms: CAV_18  and  OAG_22 
ROOT
ATOM      1  CAU XNW d          13.621   2.695  38.705  0.00  0.00     0.050 C 
ATOM      2  CAP XNW d          13.882   3.334  40.069  0.00  0.00     0.165 C 
ATOM      3  OAC XNW d          14.578   4.345  40.188  0.00  0.00    -0.294 OA
ATOM      4  CAT XNW d          13.254   2.720  41.301  0.00  0.00     0.118 C 
ATOM      5  CAS XNW d          11.765   2.510  41.026  0.00  0.00     0.070 C 
ATOM      6  CAM XNW d          11.476   1.837  39.661  0.00  0.00     0.001 C 
ATOM      7  CAV XNW d          12.113   2.564  38.469  0.00  0.00     0.158 C 
ATOM      8  H10 XNW d          14.061   1.687  38.694  0.00  0.00     0.058 H 
ATOM      9  H11 XNW d          13.742   1.764  41.547  0.00  0.00     0.099 H 
ATOM     10  H13 XNW d          11.280   3.498  41.014  0.00  0.00     0.087 H 
ATOM     11  H15 XNW d          10.386   1.811  39.510  0.00  0.00     0.042 H 
ATOM     12  H16 XNW d          11.866   0.809  39.691  0.00  0.00     0.042 H 
ENDROOT
BRANCH   1  13
ATOM     13  CAL XNW d          14.307   3.531  37.632  0.00  0.00    -0.028 C 
ATOM     14  H8  XNW d          13.672   3.522  36.734  0.00  0.00     0.041 H 
ATOM     15  H9  XNW d          14.397   4.561  38.008  0.00  0.00     0.041 H 
BRANCH  13  16
ATOM     16  CAQ XNW d          15.704   3.047  37.232  0.00  0.00    -0.057 A 
ATOM     17  CAI XNW d          16.691   3.218  38.155  0.00  0.00    -0.074 A 
ATOM     18  CAK XNW d          17.983   2.790  37.917  0.00  0.00    -0.050 A 
ATOM     19  H5  XNW d          16.458   3.701  39.098  0.00  0.00     0.084 H 
ATOM     20  CAR XNW d          18.367   2.187  36.748  0.00  0.00     0.068 A 
ATOM     21  H4  XNW d          18.727   2.938  38.691  0.00  0.00     0.087 H 
ATOM     22  CAJ XNW d          17.381   2.003  35.781  0.00  0.00    -0.050 A 
ATOM     23  CAH XNW d          16.060   2.435  36.032  0.00  0.00    -0.074 A 
ATOM     24  H6  XNW d          17.627   1.529  34.837  0.00  0.00     0.087 H 
ATOM     25  H7  XNW d          15.302   2.286  35.271  0.00  0.00     0.084 H 
BRANCH  20  26
ATOM     26  OAN XNW d          19.698   1.820  36.650  0.00  0.00    -0.356 OA
BRANCH  26  27
ATOM     27  CAA XNW d          19.903   0.892  35.585  0.00  0.00     0.010 C 
ATOM     28  H1  XNW d          19.818   1.415  34.622  0.00  0.00     0.066 H 
ATOM     29  H2  XNW d          19.143   0.098  35.639  0.00  0.00     0.066 H 
ATOM     30  H3  XNW d          20.904   0.447  35.675  0.00  0.00     0.066 H 
ENDBRANCH  26  27
ENDBRANCH  20  26
ENDBRANCH  13  16
ENDBRANCH   1  13
BRANCH   7  31
ATOM     31  CAO XNW d          11.870   1.733  37.190  0.00  0.00     0.210 C 
ATOM     32  OAD XNW d          11.498   0.535  37.346  0.00  0.00    -0.646 OA
ATOM     33  OAB XNW d          11.984   2.333  36.085  0.00  0.00    -0.646 OA
ENDBRANCH   7  31
BRANCH   7  34
ATOM     34  OAG XNW d          11.472   3.860  38.299  0.00  0.00    -0.378 OA
ATOM     35  H17 XNW d          10.893   4.026  39.033  0.00  0.00     0.211 HD
ENDBRANCH   7  34
BRANCH   4  36
ATOM     36  OAF XNW d          13.382   3.654  42.396  0.00  0.00    -0.385 OA
ATOM     37  H12 XNW d          13.371   4.541  42.057  0.00  0.00     0.210 HD
ENDBRANCH   4  36
BRANCH   5  38
ATOM     38  OAE XNW d          11.209   1.745  42.103  0.00  0.00    -0.392 OA
ATOM     39  H14 XNW d          10.268   1.678  41.989  0.00  0.00     0.210 HD
ENDBRANCH   5  38
TORSDOF 8
ENDMDL
