MODEL 1
REMARK VINA RESULT:      -4.8      0.000      0.000
REMARK  6 active torsions:
REMARK  status: ('A' for Active; 'I' for Inactive)
REMARK    1  A    between atoms: N_1  and  CA_2 
REMARK    2  A    between atoms: CA_2  and  C_3 
REMARK    3  A    between atoms: CA_2  and  CB_5 
REMARK    4  A    between atoms: CB_5  and  CG_6 
REMARK    5  A    between atoms: CG_6  and  CD1_7 
REMARK    6  A    between atoms: CG_6  and  CD2_8 
ROOT
ATOM      1  CB  LEU d          33.568  -3.342  37.962  0.00  0.00    -0.026 C 
ATOM      2  H5  LEU d          33.370  -3.972  38.842  0.00  0.00     0.037 H 
ATOM      3  H6  LEU d          34.088  -3.936  37.196  0.00  0.00     0.037 H 
ENDROOT
BRANCH   1   4
ATOM      4  CA  LEU d          34.448  -2.139  38.373  0.00  0.00     0.182 C 
ATOM      5  H4  LEU d          33.858  -1.219  38.247  0.00  0.00     0.101 H 
BRANCH   4   6
ATOM      6  N   LEU d          35.666  -2.041  37.514  0.00  0.00    -0.065 N 
ATOM      7  H1  LEU d          35.392  -2.014  36.544  0.00  0.00     0.275 HD
ATOM      8  H2  LEU d          36.255  -2.843  37.674  0.00  0.00     0.275 HD
ATOM      9  H3  LEU d          36.172  -1.201  37.744  0.00  0.00     0.275 HD
ENDBRANCH   4   6
BRANCH   4  10
ATOM     10  C   LEU d          34.859  -2.261  39.839  0.00  0.00     0.204 C 
ATOM     11  O   LEU d          35.794  -1.570  40.249  0.00  0.00    -0.646 OA
ATOM     12  OXT LEU d          34.098  -3.062  40.471  0.00  0.00    -0.646 OA
ENDBRANCH   4  10
ENDBRANCH   1   4
BRANCH   1  13
ATOM     13  CG  LEU d          32.254  -2.820  37.400  0.00  0.00    -0.059 C 
ATOM     14  H7  LEU d          31.541  -3.657  37.422  0.00  0.00     0.038 H 
BRANCH  13  15
ATOM     15  CD1 LEU d          31.629  -1.708  38.204  0.00  0.00    -0.073 C 
ATOM     16  H8  LEU d          31.164  -0.980  37.523  0.00  0.00     0.028 H 
ATOM     17  H9  LEU d          32.405  -1.207  38.802  0.00  0.00     0.028 H 
ATOM     18  H10 LEU d          30.863  -2.126  38.874  0.00  0.00     0.028 H 
ENDBRANCH  13  15
BRANCH  13  19
ATOM     19  CD2 LEU d          32.455  -2.430  35.941  0.00  0.00    -0.073 C 
ATOM     20  H11 LEU d          33.378  -2.894  35.562  0.00  0.00     0.028 H 
ATOM     21  H12 LEU d          32.535  -1.336  35.861  0.00  0.00     0.028 H 
ATOM     22  H13 LEU d          31.599  -2.780  35.347  0.00  0.00     0.028 H 
ENDBRANCH  13  19
ENDBRANCH   1  13
TORSDOF 6
ENDMDL
MODEL 2
REMARK VINA RESULT:      -4.7      1.425      1.963
REMARK  6 active torsions:
REMARK  status: ('A' for Active; 'I' for Inactive)
REMARK    1  A    between atoms: N_1  and  CA_2 
REMARK    2  A    between atoms: CA_2  and  C_3 
REMARK    3  A    between atoms: CA_2  and  CB_5 
REMARK    4  A    between atoms: CB_5  and  CG_6 
REMARK    5  A    between atoms: CG_6  and  CD1_7 
REMARK    6  A    between atoms: CG_6  and  CD2_8 
ROOT
ATOM      1  CB  LEU d          33.362  -2.904  38.433  0.00  0.00    -0.026 C 
ATOM      2  H5  LEU d          32.690  -3.318  39.199  0.00  0.00     0.037 H 
ATOM      3  H6  LEU d          33.934  -3.720  37.968  0.00  0.00     0.037 H 
ENDROOT
BRANCH   1   4
ATOM      4  CA  LEU d          34.334  -1.894  39.085  0.00  0.00     0.182 C 
ATOM      5  H4  LEU d          34.112  -1.844  40.161  0.00  0.00     0.101 H 
BRANCH   4   6
ATOM      6  N   LEU d          34.167  -0.529  38.503  0.00  0.00    -0.065 N 
ATOM      7  H1  LEU d          34.404   0.163  39.197  0.00  0.00     0.275 HD
ATOM      8  H2  LEU d          33.210  -0.402  38.215  0.00  0.00     0.275 HD
ATOM      9  H3  LEU d          34.774  -0.427  37.706  0.00  0.00     0.275 HD
ENDBRANCH   4   6
BRANCH   4  10
ATOM     10  C   LEU d          35.778  -2.358  38.905  0.00  0.00     0.204 C 
ATOM     11  O   LEU d          36.178  -2.614  37.767  0.00  0.00    -0.646 OA
ATOM     12  OXT LEU d          36.408  -2.361  40.011  0.00  0.00    -0.646 OA
ENDBRANCH   4  10
ENDBRANCH   1   4
BRANCH   1  13
ATOM     13  CG  LEU d          32.545  -2.184  37.371  0.00  0.00    -0.059 C 
ATOM     14  H7  LEU d          32.825  -1.121  37.416  0.00  0.00     0.038 H 
BRANCH  13  15
ATOM     15  CD1 LEU d          32.819  -2.636  35.959  0.00  0.00    -0.073 C 
ATOM     16  H8  LEU d          32.505  -1.852  35.255  0.00  0.00     0.028 H 
ATOM     17  H9  LEU d          32.257  -3.559  35.753  0.00  0.00     0.028 H 
ATOM     18  H10 LEU d          33.895  -2.828  35.838  0.00  0.00     0.028 H 
ENDBRANCH  13  15
BRANCH  13  19
ATOM     19  CD2 LEU d          31.067  -2.280  37.728  0.00  0.00    -0.073 C 
ATOM     20  H11 LEU d          30.793  -1.443  38.387  0.00  0.00     0.028 H 
ATOM     21  H12 LEU d          30.876  -3.232  38.245  0.00  0.00     0.028 H 
ATOM     22  H13 LEU d          30.464  -2.235  36.809  0.00  0.00     0.028 H 
ENDBRANCH  13  19
ENDBRANCH   1  13
TORSDOF 6
ENDMDL
MODEL 3
REMARK VINA RESULT:      -4.5      1.785      2.045
REMARK  6 active torsions:
REMARK  status: ('A' for Active; 'I' for Inactive)
REMARK    1  A    between atoms: N_1  and  CA_2 
REMARK    2  A    between atoms: CA_2  and  C_3 
REMARK    3  A    between atoms: CA_2  and  CB_5 
REMARK    4  A    between atoms: CB_5  and  CG_6 
REMARK    5  A    between atoms: CG_6  and  CD1_7 
REMARK    6  A    between atoms: CG_6  and  CD2_8 
ROOT
ATOM      1  CB  LEU d          33.511  -2.600  37.432  0.00  0.00    -0.026 C 
ATOM      2  H5  LEU d          33.219  -3.485  36.847  0.00  0.00     0.037 H 
ATOM      3  H6  LEU d          34.073  -1.906  36.791  0.00  0.00     0.037 H 
ENDROOT
BRANCH   1   4
ATOM      4  CA  LEU d          34.391  -3.034  38.626  0.00  0.00     0.182 C 
ATOM      5  H4  LEU d          34.456  -4.132  38.628  0.00  0.00     0.101 H 
BRANCH   4   6
ATOM      6  N   LEU d          33.798  -2.593  39.924  0.00  0.00    -0.065 N 
ATOM      7  H1  LEU d          33.846  -3.349  40.590  0.00  0.00     0.275 HD
ATOM      8  H2  LEU d          32.835  -2.331  39.782  0.00  0.00     0.275 HD
ATOM      9  H3  LEU d          34.313  -1.802  40.277  0.00  0.00     0.275 HD
ENDBRANCH   4   6
BRANCH   4  10
ATOM     10  C   LEU d          35.799  -2.460  38.481  0.00  0.00     0.204 C 
ATOM     11  O   LEU d          36.408  -2.127  39.500  0.00  0.00    -0.646 OA
ATOM     12  OXT LEU d          36.180  -2.461  37.266  0.00  0.00    -0.646 OA
ENDBRANCH   4  10
ENDBRANCH   1   4
BRANCH   1  13
ATOM     13  CG  LEU d          32.266  -1.907  37.965  0.00  0.00    -0.059 C 
ATOM     14  H7  LEU d          32.216  -2.121  39.044  0.00  0.00     0.038 H 
BRANCH  13  15
ATOM     15  CD1 LEU d          32.282  -0.405  37.830  0.00  0.00    -0.073 C 
ATOM     16  H8  LEU d          31.252  -0.036  37.716  0.00  0.00     0.028 H 
ATOM     17  H9  LEU d          32.872  -0.122  36.946  0.00  0.00     0.028 H 
ATOM     18  H10 LEU d          32.733   0.040  38.729  0.00  0.00     0.028 H 
ENDBRANCH  13  15
BRANCH  13  19
ATOM     19  CD2 LEU d          31.034  -2.528  37.321  0.00  0.00    -0.073 C 
ATOM     20  H11 LEU d          30.531  -3.184  38.046  0.00  0.00     0.028 H 
ATOM     21  H12 LEU d          31.337  -3.117  36.442  0.00  0.00     0.028 H 
ATOM     22  H13 LEU d          30.343  -1.732  37.007  0.00  0.00     0.028 H 
ENDBRANCH  13  19
ENDBRANCH   1  13
TORSDOF 6
ENDMDL
MODEL 4
REMARK VINA RESULT:      -3.7      2.658      3.886
REMARK  6 active torsions:
REMARK  status: ('A' for Active; 'I' for Inactive)
REMARK    1  A    between atoms: N_1  and  CA_2 
REMARK    2  A    between atoms: CA_2  and  C_3 
REMARK    3  A    between atoms: CA_2  and  CB_5 
REMARK    4  A    between atoms: CB_5  and  CG_6 
REMARK    5  A    between atoms: CG_6  and  CD1_7 
REMARK    6  A    between atoms: CG_6  and  CD2_8 
ROOT
ATOM      1  CB  LEU d          34.044  -1.036  39.052  0.00  0.00    -0.026 C 
ATOM      2  H5  LEU d          34.249  -0.374  39.906  0.00  0.00     0.037 H 
ATOM      3  H6  LEU d          34.123  -0.463  38.116  0.00  0.00     0.037 H 
ENDROOT
BRANCH   1   4
ATOM      4  CA  LEU d          32.621  -1.626  39.181  0.00  0.00     0.182 C 
ATOM      5  H4  LEU d          31.947  -0.830  39.532  0.00  0.00     0.101 H 
BRANCH   4   6
ATOM      6  N   LEU d          32.587  -2.746  40.168  0.00  0.00    -0.065 N 
ATOM      7  H1  LEU d          31.917  -2.535  40.892  0.00  0.00     0.275 HD
ATOM      8  H2  LEU d          33.500  -2.860  40.577  0.00  0.00     0.275 HD
ATOM      9  H3  LEU d          32.319  -3.597  39.700  0.00  0.00     0.275 HD
ENDBRANCH   4   6
BRANCH   4  10
ATOM     10  C   LEU d          32.128  -2.120  37.822  0.00  0.00     0.204 C 
ATOM     11  O   LEU d          32.353  -1.429  36.826  0.00  0.00    -0.646 OA
ATOM     12  OXT LEU d          31.576  -3.263  37.914  0.00  0.00    -0.646 OA
ENDBRANCH   4  10
ENDBRANCH   1   4
BRANCH   1  13
ATOM     13  CG  LEU d          35.049  -2.178  39.037  0.00  0.00    -0.059 C 
ATOM     14  H7  LEU d          34.482  -3.107  39.193  0.00  0.00     0.038 H 
BRANCH  13  15
ATOM     15  CD1 LEU d          35.787  -2.343  37.732  0.00  0.00    -0.073 C 
ATOM     16  H8  LEU d          36.776  -2.785  37.924  0.00  0.00     0.028 H 
ATOM     17  H9  LEU d          35.912  -1.361  37.254  0.00  0.00     0.028 H 
ATOM     18  H10 LEU d          35.213  -3.005  37.068  0.00  0.00     0.028 H 
ENDBRANCH  13  15
BRANCH  13  19
ATOM     19  CD2 LEU d          35.999  -2.021  40.218  0.00  0.00    -0.073 C 
ATOM     20  H11 LEU d          35.439  -2.137  41.157  0.00  0.00     0.028 H 
ATOM     21  H12 LEU d          36.460  -1.023  40.187  0.00  0.00     0.028 H 
ATOM     22  H13 LEU d          36.784  -2.789  40.162  0.00  0.00     0.028 H 
ENDBRANCH  13  19
ENDBRANCH   1  13
TORSDOF 6
ENDMDL
MODEL 5
REMARK VINA RESULT:      -3.7      0.994      1.273
REMARK  6 active torsions:
REMARK  status: ('A' for Active; 'I' for Inactive)
REMARK    1  A    between atoms: N_1  and  CA_2 
REMARK    2  A    between atoms: CA_2  and  C_3 
REMARK    3  A    between atoms: CA_2  and  CB_5 
REMARK    4  A    between atoms: CB_5  and  CG_6 
REMARK    5  A    between atoms: CG_6  and  CD1_7 
REMARK    6  A    between atoms: CG_6  and  CD2_8 
ROOT
ATOM      1  CB  LEU d          33.164  -3.283  38.712  0.00  0.00    -0.026 C 
ATOM      2  H5  LEU d          32.850  -3.723  39.670  0.00  0.00     0.037 H 
ATOM      3  H6  LEU d          33.722  -4.031  38.130  0.00  0.00     0.037 H 
ENDROOT
BRANCH   1   4
ATOM      4  CA  LEU d          34.063  -2.053  38.976  0.00  0.00     0.182 C 
ATOM      5  H4  LEU d          33.504  -1.343  39.602  0.00  0.00     0.101 H 
BRANCH   4   6
ATOM      6  N   LEU d          34.434  -1.370  37.701  0.00  0.00    -0.065 N 
ATOM      7  H1  LEU d          34.217  -1.973  36.921  0.00  0.00     0.275 HD
ATOM      8  H2  LEU d          35.420  -1.166  37.704  0.00  0.00     0.275 HD
ATOM      9  H3  LEU d          33.913  -0.511  37.616  0.00  0.00     0.275 HD
ENDBRANCH   4   6
BRANCH   4  10
ATOM     10  C   LEU d          35.327  -2.473  39.722  0.00  0.00     0.204 C 
ATOM     11  O   LEU d          35.229  -2.815  40.903  0.00  0.00    -0.646 OA
ATOM     12  OXT LEU d          36.346  -2.463  38.958  0.00  0.00    -0.646 OA
ENDBRANCH   4  10
ENDBRANCH   1   4
BRANCH   1  13
ATOM     13  CG  LEU d          31.939  -2.837  37.928  0.00  0.00    -0.059 C 
ATOM     14  H7  LEU d          31.130  -3.544  38.166  0.00  0.00     0.038 H 
BRANCH  13  15
ATOM     15  CD1 LEU d          31.428  -1.466  38.295  0.00  0.00    -0.073 C 
ATOM     16  H8  LEU d          30.620  -1.179  37.606  0.00  0.00     0.028 H 
ATOM     17  H9  LEU d          32.248  -0.737  38.223  0.00  0.00     0.028 H 
ATOM     18  H10 LEU d          31.042  -1.483  39.325  0.00  0.00     0.028 H 
ENDBRANCH  13  15
BRANCH  13  19
ATOM     19  CD2 LEU d          32.228  -2.961  36.438  0.00  0.00    -0.073 C 
ATOM     20  H11 LEU d          32.904  -3.811  36.264  0.00  0.00     0.028 H 
ATOM     21  H12 LEU d          32.703  -2.036  36.078  0.00  0.00     0.028 H 
ATOM     22  H13 LEU d          31.287  -3.124  35.894  0.00  0.00     0.028 H 
ENDBRANCH  13  19
ENDBRANCH   1  13
TORSDOF 6
ENDMDL
MODEL 6
REMARK VINA RESULT:      -3.6      2.651      3.763
REMARK  6 active torsions:
REMARK  status: ('A' for Active; 'I' for Inactive)
REMARK    1  A    between atoms: N_1  and  CA_2 
REMARK    2  A    between atoms: CA_2  and  C_3 
REMARK    3  A    between atoms: CA_2  and  CB_5 
REMARK    4  A    between atoms: CB_5  and  CG_6 
REMARK    5  A    between atoms: CG_6  and  CD1_7 
REMARK    6  A    between atoms: CG_6  and  CD2_8 
ROOT
ATOM      1  CB  LEU d          33.321  -2.666  38.847  0.00  0.00    -0.026 C 
ATOM      2  H5  LEU d          33.776  -3.482  39.429  0.00  0.00     0.037 H 
ATOM      3  H6  LEU d          32.315  -2.455  39.237  0.00  0.00     0.037 H 
ENDROOT
BRANCH   1   4
ATOM      4  CA  LEU d          33.226  -3.079  37.360  0.00  0.00     0.182 C 
ATOM      5  H4  LEU d          33.177  -4.176  37.307  0.00  0.00     0.101 H 
BRANCH   4   6
ATOM      6  N   LEU d          34.423  -2.621  36.594  0.00  0.00    -0.065 N 
ATOM      7  H1  LEU d          35.231  -2.627  37.197  0.00  0.00     0.275 HD
ATOM      8  H2  LEU d          34.266  -1.687  36.252  0.00  0.00     0.275 HD
ATOM      9  H3  LEU d          34.581  -3.242  35.815  0.00  0.00     0.275 HD
ENDBRANCH   4   6
BRANCH   4  10
ATOM     10  C   LEU d          31.960  -2.502  36.732  0.00  0.00     0.204 C 
ATOM     11  O   LEU d          30.876  -2.725  37.276  0.00  0.00    -0.646 OA
ATOM     12  OXT LEU d          32.228  -1.788  35.712  0.00  0.00    -0.646 OA
ENDBRANCH   4  10
ENDBRANCH   1   4
BRANCH   1  13
ATOM     13  CG  LEU d          34.185  -1.418  38.956  0.00  0.00    -0.059 C 
ATOM     14  H7  LEU d          34.704  -1.302  37.993  0.00  0.00     0.038 H 
BRANCH  13  15
ATOM     15  CD1 LEU d          33.412  -0.143  39.181  0.00  0.00    -0.073 C 
ATOM     16  H8  LEU d          34.109   0.667  39.443  0.00  0.00     0.028 H 
ATOM     17  H9  LEU d          32.694  -0.288  40.001  0.00  0.00     0.028 H 
ATOM     18  H10 LEU d          32.870   0.124  38.261  0.00  0.00     0.028 H 
ENDBRANCH  13  15
BRANCH  13  19
ATOM     19  CD2 LEU d          35.249  -1.640  40.023  0.00  0.00    -0.073 C 
ATOM     20  H11 LEU d          36.239  -1.402  39.608  0.00  0.00     0.028 H 
ATOM     21  H12 LEU d          35.230  -2.691  40.347  0.00  0.00     0.028 H 
ATOM     22  H13 LEU d          35.046  -0.987  40.885  0.00  0.00     0.028 H 
ENDBRANCH  13  19
ENDBRANCH   1  13
TORSDOF 6
ENDMDL
MODEL 7
REMARK VINA RESULT:      -3.6      2.747      3.907
REMARK  6 active torsions:
REMARK  status: ('A' for Active; 'I' for Inactive)
REMARK    1  A    between atoms: N_1  and  CA_2 
REMARK    2  A    between atoms: CA_2  and  C_3 
REMARK    3  A    between atoms: CA_2  and  CB_5 
REMARK    4  A    between atoms: CB_5  and  CG_6 
REMARK    5  A    between atoms: CG_6  and  CD1_7 
REMARK    6  A    between atoms: CG_6  and  CD2_8 
ROOT
ATOM      1  CB  LEU d          33.733  -2.212  38.999  0.00  0.00    -0.026 C 
ATOM      2  H5  LEU d          33.606  -3.305  38.964  0.00  0.00     0.037 H 
ATOM      3  H6  LEU d          33.160  -1.804  39.845  0.00  0.00     0.037 H 
ENDROOT
BRANCH   1   4
ATOM      4  CA  LEU d          33.228  -1.587  37.679  0.00  0.00     0.182 C 
ATOM      5  H4  LEU d          34.073  -1.527  36.978  0.00  0.00     0.101 H 
BRANCH   4   6
ATOM      6  N   LEU d          32.698  -0.208  37.901  0.00  0.00    -0.065 N 
ATOM      7  H1  LEU d          33.321   0.463  37.478  0.00  0.00     0.275 HD
ATOM      8  H2  LEU d          32.633  -0.029  38.890  0.00  0.00     0.275 HD
ATOM      9  H3  LEU d          31.785  -0.129  37.484  0.00  0.00     0.275 HD
ENDBRANCH   4   6
BRANCH   4  10
ATOM     10  C   LEU d          32.141  -2.464  37.062  0.00  0.00     0.204 C 
ATOM     11  O   LEU d          31.053  -2.548  37.636  0.00  0.00    -0.646 OA
ATOM     12  OXT LEU d          32.519  -2.965  35.953  0.00  0.00    -0.646 OA
ENDBRANCH   4  10
ENDBRANCH   1   4
BRANCH   1  13
ATOM     13  CG  LEU d          35.207  -1.874  39.171  0.00  0.00    -0.059 C 
ATOM     14  H7  LEU d          35.277  -0.780  39.259  0.00  0.00     0.038 H 
BRANCH  13  15
ATOM     15  CD1 LEU d          35.837  -2.443  40.417  0.00  0.00    -0.073 C 
ATOM     16  H8  LEU d          36.575  -3.209  40.138  0.00  0.00     0.028 H 
ATOM     17  H9  LEU d          35.058  -2.897  41.048  0.00  0.00     0.028 H 
ATOM     18  H10 LEU d          36.337  -1.638  40.975  0.00  0.00     0.028 H 
ENDBRANCH  13  15
BRANCH  13  19
ATOM     19  CD2 LEU d          35.961  -2.279  37.910  0.00  0.00    -0.073 C 
ATOM     20  H11 LEU d          36.893  -1.700  37.839  0.00  0.00     0.028 H 
ATOM     21  H12 LEU d          35.336  -2.077  37.028  0.00  0.00     0.028 H 
ATOM     22  H13 LEU d          36.198  -3.352  37.953  0.00  0.00     0.028 H 
ENDBRANCH  13  19
ENDBRANCH   1  13
TORSDOF 6
ENDMDL
MODEL 8
REMARK VINA RESULT:      -3.4      2.292      3.930
REMARK  6 active torsions:
REMARK  status: ('A' for Active; 'I' for Inactive)
REMARK    1  A    between atoms: N_1  and  CA_2 
REMARK    2  A    between atoms: CA_2  and  C_3 
REMARK    3  A    between atoms: CA_2  and  CB_5 
REMARK    4  A    between atoms: CB_5  and  CG_6 
REMARK    5  A    between atoms: CG_6  and  CD1_7 
REMARK    6  A    between atoms: CG_6  and  CD2_8 
ROOT
ATOM      1  CB  LEU d          34.061  -1.759  38.727  0.00  0.00    -0.026 C 
ATOM      2  H5  LEU d          33.474  -1.620  39.647  0.00  0.00     0.037 H 
ATOM      3  H6  LEU d          34.284  -0.778  38.283  0.00  0.00     0.037 H 
ENDROOT
BRANCH   1   4
ATOM      4  CA  LEU d          33.255  -2.613  37.721  0.00  0.00     0.182 C 
ATOM      5  H4  LEU d          33.365  -3.671  37.999  0.00  0.00     0.101 H 
BRANCH   4   6
ATOM      6  N   LEU d          33.765  -2.434  36.329  0.00  0.00    -0.065 N 
ATOM      7  H1  LEU d          33.615  -3.282  35.805  0.00  0.00     0.275 HD
ATOM      8  H2  LEU d          34.750  -2.225  36.356  0.00  0.00     0.275 HD
ATOM      9  H3  LEU d          33.272  -1.674  35.886  0.00  0.00     0.275 HD
ENDBRANCH   4   6
BRANCH   4  10
ATOM     10  C   LEU d          31.775  -2.242  37.781  0.00  0.00     0.204 C 
ATOM     11  O   LEU d          31.017  -2.699  36.922  0.00  0.00    -0.646 OA
ATOM     12  OXT LEU d          31.515  -1.520  38.797  0.00  0.00    -0.646 OA
ENDBRANCH   4  10
ENDBRANCH   1   4
BRANCH   1  13
ATOM     13  CG  LEU d          35.361  -2.479  39.053  0.00  0.00    -0.059 C 
ATOM     14  H7  LEU d          35.116  -3.546  39.167  0.00  0.00     0.038 H 
BRANCH  13  15
ATOM     15  CD1 LEU d          36.408  -2.397  37.971  0.00  0.00    -0.073 C 
ATOM     16  H8  LEU d          37.254  -1.788  38.325  0.00  0.00     0.028 H 
ATOM     17  H9  LEU d          35.973  -1.933  37.073  0.00  0.00     0.028 H 
ATOM     18  H10 LEU d          36.762  -3.409  37.726  0.00  0.00     0.028 H 
ENDBRANCH  13  15
BRANCH  13  19
ATOM     19  CD2 LEU d          35.882  -1.985  40.396  0.00  0.00    -0.073 C 
ATOM     20  H11 LEU d          36.884  -2.402  40.577  0.00  0.00     0.028 H 
ATOM     21  H12 LEU d          35.200  -2.308  41.196  0.00  0.00     0.028 H 
ATOM     22  H13 LEU d          35.939  -0.886  40.385  0.00  0.00     0.028 H 
ENDBRANCH  13  19
ENDBRANCH   1  13
TORSDOF 6
ENDMDL
MODEL 9
REMARK VINA RESULT:      -3.4      2.083      3.189
REMARK  6 active torsions:
REMARK  status: ('A' for Active; 'I' for Inactive)
REMARK    1  A    between atoms: N_1  and  CA_2 
REMARK    2  A    between atoms: CA_2  and  C_3 
REMARK    3  A    between atoms: CA_2  and  CB_5 
REMARK    4  A    between atoms: CB_5  and  CG_6 
REMARK    5  A    between atoms: CG_6  and  CD1_7 
REMARK    6  A    between atoms: CG_6  and  CD2_8 
ROOT
ATOM      1  CB  LEU d          33.888  -3.254  38.260  0.00  0.00    -0.026 C 
ATOM      2  H5  LEU d          34.272  -3.962  37.510  0.00  0.00     0.037 H 
ATOM      3  H6  LEU d          33.592  -3.804  39.165  0.00  0.00     0.037 H 
ENDROOT
BRANCH   1   4
ATOM      4  CA  LEU d          32.666  -2.501  37.686  0.00  0.00     0.182 C 
ATOM      5  H4  LEU d          31.799  -3.176  37.714  0.00  0.00     0.101 H 
BRANCH   4   6
ATOM      6  N   LEU d          32.900  -2.088  36.270  0.00  0.00    -0.065 N 
ATOM      7  H1  LEU d          33.058  -2.908  35.703  0.00  0.00     0.275 HD
ATOM      8  H2  LEU d          33.708  -1.488  36.224  0.00  0.00     0.275 HD
ATOM      9  H3  LEU d          32.093  -1.593  35.927  0.00  0.00     0.275 HD
ENDBRANCH   4   6
BRANCH   4  10
ATOM     10  C   LEU d          32.356  -1.271  38.537  0.00  0.00     0.204 C 
ATOM     11  O   LEU d          32.332  -0.166  37.991  0.00  0.00    -0.646 OA
ATOM     12  OXT LEU d          32.100  -1.591  39.743  0.00  0.00    -0.646 OA
ENDBRANCH   4  10
ENDBRANCH   1   4
BRANCH   1  13
ATOM     13  CG  LEU d          34.970  -2.242  38.608  0.00  0.00    -0.059 C 
ATOM     14  H7  LEU d          34.516  -1.243  38.518  0.00  0.00     0.038 H 
BRANCH  13  15
ATOM     15  CD1 LEU d          35.492  -2.347  40.019  0.00  0.00    -0.073 C 
ATOM     16  H8  LEU d          36.061  -1.438  40.267  0.00  0.00     0.028 H 
ATOM     17  H9  LEU d          36.149  -3.225  40.103  0.00  0.00     0.028 H 
ATOM     18  H10 LEU d          34.647  -2.452  40.715  0.00  0.00     0.028 H 
ENDBRANCH  13  15
BRANCH  13  19
ATOM     19  CD2 LEU d          36.086  -2.330  37.575  0.00  0.00    -0.073 C 
ATOM     20  H11 LEU d          35.661  -2.221  36.566  0.00  0.00     0.028 H 
ATOM     21  H12 LEU d          36.587  -3.305  37.658  0.00  0.00     0.028 H 
ATOM     22  H13 LEU d          36.816  -1.527  37.754  0.00  0.00     0.028 H 
ENDBRANCH  13  19
ENDBRANCH   1  13
TORSDOF 6
ENDMDL
MODEL 10
REMARK VINA RESULT:      -2.5      1.609      1.663
REMARK  6 active torsions:
REMARK  status: ('A' for Active; 'I' for Inactive)
REMARK    1  A    between atoms: N_1  and  CA_2 
REMARK    2  A    between atoms: CA_2  and  C_3 
REMARK    3  A    between atoms: CA_2  and  CB_5 
REMARK    4  A    between atoms: CB_5  and  CG_6 
REMARK    5  A    between atoms: CG_6  and  CD1_7 
REMARK    6  A    between atoms: CG_6  and  CD2_8 
ROOT
ATOM      1  CB  LEU d          33.050  -3.517  38.157  0.00  0.00    -0.026 C 
ATOM      2  H5  LEU d          32.575  -4.463  38.458  0.00  0.00     0.037 H 
ATOM      3  H6  LEU d          33.925  -3.732  37.525  0.00  0.00     0.037 H 
ENDROOT
BRANCH   1   4
ATOM      4  CA  LEU d          33.497  -2.737  39.414  0.00  0.00     0.182 C 
ATOM      5  H4  LEU d          33.456  -3.418  40.277  0.00  0.00     0.101 H 
BRANCH   4   6
ATOM      6  N   LEU d          32.592  -1.579  39.682  0.00  0.00    -0.065 N 
ATOM      7  H1  LEU d          31.649  -1.912  39.811  0.00  0.00     0.275 HD
ATOM      8  H2  LEU d          32.620  -0.944  38.901  0.00  0.00     0.275 HD
ATOM      9  H3  LEU d          32.897  -1.101  40.515  0.00  0.00     0.275 HD
ENDBRANCH   4   6
BRANCH   4  10
ATOM     10  C   LEU d          34.932  -2.242  39.248  0.00  0.00     0.204 C 
ATOM     11  O   LEU d          35.402  -1.494  40.107  0.00  0.00    -0.646 OA
ATOM     12  OXT LEU d          35.483  -2.748  38.217  0.00  0.00    -0.646 OA
ENDBRANCH   4  10
ENDBRANCH   1   4
BRANCH   1  13
ATOM     13  CG  LEU d          32.055  -2.669  37.379  0.00  0.00    -0.059 C 
ATOM     14  H7  LEU d          31.173  -3.300  37.192  0.00  0.00     0.038 H 
BRANCH  13  15
ATOM     15  CD1 LEU d          31.558  -1.453  38.121  0.00  0.00    -0.073 C 
ATOM     16  H8  LEU d          32.049  -0.554  37.721  0.00  0.00     0.028 H 
ATOM     17  H9  LEU d          31.794  -1.554  39.190  0.00  0.00     0.028 H 
ATOM     18  H10 LEU d          30.470  -1.365  37.992  0.00  0.00     0.028 H 
ENDBRANCH  13  15
BRANCH  13  19
ATOM     19  CD2 LEU d          32.655  -2.311  36.026  0.00  0.00    -0.073 C 
ATOM     20  H11 LEU d          33.361  -1.476  36.148  0.00  0.00     0.028 H 
ATOM     21  H12 LEU d          31.852  -2.014  35.336  0.00  0.00     0.028 H 
ATOM     22  H13 LEU d          33.186  -3.183  35.618  0.00  0.00     0.028 H 
ENDBRANCH  13  19
ENDBRANCH   1  13
TORSDOF 6
ENDMDL
