MODEL 1
REMARK VINA RESULT:      -5.8      0.000      0.000
REMARK  2 active torsions:
REMARK  status: ('A' for Active; 'I' for Inactive)
REMARK    1  A    between atoms: OAH_8  and  CAA_1 
REMARK    2  A    between atoms: OAH_8  and  CAI_9 
ROOT
ATOM      1  CAB BZ3 d          12.340   9.238  -4.552  0.00  0.00    -0.022 A 
ATOM      2  CAC BZ3 d          14.429  10.766  -0.767  0.00  0.00    -0.049 A 
ATOM      3  CAD BZ3 d          13.725   9.161  -4.596  0.00  0.00    -0.056 A 
ATOM      4  CAE BZ3 d          13.146  10.593  -1.287  0.00  0.00    -0.054 A 
ATOM      5  CAF BZ3 d          15.389   9.863  -2.804  0.00  0.00    -0.039 A 
ATOM      6  NAG BZ3 d          11.939   9.753  -3.355  0.00  0.00    -0.365 N 
ATOM      7  CAI BZ3 d          15.543  10.394  -1.517  0.00  0.00     0.069 A 
ATOM      8  CAJ BZ3 d          14.103   9.687  -3.325  0.00  0.00    -0.005 A 
ATOM      9  CAK BZ3 d          13.003  10.054  -2.576  0.00  0.00     0.042 A 
ATOM     10  H4  BZ3 d          11.670   8.932  -5.355  0.00  0.00     0.111 H 
ATOM     11  H5  BZ3 d          14.560  11.191   0.222  0.00  0.00     0.087 H 
ATOM     12  H6  BZ3 d          14.363   8.792  -5.398  0.00  0.00     0.086 H 
ATOM     13  H7  BZ3 d          12.273  10.870  -0.707  0.00  0.00     0.087 H 
ATOM     14  H8  BZ3 d          16.259   9.591  -3.390  0.00  0.00     0.089 H 
ATOM     15  H9  BZ3 d          10.956   9.894  -3.080  0.00  0.00     0.165 HD
ENDROOT
BRANCH   7  16
ATOM     16  OAH BZ3 d          16.798  10.579  -0.986  0.00  0.00    -0.356 OA
BRANCH  16  17
ATOM     17  CAA BZ3 d          16.967  11.124   0.324  0.00  0.00     0.010 C 
ATOM     18  H1  BZ3 d          16.872  10.322   1.071  0.00  0.00     0.066 H 
ATOM     19  H2  BZ3 d          16.197  11.888   0.505  0.00  0.00     0.066 H 
ATOM     20  H3  BZ3 d          17.964  11.583   0.405  0.00  0.00     0.066 H 
ENDBRANCH  16  17
ENDBRANCH   7  16
TORSDOF 2
ENDMDL
MODEL 2
REMARK VINA RESULT:      -5.8      2.548      4.549
REMARK  2 active torsions:
REMARK  status: ('A' for Active; 'I' for Inactive)
REMARK    1  A    between atoms: OAH_8  and  CAA_1 
REMARK    2  A    between atoms: OAH_8  and  CAI_9 
ROOT
ATOM      1  CAB BZ3 d          14.911  10.417  -0.113  0.00  0.00    -0.022 A 
ATOM      2  CAC BZ3 d          14.529   9.705  -4.626  0.00  0.00    -0.049 A 
ATOM      3  CAD BZ3 d          13.604  10.266  -0.556  0.00  0.00    -0.056 A 
ATOM      4  CAE BZ3 d          15.507   9.910  -3.652  0.00  0.00    -0.054 A 
ATOM      5  CAF BZ3 d          12.797   9.859  -2.935  0.00  0.00    -0.039 A 
ATOM      6  NAG BZ3 d          15.775  10.300  -1.160  0.00  0.00    -0.365 N 
ATOM      7  CAI BZ3 d          13.183   9.669  -4.267  0.00  0.00     0.069 A 
ATOM      8  CAJ BZ3 d          13.777  10.063  -1.958  0.00  0.00    -0.005 A 
ATOM      9  CAK BZ3 d          15.109  10.093  -2.319  0.00  0.00     0.042 A 
ATOM     10  H4  BZ3 d          15.203  10.601   0.920  0.00  0.00     0.111 H 
ATOM     11  H5  BZ3 d          14.816   9.572  -5.663  0.00  0.00     0.087 H 
ATOM     12  H6  BZ3 d          12.680  10.296   0.020  0.00  0.00     0.086 H 
ATOM     13  H7  BZ3 d          16.557   9.929  -3.921  0.00  0.00     0.087 H 
ATOM     14  H8  BZ3 d          11.748   9.848  -2.663  0.00  0.00     0.089 H 
ATOM     15  H9  BZ3 d          16.801  10.360  -1.080  0.00  0.00     0.165 HD
ENDROOT
BRANCH   7  16
ATOM     16  OAH BZ3 d          12.236   9.471  -5.244  0.00  0.00    -0.356 OA
BRANCH  16  17
ATOM     17  CAA BZ3 d          10.843   9.597  -4.953  0.00  0.00     0.010 C 
ATOM     18  H1  BZ3 d          10.443  10.492  -5.451  0.00  0.00     0.066 H 
ATOM     19  H2  BZ3 d          10.703   9.688  -3.865  0.00  0.00     0.066 H 
ATOM     20  H3  BZ3 d          10.309   8.706  -5.317  0.00  0.00     0.066 H 
ENDBRANCH  16  17
ENDBRANCH   7  16
TORSDOF 2
ENDMDL
MODEL 3
REMARK VINA RESULT:      -5.1      2.262      4.224
REMARK  2 active torsions:
REMARK  status: ('A' for Active; 'I' for Inactive)
REMARK    1  A    between atoms: OAH_8  and  CAA_1 
REMARK    2  A    between atoms: OAH_8  and  CAI_9 
ROOT
ATOM      1  CAB BZ3 d          16.501  10.916   0.072  0.00  0.00    -0.022 A 
ATOM      2  CAC BZ3 d          12.651  10.127  -2.289  0.00  0.00    -0.049 A 
ATOM      3  CAD BZ3 d          16.711  10.484  -1.231  0.00  0.00    -0.056 A 
ATOM      4  CAE BZ3 d          13.065  10.551  -1.026  0.00  0.00    -0.054 A 
ATOM      5  CAF BZ3 d          14.963   9.894  -2.983  0.00  0.00    -0.039 A 
ATOM      6  NAG BZ3 d          15.164  11.009   0.323  0.00  0.00    -0.365 N 
ATOM      7  CAI BZ3 d          13.595   9.810  -3.264  0.00  0.00     0.069 A 
ATOM      8  CAJ BZ3 d          15.380  10.322  -1.718  0.00  0.00    -0.005 A 
ATOM      9  CAK BZ3 d          14.441  10.637  -0.757  0.00  0.00     0.042 A 
ATOM     10  H4  BZ3 d          17.288  11.146   0.789  0.00  0.00     0.111 H 
ATOM     11  H5  BZ3 d          11.593  10.043  -2.513  0.00  0.00     0.087 H 
ATOM     12  H6  BZ3 d          17.653  10.313  -1.749  0.00  0.00     0.086 H 
ATOM     13  H7  BZ3 d          12.338  10.809  -0.265  0.00  0.00     0.087 H 
ATOM     14  H8  BZ3 d          15.694   9.630  -3.739  0.00  0.00     0.089 H 
ATOM     15  H9  BZ3 d          14.759  11.323   1.217  0.00  0.00     0.165 HD
ENDROOT
BRANCH   7  16
ATOM     16  OAH BZ3 d          13.162   9.389  -4.500  0.00  0.00    -0.356 OA
BRANCH  16  17
ATOM     17  CAA BZ3 d          11.769   9.334  -4.811  0.00  0.00     0.010 C 
ATOM     18  H1  BZ3 d          11.298  10.296  -4.558  0.00  0.00     0.066 H 
ATOM     19  H2  BZ3 d          11.295   8.529  -4.229  0.00  0.00     0.066 H 
ATOM     20  H3  BZ3 d          11.639   9.135  -5.885  0.00  0.00     0.066 H 
ENDBRANCH  16  17
ENDBRANCH   7  16
TORSDOF 2
ENDMDL
MODEL 4
REMARK VINA RESULT:      -5.1      1.074      1.887
REMARK  2 active torsions:
REMARK  status: ('A' for Active; 'I' for Inactive)
REMARK    1  A    between atoms: OAH_8  and  CAA_1 
REMARK    2  A    between atoms: OAH_8  and  CAI_9 
ROOT
ATOM      1  CAB BZ3 d          12.080   9.309  -4.694  0.00  0.00    -0.022 A 
ATOM      2  CAC BZ3 d          15.833  10.208  -2.218  0.00  0.00    -0.049 A 
ATOM      3  CAD BZ3 d          11.820   9.683  -3.382  0.00  0.00    -0.056 A 
ATOM      4  CAE BZ3 d          15.467   9.818  -3.507  0.00  0.00    -0.054 A 
ATOM      5  CAF BZ3 d          13.498  10.286  -1.567  0.00  0.00    -0.039 A 
ATOM      6  NAG BZ3 d          13.423   9.316  -4.923  0.00  0.00    -0.365 N 
ATOM      7  CAI BZ3 d          14.853  10.451  -1.257  0.00  0.00     0.069 A 
ATOM      8  CAJ BZ3 d          13.130   9.897  -2.859  0.00  0.00    -0.005 A 
ATOM      9  CAK BZ3 d          14.105   9.662  -3.807  0.00  0.00     0.042 A 
ATOM     10  H4  BZ3 d          11.321   9.050  -5.432  0.00  0.00     0.111 H 
ATOM     11  H5  BZ3 d          16.880  10.323  -1.964  0.00  0.00     0.087 H 
ATOM     12  H6  BZ3 d          10.860   9.786  -2.879  0.00  0.00     0.086 H 
ATOM     13  H7  BZ3 d          16.222   9.637  -4.264  0.00  0.00     0.087 H 
ATOM     14  H8  BZ3 d          12.740  10.459  -0.811  0.00  0.00     0.089 H 
ATOM     15  H9  BZ3 d          13.862   9.088  -5.827  0.00  0.00     0.165 HD
ENDROOT
BRANCH   7  16
ATOM     16  OAH BZ3 d          15.237  10.829   0.008  0.00  0.00    -0.356 OA
BRANCH  16  17
ATOM     17  CAA BZ3 d          16.614  11.049   0.321  0.00  0.00     0.010 C 
ATOM     18  H1  BZ3 d          16.736  12.053   0.756  0.00  0.00     0.066 H 
ATOM     19  H2  BZ3 d          17.216  10.972  -0.596  0.00  0.00     0.066 H 
ATOM     20  H3  BZ3 d          16.952  10.293   1.046  0.00  0.00     0.066 H 
ENDBRANCH  16  17
ENDBRANCH   7  16
TORSDOF 2
ENDMDL
MODEL 5
REMARK VINA RESULT:      -4.0      2.112      3.755
REMARK  2 active torsions:
REMARK  status: ('A' for Active; 'I' for Inactive)
REMARK    1  A    between atoms: OAH_8  and  CAA_1 
REMARK    2  A    between atoms: OAH_8  and  CAI_9 
ROOT
ATOM      1  CAB BZ3 d          14.077  10.439   0.324  0.00  0.00    -0.022 A 
ATOM      2  CAC BZ3 d          12.707   9.663  -3.983  0.00  0.00    -0.049 A 
ATOM      3  CAD BZ3 d          15.115  10.257  -0.580  0.00  0.00    -0.056 A 
ATOM      4  CAE BZ3 d          12.174   9.909  -2.716  0.00  0.00    -0.054 A 
ATOM      5  CAF BZ3 d          14.953   9.791  -3.076  0.00  0.00    -0.039 A 
ATOM      6  NAG BZ3 d          12.878  10.349  -0.319  0.00  0.00    -0.365 N 
ATOM      7  CAI BZ3 d          14.088   9.614  -4.162  0.00  0.00     0.069 A 
ATOM      8  CAJ BZ3 d          14.420  10.041  -1.807  0.00  0.00    -0.005 A 
ATOM      9  CAK BZ3 d          13.052  10.091  -1.636  0.00  0.00     0.042 A 
ATOM     10  H4  BZ3 d          14.201  10.626   1.390  0.00  0.00     0.111 H 
ATOM     11  H5  BZ3 d          12.046   9.509  -4.828  0.00  0.00     0.087 H 
ATOM     12  H6  BZ3 d          16.189  10.274  -0.398  0.00  0.00     0.086 H 
ATOM     13  H7  BZ3 d          11.102   9.959  -2.569  0.00  0.00     0.087 H 
ATOM     14  H8  BZ3 d          16.026   9.735  -3.217  0.00  0.00     0.089 H 
ATOM     15  H9  BZ3 d          11.961  10.464   0.137  0.00  0.00     0.165 HD
ENDROOT
BRANCH   7  16
ATOM     16  OAH BZ3 d          14.590   9.364  -5.418  0.00  0.00    -0.356 OA
BRANCH  16  17
ATOM     17  CAA BZ3 d          15.980   9.536  -5.700  0.00  0.00     0.010 C 
ATOM     18  H1  BZ3 d          16.108  10.338  -6.443  0.00  0.00     0.066 H 
ATOM     19  H2  BZ3 d          16.392   8.597  -6.098  0.00  0.00     0.066 H 
ATOM     20  H3  BZ3 d          16.512   9.806  -4.776  0.00  0.00     0.066 H 
ENDBRANCH  16  17
ENDBRANCH   7  16
TORSDOF 2
ENDMDL
MODEL 6
REMARK VINA RESULT:      -3.3      1.871      2.780
REMARK  2 active torsions:
REMARK  status: ('A' for Active; 'I' for Inactive)
REMARK    1  A    between atoms: OAH_8  and  CAA_1 
REMARK    2  A    between atoms: OAH_8  and  CAI_9 
ROOT
ATOM      1  CAB BZ3 d          14.709   9.834  -5.611  0.00  0.00    -0.022 A 
ATOM      2  CAC BZ3 d          15.776  10.248  -1.171  0.00  0.00    -0.049 A 
ATOM      3  CAD BZ3 d          13.616   9.784  -4.756  0.00  0.00    -0.056 A 
ATOM      4  CAE BZ3 d          16.390  10.227  -2.424  0.00  0.00    -0.054 A 
ATOM      5  CAF BZ3 d          13.607   9.953  -2.218  0.00  0.00    -0.039 A 
ATOM      6  NAG BZ3 d          15.854  10.010  -4.894  0.00  0.00    -0.365 N 
ATOM      7  CAI BZ3 d          14.392  10.122  -1.070  0.00  0.00     0.069 A 
ATOM      8  CAJ BZ3 d          14.222   9.935  -3.474  0.00  0.00    -0.005 A 
ATOM      9  CAK BZ3 d          15.593  10.063  -3.568  0.00  0.00     0.042 A 
ATOM     10  H4  BZ3 d          14.659   9.745  -6.696  0.00  0.00     0.111 H 
ATOM     11  H5  BZ3 d          16.375  10.363  -0.275  0.00  0.00     0.087 H 
ATOM     12  H6  BZ3 d          12.562   9.661  -5.002  0.00  0.00     0.086 H 
ATOM     13  H7  BZ3 d          17.465  10.335  -2.513  0.00  0.00     0.087 H 
ATOM     14  H8  BZ3 d          12.533   9.838  -2.133  0.00  0.00     0.089 H 
ATOM     15  H9  BZ3 d          16.795  10.091  -5.307  0.00  0.00     0.165 HD
ENDROOT
BRANCH   7  16
ATOM     16  OAH BZ3 d          13.808  10.140   0.175  0.00  0.00    -0.356 OA
BRANCH  16  17
ATOM     17  CAA BZ3 d          12.392  10.022   0.324  0.00  0.00     0.010 C 
ATOM     18  H1  BZ3 d          11.905  10.930  -0.063  0.00  0.00     0.066 H 
ATOM     19  H2  BZ3 d          12.144   9.898   1.388  0.00  0.00     0.066 H 
ATOM     20  H3  BZ3 d          12.035   9.147  -0.240  0.00  0.00     0.066 H 
ENDBRANCH  16  17
ENDBRANCH   7  16
TORSDOF 2
ENDMDL
MODEL 7
REMARK VINA RESULT:      -2.9      2.335      3.922
REMARK  2 active torsions:
REMARK  status: ('A' for Active; 'I' for Inactive)
REMARK    1  A    between atoms: OAH_8  and  CAA_1 
REMARK    2  A    between atoms: OAH_8  and  CAI_9 
ROOT
ATOM      1  CAB BZ3 d          13.265  10.427   0.324  0.00  0.00    -0.022 A 
ATOM      2  CAC BZ3 d          15.912  10.167  -3.411  0.00  0.00    -0.049 A 
ATOM      3  CAD BZ3 d          12.575  10.127  -0.843  0.00  0.00    -0.056 A 
ATOM      4  CAE BZ3 d          16.013  10.412  -2.041  0.00  0.00    -0.054 A 
ATOM      5  CAF BZ3 d          13.515   9.865  -3.193  0.00  0.00    -0.039 A 
ATOM      6  NAG BZ3 d          14.595  10.561   0.057  0.00  0.00    -0.365 N 
ATOM      7  CAI BZ3 d          14.672   9.885  -3.981  0.00  0.00     0.069 A 
ATOM      8  CAJ BZ3 d          13.615  10.108  -1.819  0.00  0.00    -0.005 A 
ATOM      9  CAK BZ3 d          14.847  10.384  -1.260  0.00  0.00     0.042 A 
ATOM     10  H4  BZ3 d          12.811  10.539   1.308  0.00  0.00     0.111 H 
ATOM     11  H5  BZ3 d          16.799  10.195  -4.034  0.00  0.00     0.087 H 
ATOM     12  H6  BZ3 d          11.509   9.951  -0.979  0.00  0.00     0.086 H 
ATOM     13  H7  BZ3 d          16.975  10.622  -1.588  0.00  0.00     0.087 H 
ATOM     14  H8  BZ3 d          12.550   9.663  -3.643  0.00  0.00     0.089 H 
ATOM     15  H9  BZ3 d          15.314  10.769   0.766  0.00  0.00     0.165 HD
ENDROOT
BRANCH   7  16
ATOM     16  OAH BZ3 d          14.596   9.652  -5.334  0.00  0.00    -0.356 OA
BRANCH  16  17
ATOM     17  CAA BZ3 d          15.766   9.331  -6.090  0.00  0.00     0.010 C 
ATOM     18  H1  BZ3 d          16.530  10.106  -5.931  0.00  0.00     0.066 H 
ATOM     19  H2  BZ3 d          15.509   9.281  -7.159  0.00  0.00     0.066 H 
ATOM     20  H3  BZ3 d          16.159   8.357  -5.762  0.00  0.00     0.066 H 
ENDBRANCH  16  17
ENDBRANCH   7  16
TORSDOF 2
ENDMDL
MODEL 8
REMARK VINA RESULT:      -2.9      2.091      2.870
REMARK  2 active torsions:
REMARK  status: ('A' for Active; 'I' for Inactive)
REMARK    1  A    between atoms: OAH_8  and  CAA_1 
REMARK    2  A    between atoms: OAH_8  and  CAI_9 
ROOT
ATOM      1  CAB BZ3 d          15.533   9.693  -5.793  0.00  0.00    -0.022 A 
ATOM      2  CAC BZ3 d          12.050   9.672  -2.812  0.00  0.00    -0.049 A 
ATOM      3  CAD BZ3 d          15.925   9.676  -4.461  0.00  0.00    -0.056 A 
ATOM      4  CAE BZ3 d          12.283   9.683  -4.188  0.00  0.00    -0.054 A 
ATOM      5  CAF BZ3 d          14.439   9.664  -2.395  0.00  0.00    -0.039 A 
ATOM      6  NAG BZ3 d          14.173   9.688  -5.880  0.00  0.00    -0.365 N 
ATOM      7  CAI BZ3 d          13.122   9.653  -1.922  0.00  0.00     0.069 A 
ATOM      8  CAJ BZ3 d          14.674   9.672  -3.774  0.00  0.00    -0.005 A 
ATOM      9  CAK BZ3 d          13.608   9.688  -4.651  0.00  0.00     0.042 A 
ATOM     10  H4  BZ3 d          16.213   9.708  -6.644  0.00  0.00     0.111 H 
ATOM     11  H5  BZ3 d          11.033   9.679  -2.435  0.00  0.00     0.087 H 
ATOM     12  H6  BZ3 d          16.931   9.668  -4.045  0.00  0.00     0.086 H 
ATOM     13  H7  BZ3 d          11.455   9.687  -4.887  0.00  0.00     0.087 H 
ATOM     14  H8  BZ3 d          15.270   9.667  -1.699  0.00  0.00     0.089 H 
ATOM     15  H9  BZ3 d          13.645   9.684  -6.764  0.00  0.00     0.165 HD
ENDROOT
BRANCH   7  16
ATOM     16  OAH BZ3 d          12.868   9.648  -0.570  0.00  0.00    -0.356 OA
BRANCH  16  17
ATOM     17  CAA BZ3 d          13.617  10.479   0.320  0.00  0.00     0.010 C 
ATOM     18  H1  BZ3 d          14.627  10.062   0.448  0.00  0.00     0.066 H 
ATOM     19  H2  BZ3 d          13.110  10.520   1.295  0.00  0.00     0.066 H 
ATOM     20  H3  BZ3 d          13.690  11.493  -0.099  0.00  0.00     0.066 H 
ENDBRANCH  16  17
ENDBRANCH   7  16
TORSDOF 2
ENDMDL
