REMARK  6 active torsions:
REMARK  status: ('A' for Active; 'I' for Inactive)
REMARK    1  A    between atoms: C1_1  and  N1_2 
REMARK    2  A    between atoms: C14_5  and  C8_8 
REMARK    3  A    between atoms: C13_6  and  O3_28 
REMARK    4  A    between atoms: C2_11  and  C21_21 
REMARK    5  A    between atoms: C5_16  and  O5_17 
REMARK    6  A    between atoms: C7_19  and  O7_20 
ROOT
ATOM      1  C8  CPB d          39.542  37.492  31.102  0.00  0.00     0.017 A 
ATOM      2  C9  CPB d          38.728  36.390  30.790  0.00  0.00     0.102 A 
ATOM      3  O1  CPB d          38.931  35.749  29.591  0.00  0.00    -0.308 OA
ATOM      4  C2  CPB d          38.181  34.644  29.280  0.00  0.00     0.091 A 
ATOM      5  C3  CPB d          37.196  34.191  30.156  0.00  0.00    -0.000 A 
ATOM      6  C4  CPB d          36.957  34.852  31.357  0.00  0.00     0.190 A 
ATOM      7  O4  CPB d          36.080  34.438  32.118  0.00  0.00    -0.287 OA
ATOM      8  C10 CPB d          37.736  35.964  31.685  0.00  0.00     0.082 A 
ATOM      9  C5  CPB d          37.574  36.623  32.909  0.00  0.00     0.085 A 
ATOM     10  C6  CPB d          38.374  37.713  33.218  0.00  0.00    -0.017 A 
ATOM     11  C7  CPB d          39.348  38.154  32.324  0.00  0.00     0.077 A 
ATOM     12  H13 CPB d          36.608  33.312  29.898  0.00  0.00     0.094 H 
ATOM     13  H15 CPB d          38.240  38.227  34.163  0.00  0.00     0.092 H 
ENDROOT
BRANCH   1  14
ATOM     14  C14 CPB d          40.609  37.917  30.047  0.00  0.00     0.005 C 
ATOM     15  C15 CPB d          40.275  39.277  29.414  0.00  0.00    -0.033 C 
ATOM     16  C16 CPB d          41.332  39.643  28.356  0.00  0.00     0.084 C 
ATOM     17  H7  CPB d          39.286  39.222  28.936  0.00  0.00     0.036 H 
ATOM     18  H8  CPB d          40.262  40.049  30.197  0.00  0.00     0.036 H 
ATOM     19  N1  CPB d          42.692  39.605  28.943  0.00  0.00    -0.072 N 
ATOM     20  H5  CPB d          41.276  38.924  27.526  0.00  0.00     0.076 H 
ATOM     21  H6  CPB d          41.130  40.656  27.978  0.00  0.00     0.076 H 
ATOM     22  C12 CPB d          43.034  38.251  29.437  0.00  0.00     0.107 C 
ATOM     23  H4  CPB d          42.737  40.256  29.712  0.00  0.00     0.279 HD
ATOM     24  C13 CPB d          42.068  37.868  30.563  0.00  0.00     0.066 C 
ATOM     25  H11 CPB d          44.065  38.248  29.820  0.00  0.00     0.080 H 
ATOM     26  H12 CPB d          42.946  37.526  28.614  0.00  0.00     0.080 H 
ATOM     27  H10 CPB d          42.292  36.849  30.912  0.00  0.00     0.086 H 
ATOM     28  H9  CPB d          40.548  37.173  29.239  0.00  0.00     0.051 H 
BRANCH  19  29
ATOM     29  C1  CPB d          43.664  39.996  27.908  0.00  0.00     0.066 C 
ATOM     30  H1  CPB d          43.418  41.001  27.535  0.00  0.00     0.068 H 
ATOM     31  H2  CPB d          43.624  39.276  27.077  0.00  0.00     0.068 H 
ATOM     32  H3  CPB d          44.676  40.003  28.339  0.00  0.00     0.068 H 
ENDBRANCH  19  29
BRANCH  24  33
ATOM     33  O3  CPB d          42.254  38.790  31.635  0.00  0.00    -0.393 OA
ATOM     34  H21 CPB d          41.663  38.571  32.346  0.00  0.00     0.210 HD
ENDBRANCH  24  33
ENDBRANCH   1  14
BRANCH  11  35
ATOM     35  O7  CPB d          40.093  39.227  32.698  0.00  0.00    -0.360 OA
ATOM     36  H16 CPB d          40.718  39.432  32.012  0.00  0.00     0.217 HD
ENDBRANCH  11  35
BRANCH   4  37
ATOM     37  C21 CPB d          38.421  33.946  28.087  0.00  0.00     0.020 A 
ATOM     38  C22 CPB d          38.830  34.577  26.898  0.00  0.00     0.047 A 
ATOM     39 CL1  CPB d          39.045  36.289  26.797  0.00  0.00    -0.083 Cl
ATOM     40  C23 CPB d          39.069  33.829  25.745  0.00  0.00    -0.061 A 
ATOM     41  C24 CPB d          38.908  32.445  25.771  0.00  0.00    -0.081 A 
ATOM     42  H17 CPB d          39.379  34.323  24.831  0.00  0.00     0.086 H 
ATOM     43  C25 CPB d          38.512  31.810  26.948  0.00  0.00    -0.082 A 
ATOM     44  H18 CPB d          39.091  31.862  24.876  0.00  0.00     0.083 H 
ATOM     45  C26 CPB d          38.274  32.551  28.098  0.00  0.00    -0.069 A 
ATOM     46  H19 CPB d          38.389  30.733  26.965  0.00  0.00     0.083 H 
ATOM     47  H20 CPB d          37.973  32.048  29.010  0.00  0.00     0.085 H 
ENDBRANCH   4  37
BRANCH   9  48
ATOM     48  O5  CPB d          36.635  36.228  33.815  0.00  0.00    -0.360 OA
ATOM     49  H14 CPB d          36.805  35.330  34.074  0.00  0.00     0.217 HD
ENDBRANCH   9  48
TORSDOF 6
