MODEL 1
REMARK VINA RESULT:     -10.8      0.000      0.000
REMARK  17 active torsions:
REMARK  status: ('A' for Active; 'I' for Inactive)
REMARK    1  A    between atoms: C_1  and  C2_4 
REMARK    2  A    between atoms: CA_14  and  N_13 
REMARK    3  A    between atoms: C1_15  and  CA_14 
REMARK    4  A    between atoms: CA_14  and  CB_17 
REMARK       I    between atoms: N2_24  and  C1_15 
REMARK    5  A    between atoms: CB_17  and  CG_18 
REMARK    6  A    between atoms: C9_21  and  O2_22 
REMARK    7  A    between atoms: CA1_23  and  C9_21 
REMARK    8  A    between atoms: C9_21  and  CM_33 
REMARK    9  A    between atoms: CA1_23  and  N2_24 
REMARK   10  A    between atoms: CA1_23  and  CB1_25 
REMARK   11  A    between atoms: CB1_25  and  CG1_26 
REMARK   12  A    between atoms: CM_33  and  N11_32 
REMARK   13  A    between atoms: C21_34  and  CC_35 
REMARK       I    between atoms: CC_35  and  N3_45 
REMARK   14  A    between atoms: N3_45  and  CD_46 
REMARK   15  A    between atoms: CD_46  and  C11_47 
REMARK   16  A    between atoms: CD_46  and  C22_48 
REMARK   17  A    between atoms: CD_46  and  C32_49 
ROOT
ATOM      1  C9  ROC d           0.497   5.287   9.371  0.00  0.00     0.078 C 
ATOM      2  H13 ROC d           0.289   5.571   8.329  0.00  0.00     0.088 H 
ENDROOT
BRANCH   1   3
ATOM      3  O2  ROC d           1.638   4.483   9.433  0.00  0.00    -0.392 OA
ATOM      4  H14 ROC d           2.297   4.825   8.841  0.00  0.00     0.210 HD
ENDBRANCH   1   3
BRANCH   1   5
ATOM      5  CA1 ROC d          -0.682   4.485   9.942  0.00  0.00     0.041 C 
ATOM      6  H15 ROC d          -1.178   5.140  10.674  0.00  0.00     0.076 H 
BRANCH   5   7
ATOM      7  N2  ROC d          -1.669   4.211   8.873  0.00  0.00    -0.363 N 
ATOM      8  C1  ROC d          -2.162   5.300   8.170  0.00  0.00     0.175 C 
ATOM      9  O1  ROC d          -1.866   6.602   8.140  0.00  0.00    -0.175 OA
ATOM     10  H16 ROC d          -1.968   3.279   8.666  0.00  0.00     0.162 HD
BRANCH   8  11
ATOM     11  CA  ROC d          -3.285   4.900   7.210  0.00  0.00     0.083 C 
ATOM     12  H8  ROC d          -2.816   4.680   6.239  0.00  0.00     0.086 H 
BRANCH  11  13
ATOM     13  N   ROC d          -3.927   3.694   7.670  0.00  0.00    -0.354 N 
ATOM     14  C   ROC d          -3.897   2.644   6.809  0.00  0.00     0.204 C 
ATOM     15  O   ROC d          -3.314   2.384   5.644  0.00  0.00    -0.170 OA
ATOM     16  H7  ROC d          -4.366   3.635   8.567  0.00  0.00     0.162 HD
BRANCH  14  17
ATOM     17  C2  ROC d          -4.792   1.507   7.312  0.00  0.00     0.111 A 
ATOM     18  N1  ROC d          -5.668   1.762   8.337  0.00  0.00    -0.244 NA
ATOM     19  C8A ROC d          -6.486   0.759   8.833  0.00  0.00     0.068 A 
ATOM     20  C8  ROC d          -7.352   1.044   9.867  0.00  0.00    -0.054 A 
ATOM     21  C4A ROC d          -6.422  -0.522   8.285  0.00  0.00    -0.007 A 
ATOM     22  C7  ROC d          -8.185   0.021  10.380  0.00  0.00    -0.081 A 
ATOM     23  H6  ROC d          -7.394   2.043  10.285  0.00  0.00     0.087 H 
ATOM     24  C6  ROC d          -8.128  -1.246   9.837  0.00  0.00    -0.082 A 
ATOM     25  H5  ROC d          -8.867   0.233  11.196  0.00  0.00     0.083 H 
ATOM     26  C5  ROC d          -7.254  -1.530   8.795  0.00  0.00    -0.071 A 
ATOM     27  H4  ROC d          -8.770  -2.028  10.228  0.00  0.00     0.083 H 
ATOM     28  H3  ROC d          -7.215  -2.529   8.376  0.00  0.00     0.084 H 
ATOM     29  C4  ROC d          -5.543  -0.786   7.247  0.00  0.00    -0.068 A 
ATOM     30  C3  ROC d          -4.723   0.223   6.758  0.00  0.00    -0.050 A 
ATOM     31  H2  ROC d          -5.495  -1.779   6.816  0.00  0.00     0.085 H 
ATOM     32  H1  ROC d          -4.032   0.017   5.949  0.00  0.00     0.087 H 
ENDBRANCH  14  17
ENDBRANCH  11  13
BRANCH  11  33
ATOM     33  CB  ROC d          -4.321   6.007   6.966  0.00  0.00     0.023 C 
ATOM     34  H9  ROC d          -3.805   6.979   6.948  0.00  0.00     0.049 H 
ATOM     35  H10 ROC d          -5.052   5.996   7.788  0.00  0.00     0.049 H 
BRANCH  33  36
ATOM     36  CG  ROC d          -5.071   5.816   5.628  0.00  0.00     0.151 C 
ATOM     37  OD1 ROC d          -4.285   6.040   4.546  0.00  0.00    -0.178 OA
ATOM     38  ND2 ROC d          -6.368   5.466   5.864  0.00  0.00    -0.381 N 
ATOM     39  H11 ROC d          -6.989   5.305   5.097  0.00  0.00     0.158 HD
ATOM     40  H12 ROC d          -6.697   5.370   6.803  0.00  0.00     0.158 HD
ENDBRANCH  33  36
ENDBRANCH  11  33
ENDBRANCH   8  11
ENDBRANCH   5   7
BRANCH   5  41
ATOM     41  CB1 ROC d          -0.287   3.226  10.707  0.00  0.00    -0.020 C 
ATOM     42  H17 ROC d           0.081   3.511  11.704  0.00  0.00     0.043 H 
ATOM     43  H18 ROC d           0.512   2.706  10.157  0.00  0.00     0.043 H 
BRANCH  41  44
ATOM     44  CG1 ROC d          -1.490   2.270  10.870  0.00  0.00    -0.056 A 
ATOM     45  CD1 ROC d          -2.671   2.695  11.449  0.00  0.00    -0.077 A 
ATOM     46  CE1 ROC d          -3.755   1.799  11.593  0.00  0.00    -0.082 A 
ATOM     47  H19 ROC d          -2.767   3.718  11.795  0.00  0.00     0.084 H 
ATOM     48  CZ  ROC d          -3.642   0.486  11.151  0.00  0.00    -0.083 A 
ATOM     49  H21 ROC d          -4.678   2.137  12.049  0.00  0.00     0.083 H 
ATOM     50  CE2 ROC d          -2.462   0.057  10.573  0.00  0.00    -0.082 A 
ATOM     51  H23 ROC d          -4.475  -0.198  11.259  0.00  0.00     0.083 H 
ATOM     52  CD2 ROC d          -1.382   0.949  10.433  0.00  0.00    -0.077 A 
ATOM     53  H22 ROC d          -2.369  -0.965  10.227  0.00  0.00     0.083 H 
ATOM     54  H20 ROC d          -0.457   0.607   9.982  0.00  0.00     0.084 H 
ENDBRANCH  41  44
ENDBRANCH   5  41
ENDBRANCH   1   5
BRANCH   1  55
ATOM     55  CM  ROC d           0.727   6.518  10.198  0.00  0.00     0.110 C 
ATOM     56  H25 ROC d           1.125   6.208  11.175  0.00  0.00     0.080 H 
ATOM     57  H26 ROC d          -0.240   7.024  10.339  0.00  0.00     0.080 H 
BRANCH  55  58
ATOM     58  N11 ROC d           1.673   7.485   9.597  0.00  0.00    -0.057 N 
ATOM     59  C21 ROC d           2.818   7.835  10.486  0.00  0.00     0.167 C 
ATOM     60  C31 ROC d           3.687   8.879   9.809  0.00  0.00    -0.027 C 
ATOM     61  H27 ROC d           3.419   6.918  10.585  0.00  0.00     0.098 H 
ATOM     62  C3A ROC d           2.984  10.100   9.269  0.00  0.00    -0.047 C 
ATOM     63  H28 ROC d           4.200   8.390   8.967  0.00  0.00     0.037 H 
ATOM     64  H29 ROC d           4.431   9.220  10.543  0.00  0.00     0.037 H 
ATOM     65  C41 ROC d           2.598  11.072  10.403  0.00  0.00    -0.061 C 
ATOM     66  C7A ROC d           1.815   9.699   8.421  0.00  0.00    -0.027 C 
ATOM     67  H30 ROC d           3.693  10.630   8.616  0.00  0.00     0.040 H 
ATOM     68  C51 ROC d           1.863  12.264   9.928  0.00  0.00    -0.065 C 
ATOM     69  H31 ROC d           3.518  11.407  10.904  0.00  0.00     0.033 H 
ATOM     70  H32 ROC d           1.963  10.535  11.123  0.00  0.00     0.033 H 
ATOM     71  C61 ROC d           0.648  11.872   9.104  0.00  0.00    -0.065 C 
ATOM     72  H33 ROC d           2.534  12.876   9.308  0.00  0.00     0.033 H 
ATOM     73  H34 ROC d           1.531  12.850  10.798  0.00  0.00     0.033 H 
ATOM     74  C71 ROC d           0.994  10.889   7.982  0.00  0.00    -0.060 C 
ATOM     75  H35 ROC d           0.216  12.780   8.658  0.00  0.00     0.033 H 
ATOM     76  H36 ROC d          -0.092  11.403   9.768  0.00  0.00     0.033 H 
ATOM     77  H37 ROC d           1.561  11.433   7.212  0.00  0.00     0.033 H 
ATOM     78  H38 ROC d           0.053  10.517   7.550  0.00  0.00     0.033 H 
ATOM     79  C81 ROC d           0.925   8.663   9.134  0.00  0.00     0.088 C 
ATOM     80  H39 ROC d           2.218   9.223   7.514  0.00  0.00     0.043 H 
ATOM     81  H40 ROC d           0.455   9.144  10.005  0.00  0.00     0.076 H 
ATOM     82  H41 ROC d           0.146   8.329   8.434  0.00  0.00     0.076 H 
ATOM     83  H24 ROC d           2.071   7.044   8.782  0.00  0.00     0.281 HD
BRANCH  59  84
ATOM     84  CC  ROC d           2.484   8.272  11.905  0.00  0.00     0.183 C 
ATOM     85  O3  ROC d           1.214   8.508  12.165  0.00  0.00    -0.175 OA
ATOM     86  N3  ROC d           3.623   8.345  12.703  0.00  0.00    -0.362 N 
ATOM     87  H42 ROC d           4.506   8.064  12.326  0.00  0.00     0.162 HD
BRANCH  86  88
ATOM     88  CD  ROC d           3.549   8.836  14.121  0.00  0.00     0.021 C 
BRANCH  88  89
ATOM     89  C11 ROC d           3.060  10.243  14.042  0.00  0.00    -0.054 C 
ATOM     90  H43 ROC d           3.897  10.908  13.783  0.00  0.00     0.030 H 
ATOM     91  H44 ROC d           2.643  10.541  15.016  0.00  0.00     0.030 H 
ATOM     92  H45 ROC d           2.280  10.318  13.271  0.00  0.00     0.030 H 
ENDBRANCH  88  89
BRANCH  88  93
ATOM     93  C22 ROC d           4.902   8.801  14.774  0.00  0.00    -0.054 C 
ATOM     94  H46 ROC d           4.938   7.977  15.501  0.00  0.00     0.030 H 
ATOM     95  H47 ROC d           5.084   9.755  15.292  0.00  0.00     0.030 H 
ATOM     96  H48 ROC d           5.676   8.648  14.008  0.00  0.00     0.030 H 
ENDBRANCH  88  93
BRANCH  88  97
ATOM     97  C32 ROC d           2.575   8.008  14.937  0.00  0.00    -0.054 C 
ATOM     98  H49 ROC d           2.202   7.173  14.326  0.00  0.00     0.030 H 
ATOM     99  H50 ROC d           1.731   8.639  15.250  0.00  0.00     0.030 H 
ATOM    100  H51 ROC d           3.087   7.612  15.828  0.00  0.00     0.030 H 
ENDBRANCH  88  97
ENDBRANCH  86  88
ENDBRANCH  59  84
ENDBRANCH  55  58
ENDBRANCH   1  55
TORSDOF 17
ENDMDL
MODEL 2
REMARK VINA RESULT:     -10.6      2.609      6.094
REMARK  17 active torsions:
REMARK  status: ('A' for Active; 'I' for Inactive)
REMARK    1  A    between atoms: C_1  and  C2_4 
REMARK    2  A    between atoms: CA_14  and  N_13 
REMARK    3  A    between atoms: C1_15  and  CA_14 
REMARK    4  A    between atoms: CA_14  and  CB_17 
REMARK       I    between atoms: N2_24  and  C1_15 
REMARK    5  A    between atoms: CB_17  and  CG_18 
REMARK    6  A    between atoms: C9_21  and  O2_22 
REMARK    7  A    between atoms: CA1_23  and  C9_21 
REMARK    8  A    between atoms: C9_21  and  CM_33 
REMARK    9  A    between atoms: CA1_23  and  N2_24 
REMARK   10  A    between atoms: CA1_23  and  CB1_25 
REMARK   11  A    between atoms: CB1_25  and  CG1_26 
REMARK   12  A    between atoms: CM_33  and  N11_32 
REMARK   13  A    between atoms: C21_34  and  CC_35 
REMARK       I    between atoms: CC_35  and  N3_45 
REMARK   14  A    between atoms: N3_45  and  CD_46 
REMARK   15  A    between atoms: CD_46  and  C11_47 
REMARK   16  A    between atoms: CD_46  and  C22_48 
REMARK   17  A    between atoms: CD_46  and  C32_49 
ROOT
ATOM      1  C9  ROC d           0.037   6.295  10.040  0.00  0.00     0.078 C 
ATOM      2  H13 ROC d          -0.595   7.142  10.344  0.00  0.00     0.088 H 
ENDROOT
BRANCH   1   3
ATOM      3  O2  ROC d           0.491   6.476   8.732  0.00  0.00    -0.392 OA
ATOM      4  H14 ROC d           0.169   5.768   8.186  0.00  0.00     0.210 HD
ENDBRANCH   1   3
BRANCH   1   5
ATOM      5  CA1 ROC d          -0.775   4.991  10.086  0.00  0.00     0.041 C 
ATOM      6  H15 ROC d          -1.441   5.070  10.958  0.00  0.00     0.076 H 
BRANCH   5   7
ATOM      7  N2  ROC d          -1.643   4.897   8.890  0.00  0.00    -0.363 N 
ATOM      8  C1  ROC d          -2.944   5.358   9.013  0.00  0.00     0.175 C 
ATOM      9  O1  ROC d          -3.618   6.008   9.966  0.00  0.00    -0.175 OA
ATOM     10  H16 ROC d          -1.304   4.516   8.030  0.00  0.00     0.162 HD
BRANCH   8  11
ATOM     11  CA  ROC d          -3.778   5.058   7.765  0.00  0.00     0.083 C 
ATOM     12  H8  ROC d          -4.653   4.478   8.094  0.00  0.00     0.086 H 
BRANCH  11  13
ATOM     13  N   ROC d          -4.259   6.285   7.182  0.00  0.00    -0.354 N 
ATOM     14  C   ROC d          -3.308   7.202   6.864  0.00  0.00     0.204 C 
ATOM     15  O   ROC d          -1.979   7.228   6.849  0.00  0.00    -0.170 OA
ATOM     16  H7  ROC d          -5.232   6.451   7.020  0.00  0.00     0.162 HD
BRANCH  14  17
ATOM     17  C2  ROC d          -3.951   8.533   6.465  0.00  0.00     0.111 A 
ATOM     18  N1  ROC d          -5.030   8.516   5.618  0.00  0.00    -0.244 NA
ATOM     19  C8A ROC d          -5.633   9.698   5.218  0.00  0.00     0.068 A 
ATOM     20  C8  ROC d          -6.713   9.649   4.362  0.00  0.00    -0.054 A 
ATOM     21  C4A ROC d          -5.143  10.918   5.683  0.00  0.00    -0.007 A 
ATOM     22  C7  ROC d          -7.329  10.854   3.948  0.00  0.00    -0.081 A 
ATOM     23  H6  ROC d          -7.086   8.695   4.008  0.00  0.00     0.087 H 
ATOM     24  C6  ROC d          -6.848  12.063   4.409  0.00  0.00    -0.082 A 
ATOM     25  H5  ROC d          -8.175  10.828   3.271  0.00  0.00     0.083 H 
ATOM     26  C5  ROC d          -5.761  12.109   5.272  0.00  0.00    -0.071 A 
ATOM     27  H4  ROC d          -7.324  12.986   4.095  0.00  0.00     0.083 H 
ATOM     28  H3  ROC d          -5.390  13.063   5.628  0.00  0.00     0.084 H 
ATOM     29  C4  ROC d          -4.056  10.943   6.542  0.00  0.00    -0.068 A 
ATOM     30  C3  ROC d          -3.453   9.755   6.935  0.00  0.00    -0.050 A 
ATOM     31  H2  ROC d          -3.676  11.890   6.909  0.00  0.00     0.085 H 
ATOM     32  H1  ROC d          -2.600   9.773   7.603  0.00  0.00     0.087 H 
ENDBRANCH  14  17
ENDBRANCH  11  13
BRANCH  11  33
ATOM     33  CB  ROC d          -3.047   4.209   6.716  0.00  0.00     0.023 C 
ATOM     34  H9  ROC d          -2.673   3.293   7.197  0.00  0.00     0.049 H 
ATOM     35  H10 ROC d          -2.199   4.787   6.319  0.00  0.00     0.049 H 
BRANCH  33  36
ATOM     36  CG  ROC d          -3.972   3.813   5.542  0.00  0.00     0.151 C 
ATOM     37  OD1 ROC d          -3.848   4.636   4.471  0.00  0.00    -0.178 OA
ATOM     38  ND2 ROC d          -4.708   2.713   5.875  0.00  0.00    -0.381 N 
ATOM     39  H11 ROC d          -5.358   2.330   5.220  0.00  0.00     0.158 HD
ATOM     40  H12 ROC d          -4.596   2.291   6.775  0.00  0.00     0.158 HD
ENDBRANCH  33  36
ENDBRANCH  11  33
ENDBRANCH   8  11
ENDBRANCH   5   7
BRANCH   5  41
ATOM     41  CB1 ROC d           0.055   3.730  10.305  0.00  0.00    -0.020 C 
ATOM     42  H17 ROC d           0.786   3.915  11.106  0.00  0.00     0.043 H 
ATOM     43  H18 ROC d           0.586   3.483   9.374  0.00  0.00     0.043 H 
BRANCH  41  44
ATOM     44  CG1 ROC d          -0.840   2.536  10.707  0.00  0.00    -0.056 A 
ATOM     45  CD1 ROC d          -1.955   2.711  11.505  0.00  0.00    -0.077 A 
ATOM     46  CE1 ROC d          -2.754   1.601  11.864  0.00  0.00    -0.082 A 
ATOM     47  H19 ROC d          -2.219   3.702  11.856  0.00  0.00     0.084 H 
ATOM     48  CZ  ROC d          -2.424   0.327  11.417  0.00  0.00    -0.083 A 
ATOM     49  H21 ROC d          -3.626   1.743  12.491  0.00  0.00     0.083 H 
ATOM     50  CE2 ROC d          -1.308   0.148  10.621  0.00  0.00    -0.082 A 
ATOM     51  H23 ROC d          -3.039  -0.522  11.691  0.00  0.00     0.083 H 
ATOM     52  CD2 ROC d          -0.512   1.253  10.266  0.00  0.00    -0.077 A 
ATOM     53  H22 ROC d          -1.047  -0.844  10.270  0.00  0.00     0.083 H 
ATOM     54  H20 ROC d           0.364   1.107   9.645  0.00  0.00     0.084 H 
ENDBRANCH  41  44
ENDBRANCH   5  41
ENDBRANCH   1   5
BRANCH   1  55
ATOM     55  CM  ROC d           1.223   6.191  10.954  0.00  0.00     0.110 C 
ATOM     56  H25 ROC d           2.122   6.477  10.388  0.00  0.00     0.080 H 
ATOM     57  H26 ROC d           1.314   5.145  11.284  0.00  0.00     0.080 H 
BRANCH  55  58
ATOM     58  N11 ROC d           1.140   7.051  12.156  0.00  0.00    -0.057 N 
ATOM     59  C21 ROC d           0.863   8.484  11.851  0.00  0.00     0.167 C 
ATOM     60  C31 ROC d           0.866   9.288  13.139  0.00  0.00    -0.027 C 
ATOM     61  H27 ROC d          -0.159   8.516  11.444  0.00  0.00     0.098 H 
ATOM     62  C3A ROC d           2.061   9.113  14.044  0.00  0.00    -0.047 C 
ATOM     63  H28 ROC d          -0.030   9.004  13.711  0.00  0.00     0.037 H 
ATOM     64  H29 ROC d           0.806  10.352  12.867  0.00  0.00     0.037 H 
ATOM     65  C41 ROC d           3.291   9.868  13.501  0.00  0.00    -0.061 C 
ATOM     66  C7A ROC d           2.328   7.658  14.284  0.00  0.00    -0.027 C 
ATOM     67  H30 ROC d           1.809   9.562  15.017  0.00  0.00     0.040 H 
ATOM     68  C51 ROC d           4.503   9.688  14.330  0.00  0.00    -0.065 C 
ATOM     69  H31 ROC d           3.053  10.940  13.461  0.00  0.00     0.033 H 
ATOM     70  H32 ROC d           3.506   9.501  12.486  0.00  0.00     0.033 H 
ATOM     71  C61 ROC d           4.812   8.216  14.544  0.00  0.00    -0.065 C 
ATOM     72  H33 ROC d           4.342  10.166  15.308  0.00  0.00     0.033 H 
ATOM     73  H34 ROC d           5.356  10.163  13.825  0.00  0.00     0.033 H 
ATOM     74  C71 ROC d           3.603   7.432  15.063  0.00  0.00    -0.060 C 
ATOM     75  H35 ROC d           5.629   8.129  15.275  0.00  0.00     0.033 H 
ATOM     76  H36 ROC d           5.130   7.779  13.586  0.00  0.00     0.033 H 
ATOM     77  H37 ROC d           3.424   7.728  16.107  0.00  0.00     0.033 H 
ATOM     78  H38 ROC d           3.846   6.361  15.022  0.00  0.00     0.033 H 
ATOM     79  C81 ROC d           2.352   6.860  12.966  0.00  0.00     0.088 C 
ATOM     80  H39 ROC d           1.497   7.269  14.892  0.00  0.00     0.043 H 
ATOM     81  H40 ROC d           3.223   7.185  12.376  0.00  0.00     0.076 H 
ATOM     82  H41 ROC d           2.450   5.791  13.205  0.00  0.00     0.076 H 
ATOM     83  H24 ROC d           0.361   6.721  12.704  0.00  0.00     0.281 HD
BRANCH  59  84
ATOM     84  CC  ROC d           1.750   9.154  10.813  0.00  0.00     0.183 C 
ATOM     85  O3  ROC d           2.923   8.596  10.592  0.00  0.00    -0.175 OA
ATOM     86  N3  ROC d           1.139  10.277  10.261  0.00  0.00    -0.362 N 
ATOM     87  H42 ROC d           0.202  10.507  10.527  0.00  0.00     0.162 HD
BRANCH  86  88
ATOM     88  CD  ROC d           1.860  11.150   9.274  0.00  0.00     0.021 C 
BRANCH  88  89
ATOM     89  C11 ROC d           0.939  12.286   8.981  0.00  0.00    -0.054 C 
ATOM     90  H43 ROC d           0.997  13.023   9.795  0.00  0.00     0.030 H 
ATOM     91  H44 ROC d          -0.091  11.910   8.898  0.00  0.00     0.030 H 
ATOM     92  H45 ROC d           1.233  12.762   8.034  0.00  0.00     0.030 H 
ENDBRANCH  88  89
BRANCH  88  93
ATOM     93  C22 ROC d           2.160  10.397   8.008  0.00  0.00    -0.054 C 
ATOM     94  H46 ROC d           3.246  10.396   7.830  0.00  0.00     0.030 H 
ATOM     95  H47 ROC d           1.650  10.882   7.163  0.00  0.00     0.030 H 
ATOM     96  H48 ROC d           1.804   9.361   8.104  0.00  0.00     0.030 H 
ENDBRANCH  88  93
BRANCH  88  97
ATOM     97  C32 ROC d           3.153  11.686   9.859  0.00  0.00    -0.054 C 
ATOM     98  H49 ROC d           3.467  11.049  10.699  0.00  0.00     0.030 H 
ATOM     99  H50 ROC d           2.995  12.713  10.218  0.00  0.00     0.030 H 
ATOM    100  H51 ROC d           3.935  11.684   9.084  0.00  0.00     0.030 H 
ENDBRANCH  88  97
ENDBRANCH  86  88
ENDBRANCH  59  84
ENDBRANCH  55  58
ENDBRANCH   1  55
TORSDOF 17
ENDMDL
MODEL 3
REMARK VINA RESULT:      -9.1      2.075     10.635
REMARK  17 active torsions:
REMARK  status: ('A' for Active; 'I' for Inactive)
REMARK    1  A    between atoms: C_1  and  C2_4 
REMARK    2  A    between atoms: CA_14  and  N_13 
REMARK    3  A    between atoms: C1_15  and  CA_14 
REMARK    4  A    between atoms: CA_14  and  CB_17 
REMARK       I    between atoms: N2_24  and  C1_15 
REMARK    5  A    between atoms: CB_17  and  CG_18 
REMARK    6  A    between atoms: C9_21  and  O2_22 
REMARK    7  A    between atoms: CA1_23  and  C9_21 
REMARK    8  A    between atoms: C9_21  and  CM_33 
REMARK    9  A    between atoms: CA1_23  and  N2_24 
REMARK   10  A    between atoms: CA1_23  and  CB1_25 
REMARK   11  A    between atoms: CB1_25  and  CG1_26 
REMARK   12  A    between atoms: CM_33  and  N11_32 
REMARK   13  A    between atoms: C21_34  and  CC_35 
REMARK       I    between atoms: CC_35  and  N3_45 
REMARK   14  A    between atoms: N3_45  and  CD_46 
REMARK   15  A    between atoms: CD_46  and  C11_47 
REMARK   16  A    between atoms: CD_46  and  C22_48 
REMARK   17  A    between atoms: CD_46  and  C32_49 
ROOT
ATOM      1  C9  ROC d          -4.507   4.252   6.372  0.00  0.00     0.078 C 
ATOM      2  H13 ROC d          -3.801   3.713   5.723  0.00  0.00     0.088 H 
ENDROOT
BRANCH   1   3
ATOM      3  O2  ROC d          -5.759   4.337   5.758  0.00  0.00    -0.392 OA
ATOM      4  H14 ROC d          -5.646   4.383   4.816  0.00  0.00     0.210 HD
ENDBRANCH   1   3
BRANCH   1   5
ATOM      5  CA1 ROC d          -4.003   5.681   6.623  0.00  0.00     0.041 C 
ATOM      6  H15 ROC d          -4.625   6.093   7.432  0.00  0.00     0.076 H 
BRANCH   5   7
ATOM      7  N2  ROC d          -2.612   5.642   7.130  0.00  0.00    -0.363 N 
ATOM      8  C1  ROC d          -2.401   6.053   8.438  0.00  0.00     0.175 C 
ATOM      9  O1  ROC d          -3.205   6.389   9.451  0.00  0.00    -0.175 OA
ATOM     10  H16 ROC d          -1.856   5.333   6.553  0.00  0.00     0.162 HD
BRANCH   8  11
ATOM     11  CA  ROC d          -0.913   6.118   8.784  0.00  0.00     0.083 C 
ATOM     12  H8  ROC d          -0.356   5.946   7.851  0.00  0.00     0.086 H 
BRANCH  11  13
ATOM     13  N   ROC d          -0.570   7.434   9.262  0.00  0.00    -0.354 N 
ATOM     14  C   ROC d          -0.087   8.295   8.329  0.00  0.00     0.204 C 
ATOM     15  O   ROC d           0.061   8.281   7.008  0.00  0.00    -0.170 OA
ATOM     16  H7  ROC d          -0.682   7.697  10.221  0.00  0.00     0.162 HD
BRANCH  14  17
ATOM     17  C2  ROC d           0.442   9.570   8.992  0.00  0.00     0.111 A 
ATOM     18  N1  ROC d           1.159   9.460  10.155  0.00  0.00    -0.244 NA
ATOM     19  C8A ROC d           1.644  10.589  10.797  0.00  0.00     0.068 A 
ATOM     20  C8  ROC d           2.357  10.446  11.968  0.00  0.00    -0.054 A 
ATOM     21  C4A ROC d           1.404  11.850  10.254  0.00  0.00    -0.007 A 
ATOM     22  C7  ROC d           2.850  11.597  12.628  0.00  0.00    -0.081 A 
ATOM     23  H6  ROC d           2.539   9.460  12.380  0.00  0.00     0.087 H 
ATOM     24  C6  ROC d           2.617  12.847  12.092  0.00  0.00    -0.082 A 
ATOM     25  H5  ROC d           3.408  11.496  13.553  0.00  0.00     0.083 H 
ATOM     26  C5  ROC d           1.898  12.987  10.911  0.00  0.00    -0.071 A 
ATOM     27  H4  ROC d           2.999  13.728  12.597  0.00  0.00     0.083 H 
ATOM     28  H3  ROC d           1.720  13.973  10.499  0.00  0.00     0.084 H 
ATOM     29  C4  ROC d           0.684  11.970   9.076  0.00  0.00    -0.068 A 
ATOM     30  C3  ROC d           0.197  10.835   8.442  0.00  0.00    -0.050 A 
ATOM     31  H2  ROC d           0.500  12.950   8.650  0.00  0.00     0.085 H 
ATOM     32  H1  ROC d          -0.371  10.927   7.523  0.00  0.00     0.087 H 
ENDBRANCH  14  17
ENDBRANCH  11  13
BRANCH  11  33
ATOM     33  CB  ROC d          -0.456   5.043   9.782  0.00  0.00     0.023 C 
ATOM     34  H9  ROC d          -0.527   4.057   9.299  0.00  0.00     0.049 H 
ATOM     35  H10 ROC d          -1.119   5.070  10.660  0.00  0.00     0.049 H 
BRANCH  33  36
ATOM     36  CG  ROC d           1.001   5.266  10.250  0.00  0.00     0.151 C 
ATOM     37  OD1 ROC d           1.094   6.122  11.297  0.00  0.00    -0.178 OA
ATOM     38  ND2 ROC d           1.857   4.537   9.478  0.00  0.00    -0.381 N 
ATOM     39  H11 ROC d           2.841   4.572   9.653  0.00  0.00     0.158 HD
ATOM     40  H12 ROC d           1.501   3.968   8.736  0.00  0.00     0.158 HD
ENDBRANCH  33  36
ENDBRANCH  11  33
ENDBRANCH   8  11
ENDBRANCH   5   7
BRANCH   5  41
ATOM     41  CB1 ROC d          -4.166   6.633   5.442  0.00  0.00    -0.020 C 
ATOM     42  H17 ROC d          -5.132   6.437   4.953  0.00  0.00     0.043 H 
ATOM     43  H18 ROC d          -3.350   6.458   4.725  0.00  0.00     0.043 H 
BRANCH  41  44
ATOM     44  CG1 ROC d          -4.125   8.107   5.903  0.00  0.00    -0.056 A 
ATOM     45  CD1 ROC d          -5.190   8.680   6.572  0.00  0.00    -0.077 A 
ATOM     46  CE1 ROC d          -5.131  10.033   6.977  0.00  0.00    -0.082 A 
ATOM     47  H19 ROC d          -6.074   8.090   6.788  0.00  0.00     0.084 H 
ATOM     48  CZ  ROC d          -4.001  10.796   6.706  0.00  0.00    -0.083 A 
ATOM     49  H21 ROC d          -5.969  10.478   7.500  0.00  0.00     0.083 H 
ATOM     50  CE2 ROC d          -2.935  10.227   6.036  0.00  0.00    -0.082 A 
ATOM     51  H23 ROC d          -3.956  11.833   7.021  0.00  0.00     0.083 H 
ATOM     52  CD2 ROC d          -2.996   8.881   5.630  0.00  0.00    -0.077 A 
ATOM     53  H22 ROC d          -2.052  10.818   5.822  0.00  0.00     0.083 H 
ATOM     54  H20 ROC d          -2.158   8.440   5.101  0.00  0.00     0.084 H 
ENDBRANCH  41  44
ENDBRANCH   5  41
ENDBRANCH   1   5
BRANCH   1  55
ATOM     55  CM  ROC d          -4.655   3.525   7.677  0.00  0.00     0.110 C 
ATOM     56  H25 ROC d          -5.645   3.046   7.694  0.00  0.00     0.080 H 
ATOM     57  H26 ROC d          -4.590   4.262   8.491  0.00  0.00     0.080 H 
BRANCH  55  58
ATOM     58  N11 ROC d          -3.631   2.483   7.911  0.00  0.00    -0.057 N 
ATOM     59  C21 ROC d          -4.083   1.107   7.556  0.00  0.00     0.167 C 
ATOM     60  C31 ROC d          -2.991   0.109   7.896  0.00  0.00    -0.027 C 
ATOM     61  H27 ROC d          -4.208   1.100   6.463  0.00  0.00     0.098 H 
ATOM     62  C3A ROC d          -2.414   0.184   9.289  0.00  0.00    -0.047 C 
ATOM     63  H28 ROC d          -2.166   0.263   7.185  0.00  0.00     0.037 H 
ATOM     64  H29 ROC d          -3.408  -0.900   7.762  0.00  0.00     0.037 H 
ATOM     65  C41 ROC d          -3.377  -0.427  10.328  0.00  0.00    -0.061 C 
ATOM     66  C7A ROC d          -2.018   1.592   9.617  0.00  0.00    -0.027 C 
ATOM     67  H30 ROC d          -1.497  -0.424   9.301  0.00  0.00     0.040 H 
ATOM     68  C51 ROC d          -2.876  -0.334  11.716  0.00  0.00    -0.065 C 
ATOM     69  H31 ROC d          -3.528  -1.488  10.082  0.00  0.00     0.033 H 
ATOM     70  H32 ROC d          -4.338   0.105  10.268  0.00  0.00     0.033 H 
ATOM     71  C61 ROC d          -2.513   1.096  12.078  0.00  0.00    -0.065 C 
ATOM     72  H33 ROC d          -1.982  -0.967  11.818  0.00  0.00     0.033 H 
ATOM     73  H34 ROC d          -3.658  -0.690  12.404  0.00  0.00     0.033 H 
ATOM     74  C71 ROC d          -1.574   1.740  11.054  0.00  0.00    -0.060 C 
ATOM     75  H35 ROC d          -2.018   1.097  13.060  0.00  0.00     0.033 H 
ATOM     76  H36 ROC d          -3.436   1.692  12.133  0.00  0.00     0.033 H 
ATOM     77  H37 ROC d          -0.583   1.274  11.156  0.00  0.00     0.033 H 
ATOM     78  H38 ROC d          -1.501   2.813  11.282  0.00  0.00     0.033 H 
ATOM     79  C81 ROC d          -3.148   2.589   9.295  0.00  0.00     0.088 C 
ATOM     80  H39 ROC d          -1.159   1.846   8.978  0.00  0.00     0.043 H 
ATOM     81  H40 ROC d          -3.990   2.396   9.977  0.00  0.00     0.076 H 
ATOM     82  H41 ROC d          -2.771   3.609   9.457  0.00  0.00     0.076 H 
ATOM     83  H24 ROC d          -2.852   2.691   7.306  0.00  0.00     0.281 HD
BRANCH  59  84
ATOM     84  CC  ROC d          -5.412   0.645   8.134  0.00  0.00     0.183 C 
ATOM     85  O3  ROC d          -6.170  -0.096   7.350  0.00  0.00    -0.175 OA
ATOM     86  N3  ROC d          -5.594   1.102   9.437  0.00  0.00    -0.362 N 
ATOM     87  H42 ROC d          -4.861   1.614   9.884  0.00  0.00     0.162 HD
BRANCH  86  88
ATOM     88  CD  ROC d          -6.872   0.841  10.182  0.00  0.00     0.021 C 
BRANCH  88  89
ATOM     89  C11 ROC d          -6.680   1.424  11.542  0.00  0.00    -0.054 C 
ATOM     90  H43 ROC d          -7.309   0.883  12.264  0.00  0.00     0.030 H 
ATOM     91  H44 ROC d          -6.967   2.486  11.528  0.00  0.00     0.030 H 
ATOM     92  H45 ROC d          -5.624   1.334  11.834  0.00  0.00     0.030 H 
ENDBRANCH  88  89
BRANCH  88  93
ATOM     93  C22 ROC d          -7.139  -0.634  10.292  0.00  0.00    -0.054 C 
ATOM     94  H46 ROC d          -7.172  -0.923  11.353  0.00  0.00     0.030 H 
ATOM     95  H47 ROC d          -6.338  -1.191   9.785  0.00  0.00     0.030 H 
ATOM     96  H48 ROC d          -8.104  -0.868   9.820  0.00  0.00     0.030 H 
ENDBRANCH  88  93
BRANCH  88  97
ATOM     97  C32 ROC d          -8.049   1.516   9.505  0.00  0.00    -0.054 C 
ATOM     98  H49 ROC d          -7.839   1.628   8.431  0.00  0.00     0.030 H 
ATOM     99  H50 ROC d          -8.210   2.508   9.952  0.00  0.00     0.030 H 
ATOM    100  H51 ROC d          -8.952   0.902   9.640  0.00  0.00     0.030 H 
ENDBRANCH  88  97
ENDBRANCH  86  88
ENDBRANCH  59  84
ENDBRANCH  55  58
ENDBRANCH   1  55
TORSDOF 17
ENDMDL
MODEL 4
REMARK VINA RESULT:      -9.1      2.222     10.007
REMARK  17 active torsions:
REMARK  status: ('A' for Active; 'I' for Inactive)
REMARK    1  A    between atoms: C_1  and  C2_4 
REMARK    2  A    between atoms: CA_14  and  N_13 
REMARK    3  A    between atoms: C1_15  and  CA_14 
REMARK    4  A    between atoms: CA_14  and  CB_17 
REMARK       I    between atoms: N2_24  and  C1_15 
REMARK    5  A    between atoms: CB_17  and  CG_18 
REMARK    6  A    between atoms: C9_21  and  O2_22 
REMARK    7  A    between atoms: CA1_23  and  C9_21 
REMARK    8  A    between atoms: C9_21  and  CM_33 
REMARK    9  A    between atoms: CA1_23  and  N2_24 
REMARK   10  A    between atoms: CA1_23  and  CB1_25 
REMARK   11  A    between atoms: CB1_25  and  CG1_26 
REMARK   12  A    between atoms: CM_33  and  N11_32 
REMARK   13  A    between atoms: C21_34  and  CC_35 
REMARK       I    between atoms: CC_35  and  N3_45 
REMARK   14  A    between atoms: N3_45  and  CD_46 
REMARK   15  A    between atoms: CD_46  and  C11_47 
REMARK   16  A    between atoms: CD_46  and  C22_48 
REMARK   17  A    between atoms: CD_46  and  C32_49 
ROOT
ATOM      1  C9  ROC d          -1.285   3.688  10.685  0.00  0.00     0.078 C 
ATOM      2  H13 ROC d          -1.236   4.415  11.509  0.00  0.00     0.088 H 
ENDROOT
BRANCH   1   3
ATOM      3  O2  ROC d          -0.335   2.681  10.871  0.00  0.00    -0.392 OA
ATOM      4  H14 ROC d          -0.771   1.838  10.903  0.00  0.00     0.210 HD
ENDBRANCH   1   3
BRANCH   1   5
ATOM      5  CA1 ROC d          -0.983   4.386   9.351  0.00  0.00     0.041 C 
ATOM      6  H15 ROC d          -1.142   3.634   8.563  0.00  0.00     0.076 H 
BRANCH   5   7
ATOM      7  N2  ROC d          -1.966   5.468   9.115  0.00  0.00    -0.363 N 
ATOM      8  C1  ROC d          -2.540   5.541   7.855  0.00  0.00     0.175 C 
ATOM      9  O1  ROC d          -2.509   4.763   6.769  0.00  0.00    -0.175 OA
ATOM     10  H16 ROC d          -2.206   6.120   9.835  0.00  0.00     0.162 HD
BRANCH   8  11
ATOM     11  CA  ROC d          -3.410   6.790   7.694  0.00  0.00     0.083 C 
ATOM     12  H8  ROC d          -4.258   6.684   8.386  0.00  0.00     0.086 H 
BRANCH  11  13
ATOM     13  N   ROC d          -2.670   7.964   8.083  0.00  0.00    -0.354 N 
ATOM     14  C   ROC d          -1.786   8.437   7.166  0.00  0.00     0.204 C 
ATOM     15  O   ROC d          -1.483   8.156   5.903  0.00  0.00    -0.170 OA
ATOM     16  H7  ROC d          -2.800   8.404   8.972  0.00  0.00     0.162 HD
BRANCH  14  17
ATOM     17  C2  ROC d          -0.913   9.539   7.774  0.00  0.00     0.111 A 
ATOM     18  N1  ROC d           0.423   9.296   7.959  0.00  0.00    -0.244 NA
ATOM     19  C8A ROC d           1.246  10.259   8.520  0.00  0.00     0.068 A 
ATOM     20  C8  ROC d           2.586   9.983   8.698  0.00  0.00    -0.054 A 
ATOM     21  C4A ROC d           0.713  11.491   8.899  0.00  0.00    -0.007 A 
ATOM     22  C7  ROC d           3.428  10.962   9.275  0.00  0.00    -0.081 A 
ATOM     23  H6  ROC d           2.989   9.023   8.399  0.00  0.00     0.087 H 
ATOM     24  C6  ROC d           2.905  12.184   9.648  0.00  0.00    -0.082 A 
ATOM     25  H5  ROC d           4.482  10.754   9.424  0.00  0.00     0.083 H 
ATOM     26  C5  ROC d           1.555  12.459   9.467  0.00  0.00    -0.071 A 
ATOM     27  H4  ROC d           3.553  12.935  10.086  0.00  0.00     0.083 H 
ATOM     28  H3  ROC d           1.153  13.421   9.764  0.00  0.00     0.084 H 
ATOM     29  C4  ROC d          -0.636  11.746   8.712  0.00  0.00    -0.068 A 
ATOM     30  C3  ROC d          -1.455  10.774   8.154  0.00  0.00    -0.050 A 
ATOM     31  H2  ROC d          -1.052  12.704   9.001  0.00  0.00     0.085 H 
ATOM     32  H1  ROC d          -2.512  10.971   8.011  0.00  0.00     0.087 H 
ENDBRANCH  14  17
ENDBRANCH  11  13
BRANCH  11  33
ATOM     33  CB  ROC d          -4.000   6.962   6.287  0.00  0.00     0.023 C 
ATOM     34  H9  ROC d          -4.206   5.967   5.864  0.00  0.00     0.049 H 
ATOM     35  H10 ROC d          -3.265   7.484   5.655  0.00  0.00     0.049 H 
BRANCH  33  36
ATOM     36  CG  ROC d          -5.312   7.779   6.303  0.00  0.00     0.151 C 
ATOM     37  OD1 ROC d          -5.434   8.560   7.406  0.00  0.00    -0.178 OA
ATOM     38  ND2 ROC d          -6.047   7.509   5.186  0.00  0.00    -0.381 N 
ATOM     39  H11 ROC d          -6.928   7.960   5.046  0.00  0.00     0.158 HD
ATOM     40  H12 ROC d          -5.704   6.859   4.508  0.00  0.00     0.158 HD
ENDBRANCH  33  36
ENDBRANCH  11  33
ENDBRANCH   8  11
ENDBRANCH   5   7
BRANCH   5  41
ATOM     41  CB1 ROC d           0.457   4.863   9.191  0.00  0.00    -0.020 C 
ATOM     42  H17 ROC d           0.567   5.355   8.213  0.00  0.00     0.043 H 
ATOM     43  H18 ROC d           1.131   3.994   9.242  0.00  0.00     0.043 H 
BRANCH  41  44
ATOM     44  CG1 ROC d           0.841   5.864  10.304  0.00  0.00    -0.056 A 
ATOM     45  CD1 ROC d           0.218   7.093  10.410  0.00  0.00    -0.077 A 
ATOM     46  CE1 ROC d           0.592   7.994  11.433  0.00  0.00    -0.082 A 
ATOM     47  H19 ROC d          -0.560   7.368   9.706  0.00  0.00     0.084 H 
ATOM     48  CZ  ROC d           1.587   7.650  12.340  0.00  0.00    -0.083 A 
ATOM     49  H21 ROC d           0.102   8.958  11.511  0.00  0.00     0.083 H 
ATOM     50  CE2 ROC d           2.213   6.422  12.237  0.00  0.00    -0.082 A 
ATOM     51  H23 ROC d           1.870   8.341  13.126  0.00  0.00     0.083 H 
ATOM     52  CD2 ROC d           1.842   5.527  11.216  0.00  0.00    -0.077 A 
ATOM     53  H22 ROC d           2.989   6.149  12.941  0.00  0.00     0.083 H 
ATOM     54  H20 ROC d           2.339   4.566  11.136  0.00  0.00     0.084 H 
ENDBRANCH  41  44
ENDBRANCH   5  41
ENDBRANCH   1   5
BRANCH   1  55
ATOM     55  CM  ROC d          -2.649   3.064  10.639  0.00  0.00     0.110 C 
ATOM     56  H25 ROC d          -3.300   3.701  10.021  0.00  0.00     0.080 H 
ATOM     57  H26 ROC d          -3.045   3.021  11.664  0.00  0.00     0.080 H 
BRANCH  55  58
ATOM     58  N11 ROC d          -2.672   1.695  10.076  0.00  0.00    -0.057 N 
ATOM     59  C21 ROC d          -3.130   1.636   8.658  0.00  0.00     0.167 C 
ATOM     60  C31 ROC d          -3.183   0.190   8.200  0.00  0.00    -0.027 C 
ATOM     61  H27 ROC d          -2.354   2.143   8.066  0.00  0.00     0.098 H 
ATOM     62  C3A ROC d          -3.931  -0.775   9.087  0.00  0.00    -0.047 C 
ATOM     63  H28 ROC d          -2.147  -0.170   8.114  0.00  0.00     0.037 H 
ATOM     64  H29 ROC d          -3.661   0.171   7.210  0.00  0.00     0.037 H 
ATOM     65  C41 ROC d          -5.457  -0.610   8.935  0.00  0.00    -0.061 C 
ATOM     66  C7A ROC d          -3.469  -0.647  10.507  0.00  0.00    -0.027 C 
ATOM     67  H30 ROC d          -3.681  -1.794   8.754  0.00  0.00     0.040 H 
ATOM     68  C51 ROC d          -6.235  -1.503   9.820  0.00  0.00    -0.065 C 
ATOM     69  H31 ROC d          -5.729  -0.830   7.892  0.00  0.00     0.033 H 
ATOM     70  H32 ROC d          -5.721   0.431   9.171  0.00  0.00     0.033 H 
ATOM     71  C61 ROC d          -5.808  -1.351  11.270  0.00  0.00    -0.065 C 
ATOM     72  H33 ROC d          -6.075  -2.546   9.508  0.00  0.00     0.033 H 
ATOM     73  H34 ROC d          -7.302  -1.254   9.733  0.00  0.00     0.033 H 
ATOM     74  C71 ROC d          -4.294  -1.488  11.453  0.00  0.00    -0.060 C 
ATOM     75  H35 ROC d          -6.308  -2.127  11.869  0.00  0.00     0.033 H 
ATOM     76  H36 ROC d          -6.118  -0.358  11.627  0.00  0.00     0.033 H 
ATOM     77  H37 ROC d          -4.023  -2.543  11.300  0.00  0.00     0.033 H 
ATOM     78  H38 ROC d          -4.044  -1.191  12.483  0.00  0.00     0.033 H 
ATOM     79  C81 ROC d          -3.450   0.823  10.967  0.00  0.00     0.088 C 
ATOM     80  H39 ROC d          -2.435  -1.021  10.549  0.00  0.00     0.043 H 
ATOM     81  H40 ROC d          -4.487   1.192  11.002  0.00  0.00     0.076 H 
ATOM     82  H41 ROC d          -3.010   0.869  11.974  0.00  0.00     0.076 H 
ATOM     83  H24 ROC d          -1.722   1.356  10.081  0.00  0.00     0.281 HD
BRANCH  59  84
ATOM     84  CC  ROC d          -4.438   2.339   8.325  0.00  0.00     0.183 C 
ATOM     85  O3  ROC d          -5.241   2.601   9.336  0.00  0.00    -0.175 OA
ATOM     86  N3  ROC d          -4.554   2.591   6.960  0.00  0.00    -0.362 N 
ATOM     87  H42 ROC d          -3.794   2.361   6.352  0.00  0.00     0.162 HD
BRANCH  86  88
ATOM     88  CD  ROC d          -5.800   3.201   6.384  0.00  0.00     0.021 C 
BRANCH  88  89
ATOM     89  C11 ROC d          -5.431   3.675   5.019  0.00  0.00    -0.054 C 
ATOM     90  H43 ROC d          -5.337   4.771   5.024  0.00  0.00     0.030 H 
ATOM     91  H44 ROC d          -6.213   3.378   4.304  0.00  0.00     0.030 H 
ATOM     92  H45 ROC d          -4.472   3.227   4.721  0.00  0.00     0.030 H 
ENDBRANCH  88  89
BRANCH  88  93
ATOM     93  C22 ROC d          -6.266   4.361   7.218  0.00  0.00    -0.054 C 
ATOM     94  H46 ROC d          -7.363   4.426   7.176  0.00  0.00     0.030 H 
ATOM     95  H47 ROC d          -5.829   5.292   6.829  0.00  0.00     0.030 H 
ATOM     96  H48 ROC d          -5.948   4.215   8.261  0.00  0.00     0.030 H 
ENDBRANCH  88  93
BRANCH  88  97
ATOM     97  C32 ROC d          -6.913   2.177   6.279  0.00  0.00    -0.054 C 
ATOM     98  H49 ROC d          -6.551   1.203   6.640  0.00  0.00     0.030 H 
ATOM     99  H50 ROC d          -7.228   2.084   5.229  0.00  0.00     0.030 H 
ATOM    100  H51 ROC d          -7.769   2.501   6.891  0.00  0.00     0.030 H 
ENDBRANCH  88  97
ENDBRANCH  86  88
ENDBRANCH  59  84
ENDBRANCH  55  58
ENDBRANCH   1  55
TORSDOF 17
ENDMDL
MODEL 5
REMARK VINA RESULT:      -8.8      3.024     10.149
REMARK  17 active torsions:
REMARK  status: ('A' for Active; 'I' for Inactive)
REMARK    1  A    between atoms: C_1  and  C2_4 
REMARK    2  A    between atoms: CA_14  and  N_13 
REMARK    3  A    between atoms: C1_15  and  CA_14 
REMARK    4  A    between atoms: CA_14  and  CB_17 
REMARK       I    between atoms: N2_24  and  C1_15 
REMARK    5  A    between atoms: CB_17  and  CG_18 
REMARK    6  A    between atoms: C9_21  and  O2_22 
REMARK    7  A    between atoms: CA1_23  and  C9_21 
REMARK    8  A    between atoms: C9_21  and  CM_33 
REMARK    9  A    between atoms: CA1_23  and  N2_24 
REMARK   10  A    between atoms: CA1_23  and  CB1_25 
REMARK   11  A    between atoms: CB1_25  and  CG1_26 
REMARK   12  A    between atoms: CM_33  and  N11_32 
REMARK   13  A    between atoms: C21_34  and  CC_35 
REMARK       I    between atoms: CC_35  and  N3_45 
REMARK   14  A    between atoms: N3_45  and  CD_46 
REMARK   15  A    between atoms: CD_46  and  C11_47 
REMARK   16  A    between atoms: CD_46  and  C22_48 
REMARK   17  A    between atoms: CD_46  and  C32_49 
ROOT
ATOM      1  C9  ROC d          -2.930   4.892   7.044  0.00  0.00     0.078 C 
ATOM      2  H13 ROC d          -2.178   4.931   6.243  0.00  0.00     0.088 H 
ENDROOT
BRANCH   1   3
ATOM      3  O2  ROC d          -3.940   5.827   6.805  0.00  0.00    -0.392 OA
ATOM      4  H14 ROC d          -3.548   6.667   6.598  0.00  0.00     0.210 HD
ENDBRANCH   1   3
BRANCH   1   5
ATOM      5  CA1 ROC d          -2.278   5.230   8.393  0.00  0.00     0.041 C 
ATOM      6  H15 ROC d          -1.476   4.492   8.545  0.00  0.00     0.076 H 
BRANCH   5   7
ATOM      7  N2  ROC d          -1.630   6.560   8.319  0.00  0.00    -0.363 N 
ATOM      8  C1  ROC d          -0.346   6.669   8.830  0.00  0.00     0.175 C 
ATOM      9  O1  ROC d           0.549   5.794   9.299  0.00  0.00    -0.175 OA
ATOM     10  H16 ROC d          -2.099   7.346   7.917  0.00  0.00     0.162 HD
BRANCH   8  11
ATOM     11  CA  ROC d           0.145   8.118   8.840  0.00  0.00     0.083 C 
ATOM     12  H8  ROC d           0.981   8.180   8.128  0.00  0.00     0.086 H 
BRANCH  11  13
ATOM     13  N   ROC d          -0.896   8.999   8.371  0.00  0.00    -0.354 N 
ATOM     14  C   ROC d          -0.664  10.327   8.534  0.00  0.00     0.204 C 
ATOM     15  O   ROC d           0.362  11.073   8.932  0.00  0.00    -0.170 OA
ATOM     16  H7  ROC d          -1.736   8.653   7.952  0.00  0.00     0.162 HD
BRANCH  14  17
ATOM     17  C2  ROC d          -1.921  11.139   8.206  0.00  0.00     0.111 A 
ATOM     18  N1  ROC d          -2.809  10.639   7.289  0.00  0.00    -0.244 NA
ATOM     19  C8A ROC d          -3.951  11.348   6.951  0.00  0.00     0.068 A 
ATOM     20  C8  ROC d          -4.822  10.822   6.021  0.00  0.00    -0.054 A 
ATOM     21  C4A ROC d          -4.203  12.581   7.551  0.00  0.00    -0.007 A 
ATOM     22  C7  ROC d          -5.987  11.545   5.671  0.00  0.00    -0.081 A 
ATOM     23  H6  ROC d          -4.616   9.862   5.562  0.00  0.00     0.087 H 
ATOM     24  C6  ROC d          -6.242  12.763   6.265  0.00  0.00    -0.082 A 
ATOM     25  H5  ROC d          -6.676  11.142   4.937  0.00  0.00     0.083 H 
ATOM     26  C5  ROC d          -5.362  13.291   7.202  0.00  0.00    -0.071 A 
ATOM     27  H4  ROC d          -7.138  13.314   5.999  0.00  0.00     0.083 H 
ATOM     28  H3  ROC d          -5.571  14.249   7.663  0.00  0.00     0.084 H 
ATOM     29  C4  ROC d          -3.313  13.091   8.483  0.00  0.00    -0.068 A 
ATOM     30  C3  ROC d          -2.169  12.378   8.812  0.00  0.00    -0.050 A 
ATOM     31  H2  ROC d          -3.510  14.047   8.954  0.00  0.00     0.085 H 
ATOM     32  H1  ROC d          -1.469  12.778   9.537  0.00  0.00     0.087 H 
ENDBRANCH  14  17
ENDBRANCH  11  13
BRANCH  11  33
ATOM     33  CB  ROC d           0.680   8.587  10.200  0.00  0.00     0.023 C 
ATOM     34  H9  ROC d           0.144   8.049  10.997  0.00  0.00     0.049 H 
ATOM     35  H10 ROC d           0.498   9.667  10.300  0.00  0.00     0.049 H 
BRANCH  33  36
ATOM     36  CG  ROC d           2.196   8.321  10.352  0.00  0.00     0.151 C 
ATOM     37  OD1 ROC d           2.596   8.270  11.647  0.00  0.00    -0.178 OA
ATOM     38  ND2 ROC d           2.776   8.205   9.123  0.00  0.00    -0.381 N 
ATOM     39  H11 ROC d           3.758   8.030   9.049  0.00  0.00     0.158 HD
ATOM     40  H12 ROC d           2.220   8.294   8.297  0.00  0.00     0.158 HD
ENDBRANCH  33  36
ENDBRANCH  11  33
ENDBRANCH   8  11
ENDBRANCH   5   7
BRANCH   5  41
ATOM     41  CB1 ROC d          -3.202   5.099   9.600  0.00  0.00    -0.020 C 
ATOM     42  H17 ROC d          -4.237   4.976   9.248  0.00  0.00     0.043 H 
ATOM     43  H18 ROC d          -3.128   6.011  10.210  0.00  0.00     0.043 H 
BRANCH  41  44
ATOM     44  CG1 ROC d          -2.818   3.879  10.467  0.00  0.00    -0.056 A 
ATOM     45  CD1 ROC d          -3.758   3.219  11.235  0.00  0.00    -0.077 A 
ATOM     46  CE1 ROC d          -3.378   2.110  12.026  0.00  0.00    -0.082 A 
ATOM     47  H19 ROC d          -4.790   3.552  11.232  0.00  0.00     0.084 H 
ATOM     48  CZ  ROC d          -2.058   1.675  12.035  0.00  0.00    -0.083 A 
ATOM     49  H21 ROC d          -4.120   1.596  12.627  0.00  0.00     0.083 H 
ATOM     50  CE2 ROC d          -1.115   2.334  11.270  0.00  0.00    -0.082 A 
ATOM     51  H23 ROC d          -1.770   0.823  12.640  0.00  0.00     0.083 H 
ATOM     52  CD2 ROC d          -1.493   3.441  10.485  0.00  0.00    -0.077 A 
ATOM     53  H22 ROC d          -0.084   2.000  11.274  0.00  0.00     0.083 H 
ATOM     54  H20 ROC d          -0.748   3.956   9.890  0.00  0.00     0.084 H 
ENDBRANCH  41  44
ENDBRANCH   5  41
ENDBRANCH   1   5
BRANCH   1  55
ATOM     55  CM  ROC d          -3.542   3.522   7.101  0.00  0.00     0.110 C 
ATOM     56  H25 ROC d          -3.298   3.076   8.077  0.00  0.00     0.080 H 
ATOM     57  H26 ROC d          -3.100   2.913   6.298  0.00  0.00     0.080 H 
BRANCH  55  58
ATOM     58  N11 ROC d          -5.013   3.507   6.939  0.00  0.00    -0.057 N 
ATOM     59  C21 ROC d          -5.729   2.776   8.023  0.00  0.00     0.167 C 
ATOM     60  C31 ROC d          -7.218   2.760   7.728  0.00  0.00    -0.027 C 
ATOM     61  H27 ROC d          -5.580   3.367   8.939  0.00  0.00     0.098 H 
ATOM     62  C3A ROC d          -7.632   2.297   6.353  0.00  0.00    -0.047 C 
ATOM     63  H28 ROC d          -7.596   3.784   7.863  0.00  0.00     0.037 H 
ATOM     64  H29 ROC d          -7.695   2.093   8.462  0.00  0.00     0.037 H 
ATOM     65  C41 ROC d          -7.530   0.764   6.222  0.00  0.00    -0.061 C 
ATOM     66  C7A ROC d          -6.853   3.026   5.299  0.00  0.00    -0.027 C 
ATOM     67  H30 ROC d          -8.691   2.564   6.218  0.00  0.00     0.040 H 
ATOM     68  C51 ROC d          -7.880   0.265   4.875  0.00  0.00    -0.065 C 
ATOM     69  H31 ROC d          -8.213   0.305   6.951  0.00  0.00     0.033 H 
ATOM     70  H32 ROC d          -6.496   0.462   6.448  0.00  0.00     0.033 H 
ATOM     71  C61 ROC d          -7.065   0.964   3.799  0.00  0.00    -0.065 C 
ATOM     72  H33 ROC d          -8.948   0.450   4.691  0.00  0.00     0.033 H 
ATOM     73  H34 ROC d          -7.681  -0.815   4.829  0.00  0.00     0.033 H 
ATOM     74  C71 ROC d          -7.128   2.489   3.914  0.00  0.00    -0.060 C 
ATOM     75  H35 ROC d          -7.454   0.668   2.814  0.00  0.00     0.033 H 
ATOM     76  H36 ROC d          -6.016   0.646   3.889  0.00  0.00     0.033 H 
ATOM     77  H37 ROC d          -8.135   2.816   3.612  0.00  0.00     0.033 H 
ATOM     78  H38 ROC d          -6.383   2.916   3.227  0.00  0.00     0.033 H 
ATOM     79  C81 ROC d          -5.342   3.007   5.596  0.00  0.00     0.088 C 
ATOM     80  H39 ROC d          -7.182   4.076   5.318  0.00  0.00     0.043 H 
ATOM     81  H40 ROC d          -4.980   1.972   5.509  0.00  0.00     0.076 H 
ATOM     82  H41 ROC d          -4.831   3.638   4.853  0.00  0.00     0.076 H 
ATOM     83  H24 ROC d          -5.327   4.464   6.986  0.00  0.00     0.281 HD
BRANCH  59  84
ATOM     84  CC  ROC d          -5.244   1.371   8.347  0.00  0.00     0.183 C 
ATOM     85  O3  ROC d          -4.355   0.850   7.526  0.00  0.00    -0.175 OA
ATOM     86  N3  ROC d          -5.848   0.870   9.498  0.00  0.00    -0.362 N 
ATOM     87  H42 ROC d          -6.466   1.455  10.023  0.00  0.00     0.162 HD
BRANCH  86  88
ATOM     88  CD  ROC d          -5.586  -0.533   9.967  0.00  0.00     0.021 C 
BRANCH  88  89
ATOM     89  C11 ROC d          -6.276  -0.661  11.283  0.00  0.00    -0.054 C 
ATOM     90  H43 ROC d          -7.339  -0.886  11.119  0.00  0.00     0.030 H 
ATOM     91  H44 ROC d          -6.182   0.284  11.840  0.00  0.00     0.030 H 
ATOM     92  H45 ROC d          -5.814  -1.474  11.862  0.00  0.00     0.030 H 
ENDBRANCH  88  89
BRANCH  88  93
ATOM     93  C22 ROC d          -4.113  -0.779  10.136  0.00  0.00    -0.054 C 
ATOM     94  H46 ROC d          -3.610  -0.681   9.163  0.00  0.00     0.030 H 
ATOM     95  H47 ROC d          -3.954  -1.793  10.531  0.00  0.00     0.030 H 
ATOM     96  H48 ROC d          -3.696  -0.042  10.839  0.00  0.00     0.030 H 
ENDBRANCH  88  93
BRANCH  88  97
ATOM     97  C32 ROC d          -6.158  -1.549   8.997  0.00  0.00    -0.054 C 
ATOM     98  H49 ROC d          -7.249  -1.604   9.124  0.00  0.00     0.030 H 
ATOM     99  H50 ROC d          -5.716  -2.536   9.197  0.00  0.00     0.030 H 
ATOM    100  H51 ROC d          -5.923  -1.245   7.966  0.00  0.00     0.030 H 
ENDBRANCH  88  97
ENDBRANCH  86  88
ENDBRANCH  59  84
ENDBRANCH  55  58
ENDBRANCH   1  55
TORSDOF 17
ENDMDL
MODEL 6
REMARK VINA RESULT:      -8.1      2.658      5.972
REMARK  17 active torsions:
REMARK  status: ('A' for Active; 'I' for Inactive)
REMARK    1  A    between atoms: C_1  and  C2_4 
REMARK    2  A    between atoms: CA_14  and  N_13 
REMARK    3  A    between atoms: C1_15  and  CA_14 
REMARK    4  A    between atoms: CA_14  and  CB_17 
REMARK       I    between atoms: N2_24  and  C1_15 
REMARK    5  A    between atoms: CB_17  and  CG_18 
REMARK    6  A    between atoms: C9_21  and  O2_22 
REMARK    7  A    between atoms: CA1_23  and  C9_21 
REMARK    8  A    between atoms: C9_21  and  CM_33 
REMARK    9  A    between atoms: CA1_23  and  N2_24 
REMARK   10  A    between atoms: CA1_23  and  CB1_25 
REMARK   11  A    between atoms: CB1_25  and  CG1_26 
REMARK   12  A    between atoms: CM_33  and  N11_32 
REMARK   13  A    between atoms: C21_34  and  CC_35 
REMARK       I    between atoms: CC_35  and  N3_45 
REMARK   14  A    between atoms: N3_45  and  CD_46 
REMARK   15  A    between atoms: CD_46  and  C11_47 
REMARK   16  A    between atoms: CD_46  and  C22_48 
REMARK   17  A    between atoms: CD_46  and  C32_49 
ROOT
ATOM      1  C9  ROC d          -1.853   5.839   8.841  0.00  0.00     0.078 C 
ATOM      2  H13 ROC d          -2.907   5.802   9.153  0.00  0.00     0.088 H 
ENDROOT
BRANCH   1   3
ATOM      3  O2  ROC d          -1.633   4.959   7.779  0.00  0.00    -0.392 OA
ATOM      4  H14 ROC d          -1.471   5.456   6.986  0.00  0.00     0.210 HD
ENDBRANCH   1   3
BRANCH   1   5
ATOM      5  CA1 ROC d          -0.946   5.416  10.006  0.00  0.00     0.041 C 
ATOM      6  H15 ROC d          -1.118   6.142  10.814  0.00  0.00     0.076 H 
BRANCH   5   7
ATOM      7  N2  ROC d          -1.371   4.093  10.520  0.00  0.00    -0.363 N 
ATOM      8  C1  ROC d          -2.729   3.812  10.502  0.00  0.00     0.175 C 
ATOM      9  O1  ROC d          -3.803   4.431  10.003  0.00  0.00    -0.175 OA
ATOM     10  H16 ROC d          -0.707   3.431  10.865  0.00  0.00     0.162 HD
BRANCH   8  11
ATOM     11  CA  ROC d          -3.049   2.490  11.203  0.00  0.00     0.083 C 
ATOM     12  H8  ROC d          -3.556   2.740  12.146  0.00  0.00     0.086 H 
BRANCH  11  13
ATOM     13  N   ROC d          -3.965   1.714  10.405  0.00  0.00    -0.354 N 
ATOM     14  C   ROC d          -5.212   1.557  10.922  0.00  0.00     0.204 C 
ATOM     15  O   ROC d          -5.877   2.040  11.966  0.00  0.00    -0.170 OA
ATOM     16  H7  ROC d          -3.700   1.316   9.526  0.00  0.00     0.162 HD
BRANCH  14  17
ATOM     17  C2  ROC d          -6.013   0.541  10.102  0.00  0.00     0.111 A 
ATOM     18  N1  ROC d          -5.887   0.550   8.736  0.00  0.00    -0.244 NA
ATOM     19  C8A ROC d          -6.605  -0.341   7.954  0.00  0.00     0.068 A 
ATOM     20  C8  ROC d          -6.461  -0.304   6.583  0.00  0.00    -0.054 A 
ATOM     21  C4A ROC d          -7.462  -1.260   8.560  0.00  0.00    -0.007 A 
ATOM     22  C7  ROC d          -7.196  -1.210   5.781  0.00  0.00    -0.081 A 
ATOM     23  H6  ROC d          -5.791   0.413   6.124  0.00  0.00     0.087 H 
ATOM     24  C6  ROC d          -8.042  -2.123   6.378  0.00  0.00    -0.082 A 
ATOM     25  H5  ROC d          -7.094  -1.187   4.702  0.00  0.00     0.083 H 
ATOM     26  C5  ROC d          -8.184  -2.157   7.759  0.00  0.00    -0.071 A 
ATOM     27  H4  ROC d          -8.601  -2.819   5.762  0.00  0.00     0.083 H 
ATOM     28  H3  ROC d          -8.852  -2.877   8.218  0.00  0.00     0.084 H 
ATOM     29  C4  ROC d          -7.591  -1.278   9.939  0.00  0.00    -0.068 A 
ATOM     30  C3  ROC d          -6.873  -0.379  10.716  0.00  0.00    -0.050 A 
ATOM     31  H2  ROC d          -8.253  -1.994  10.412  0.00  0.00     0.085 H 
ATOM     32  H1  ROC d          -6.977  -0.389  11.795  0.00  0.00     0.087 H 
ENDBRANCH  14  17
ENDBRANCH  11  13
BRANCH  11  33
ATOM     33  CB  ROC d          -1.810   1.661  11.566  0.00  0.00     0.023 C 
ATOM     34  H9  ROC d          -1.872   1.375  12.627  0.00  0.00     0.049 H 
ATOM     35  H10 ROC d          -0.911   2.275  11.405  0.00  0.00     0.049 H 
BRANCH  33  36
ATOM     36  CG  ROC d          -1.697   0.378  10.710  0.00  0.00     0.151 C 
ATOM     37  OD1 ROC d          -2.535  -0.606  11.122  0.00  0.00    -0.178 OA
ATOM     38  ND2 ROC d          -0.762   0.547   9.732  0.00  0.00    -0.381 N 
ATOM     39  H11 ROC d          -0.570  -0.195   9.090  0.00  0.00     0.158 HD
ATOM     40  H12 ROC d          -0.269   1.414   9.657  0.00  0.00     0.158 HD
ENDBRANCH  33  36
ENDBRANCH  11  33
ENDBRANCH   8  11
ENDBRANCH   5   7
BRANCH   5  41
ATOM     41  CB1 ROC d           0.548   5.471   9.704  0.00  0.00    -0.020 C 
ATOM     42  H17 ROC d           0.691   5.696   8.637  0.00  0.00     0.043 H 
ATOM     43  H18 ROC d           0.998   4.494   9.936  0.00  0.00     0.043 H 
BRANCH  41  44
ATOM     44  CG1 ROC d           1.248   6.560  10.546  0.00  0.00    -0.056 A 
ATOM     45  CD1 ROC d           0.818   6.868  11.824  0.00  0.00    -0.077 A 
ATOM     46  CE1 ROC d           1.471   7.875  12.571  0.00  0.00    -0.082 A 
ATOM     47  H19 ROC d          -0.023   6.336  12.254  0.00  0.00     0.084 H 
ATOM     48  CZ  ROC d           2.551   8.561  12.028  0.00  0.00    -0.083 A 
ATOM     49  H21 ROC d           1.129   8.113  13.571  0.00  0.00     0.083 H 
ATOM     50  CE2 ROC d           2.983   8.257  10.751  0.00  0.00    -0.082 A 
ATOM     51  H23 ROC d           3.052   9.330  12.604  0.00  0.00     0.083 H 
ATOM     52  CD2 ROC d           2.330   7.257  10.006  0.00  0.00    -0.077 A 
ATOM     53  H22 ROC d           3.824   8.790  10.323  0.00  0.00     0.083 H 
ATOM     54  H20 ROC d           2.671   7.025   9.003  0.00  0.00     0.084 H 
ENDBRANCH  41  44
ENDBRANCH   5  41
ENDBRANCH   1   5
BRANCH   1  55
ATOM     55  CM  ROC d          -1.502   7.229   8.398  0.00  0.00     0.110 C 
ATOM     56  H25 ROC d          -0.417   7.271   8.219  0.00  0.00     0.080 H 
ATOM     57  H26 ROC d          -1.767   7.927   9.207  0.00  0.00     0.080 H 
BRANCH  55  58
ATOM     58  N11 ROC d          -2.193   7.667   7.164  0.00  0.00    -0.057 N 
ATOM     59  C21 ROC d          -1.715   8.980   6.643  0.00  0.00     0.167 C 
ATOM     60  C31 ROC d          -2.530   9.369   5.422  0.00  0.00    -0.027 C 
ATOM     61  H27 ROC d          -0.679   8.818   6.311  0.00  0.00     0.098 H 
ATOM     62  C3A ROC d          -4.031   9.317   5.564  0.00  0.00    -0.047 C 
ATOM     63  H28 ROC d          -2.249   8.689   4.604  0.00  0.00     0.037 H 
ATOM     64  H29 ROC d          -2.255  10.399   5.153  0.00  0.00     0.037 H 
ATOM     65  C41 ROC d          -4.560  10.520   6.372  0.00  0.00    -0.061 C 
ATOM     66  C7A ROC d          -4.458   7.998   6.134  0.00  0.00    -0.027 C 
ATOM     67  H30 ROC d          -4.463   9.391   4.555  0.00  0.00     0.040 H 
ATOM     68  C51 ROC d          -6.023  10.490   6.580  0.00  0.00    -0.065 C 
ATOM     69  H31 ROC d          -4.304  11.443   5.832  0.00  0.00     0.033 H 
ATOM     70  H32 ROC d          -4.068  10.523   7.356  0.00  0.00     0.033 H 
ATOM     71  C61 ROC d          -6.466   9.175   7.200  0.00  0.00    -0.065 C 
ATOM     72  H33 ROC d          -6.526  10.615   5.610  0.00  0.00     0.033 H 
ATOM     73  H34 ROC d          -6.308  11.315   7.249  0.00  0.00     0.033 H 
ATOM     74  C71 ROC d          -5.939   7.959   6.433  0.00  0.00    -0.060 C 
ATOM     75  H35 ROC d          -7.565   9.140   7.205  0.00  0.00     0.033 H 
ATOM     76  H36 ROC d          -6.093   9.129   8.233  0.00  0.00     0.033 H 
ATOM     77  H37 ROC d          -6.481   7.894   5.477  0.00  0.00     0.033 H 
ATOM     78  H38 ROC d          -6.145   7.060   7.032  0.00  0.00     0.033 H 
ATOM     79  C81 ROC d          -3.644   7.632   7.390  0.00  0.00     0.088 C 
ATOM     80  H39 ROC d          -4.255   7.232   5.371  0.00  0.00     0.043 H 
ATOM     81  H40 ROC d          -3.892   8.347   8.189  0.00  0.00     0.076 H 
ATOM     82  H41 ROC d          -3.926   6.617   7.706  0.00  0.00     0.076 H 
ATOM     83  H24 ROC d          -1.985   6.986   6.451  0.00  0.00     0.281 HD
BRANCH  59  84
ATOM     84  CC  ROC d          -1.664  10.138   7.628  0.00  0.00     0.183 C 
ATOM     85  O3  ROC d          -2.765  10.851   7.757  0.00  0.00    -0.175 OA
ATOM     86  N3  ROC d          -0.418  10.237   8.243  0.00  0.00    -0.362 N 
ATOM     87  H42 ROC d           0.282   9.550   8.047  0.00  0.00     0.162 HD
BRANCH  86  88
ATOM     88  CD  ROC d          -0.106  11.358   9.193  0.00  0.00     0.021 C 
BRANCH  88  89
ATOM     89  C11 ROC d           0.099  10.720  10.526  0.00  0.00    -0.054 C 
ATOM     90  H43 ROC d          -0.579  11.178  11.260  0.00  0.00     0.030 H 
ATOM     91  H44 ROC d           1.142  10.867  10.846  0.00  0.00     0.030 H 
ATOM     92  H45 ROC d          -0.112   9.643  10.454  0.00  0.00     0.030 H 
ENDBRANCH  88  89
BRANCH  88  93
ATOM     93  C22 ROC d          -1.244  12.336   9.265  0.00  0.00    -0.054 C 
ATOM     94  H46 ROC d          -1.084  13.141   8.533  0.00  0.00     0.030 H 
ATOM     95  H47 ROC d          -1.296  12.765  10.277  0.00  0.00     0.030 H 
ATOM     96  H48 ROC d          -2.188  11.818   9.039  0.00  0.00     0.030 H 
ENDBRANCH  88  93
BRANCH  88  97
ATOM     97  C32 ROC d           1.159  12.087   8.783  0.00  0.00    -0.054 C 
ATOM     98  H49 ROC d           2.026  11.623   9.275  0.00  0.00     0.030 H 
ATOM     99  H50 ROC d           1.088  13.142   9.084  0.00  0.00     0.030 H 
ATOM    100  H51 ROC d           1.281  12.025   7.691  0.00  0.00     0.030 H 
ENDBRANCH  88  97
ENDBRANCH  86  88
ENDBRANCH  59  84
ENDBRANCH  55  58
ENDBRANCH   1  55
TORSDOF 17
ENDMDL
MODEL 7
REMARK VINA RESULT:      -7.9      2.782     10.171
REMARK  17 active torsions:
REMARK  status: ('A' for Active; 'I' for Inactive)
REMARK    1  A    between atoms: C_1  and  C2_4 
REMARK    2  A    between atoms: CA_14  and  N_13 
REMARK    3  A    between atoms: C1_15  and  CA_14 
REMARK    4  A    between atoms: CA_14  and  CB_17 
REMARK       I    between atoms: N2_24  and  C1_15 
REMARK    5  A    between atoms: CB_17  and  CG_18 
REMARK    6  A    between atoms: C9_21  and  O2_22 
REMARK    7  A    between atoms: CA1_23  and  C9_21 
REMARK    8  A    between atoms: C9_21  and  CM_33 
REMARK    9  A    between atoms: CA1_23  and  N2_24 
REMARK   10  A    between atoms: CA1_23  and  CB1_25 
REMARK   11  A    between atoms: CB1_25  and  CG1_26 
REMARK   12  A    between atoms: CM_33  and  N11_32 
REMARK   13  A    between atoms: C21_34  and  CC_35 
REMARK       I    between atoms: CC_35  and  N3_45 
REMARK   14  A    between atoms: N3_45  and  CD_46 
REMARK   15  A    between atoms: CD_46  and  C11_47 
REMARK   16  A    between atoms: CD_46  and  C22_48 
REMARK   17  A    between atoms: CD_46  and  C32_49 
ROOT
ATOM      1  C9  ROC d          -4.270   5.196   8.888  0.00  0.00     0.078 C 
ATOM      2  H13 ROC d          -5.347   5.421   8.860  0.00  0.00     0.088 H 
ENDROOT
BRANCH   1   3
ATOM      3  O2  ROC d          -3.685   5.777  10.015  0.00  0.00    -0.392 OA
ATOM      4  H14 ROC d          -3.561   5.113  10.683  0.00  0.00     0.210 HD
ENDBRANCH   1   3
BRANCH   1   5
ATOM      5  CA1 ROC d          -3.581   5.775   7.642  0.00  0.00     0.041 C 
ATOM      6  H15 ROC d          -4.156   5.418   6.775  0.00  0.00     0.076 H 
BRANCH   5   7
ATOM      7  N2  ROC d          -3.688   7.252   7.649  0.00  0.00    -0.363 N 
ATOM      8  C1  ROC d          -4.238   7.853   6.527  0.00  0.00     0.175 C 
ATOM      9  O1  ROC d          -4.834   7.397   5.421  0.00  0.00    -0.175 OA
ATOM     10  H16 ROC d          -3.376   7.793   8.430  0.00  0.00     0.162 HD
BRANCH   8  11
ATOM     11  CA  ROC d          -4.144   9.379   6.591  0.00  0.00     0.083 C 
ATOM     12  H8  ROC d          -5.037   9.735   7.124  0.00  0.00     0.086 H 
BRANCH  11  13
ATOM     13  N   ROC d          -2.989   9.774   7.359  0.00  0.00    -0.354 N 
ATOM     14  C   ROC d          -2.963  11.071   7.762  0.00  0.00     0.204 C 
ATOM     15  O   ROC d          -3.808  12.096   7.728  0.00  0.00    -0.170 OA
ATOM     16  H7  ROC d          -2.254   9.133   7.582  0.00  0.00     0.162 HD
BRANCH  14  17
ATOM     17  C2  ROC d          -1.601  11.421   8.370  0.00  0.00     0.111 A 
ATOM     18  N1  ROC d          -0.486  10.767   7.910  0.00  0.00    -0.244 NA
ATOM     19  C8A ROC d           0.764  11.042   8.442  0.00  0.00     0.068 A 
ATOM     20  C8  ROC d           1.865  10.364   7.963  0.00  0.00    -0.054 A 
ATOM     21  C4A ROC d           0.893  11.994   9.453  0.00  0.00    -0.007 A 
ATOM     22  C7  ROC d           3.142  10.639   8.506  0.00  0.00    -0.081 A 
ATOM     23  H6  ROC d           1.753   9.628   7.176  0.00  0.00     0.087 H 
ATOM     24  C6  ROC d           3.274  11.583   9.504  0.00  0.00    -0.082 A 
ATOM     25  H5  ROC d           4.015  10.109   8.140  0.00  0.00     0.083 H 
ATOM     26  C5  ROC d           2.163  12.264   9.985  0.00  0.00    -0.071 A 
ATOM     27  H4  ROC d           4.255  11.795   9.917  0.00  0.00     0.083 H 
ATOM     28  H3  ROC d           2.276  13.003  10.769  0.00  0.00     0.084 H 
ATOM     29  C4  ROC d          -0.228  12.661   9.919  0.00  0.00    -0.068 A 
ATOM     30  C3  ROC d          -1.478  12.378   9.385  0.00  0.00    -0.050 A 
ATOM     31  H2  ROC d          -0.129  13.405  10.702  0.00  0.00     0.085 H 
ATOM     32  H1  ROC d          -2.356  12.896   9.753  0.00  0.00     0.087 H 
ENDBRANCH  14  17
ENDBRANCH  11  13
BRANCH  11  33
ATOM     33  CB  ROC d          -4.140  10.063   5.217  0.00  0.00     0.023 C 
ATOM     34  H9  ROC d          -3.915   9.310   4.446  0.00  0.00     0.049 H 
ATOM     35  H10 ROC d          -3.361  10.840   5.209  0.00  0.00     0.049 H 
BRANCH  33  36
ATOM     36  CG  ROC d          -5.502  10.719   4.890  0.00  0.00     0.151 C 
ATOM     37  OD1 ROC d          -6.311   9.916   4.154  0.00  0.00    -0.178 OA
ATOM     38  ND2 ROC d          -5.561  11.971   5.428  0.00  0.00    -0.381 N 
ATOM     39  H11 ROC d          -6.381  12.529   5.305  0.00  0.00     0.158 HD
ATOM     40  H12 ROC d          -4.783  12.330   5.944  0.00  0.00     0.158 HD
ENDBRANCH  33  36
ENDBRANCH  11  33
ENDBRANCH   8  11
ENDBRANCH   5   7
BRANCH   5  41
ATOM     41  CB1 ROC d          -2.150   5.295   7.424  0.00  0.00    -0.020 C 
ATOM     42  H17 ROC d          -1.792   5.663   6.451  0.00  0.00     0.043 H 
ATOM     43  H18 ROC d          -2.135   4.195   7.428  0.00  0.00     0.043 H 
BRANCH  41  44
ATOM     44  CG1 ROC d          -1.211   5.816   8.535  0.00  0.00    -0.056 A 
ATOM     45  CD1 ROC d          -0.828   7.143   8.587  0.00  0.00    -0.077 A 
ATOM     46  CE1 ROC d           0.039   7.593   9.610  0.00  0.00    -0.082 A 
ATOM     47  H19 ROC d          -1.192   7.842   7.842  0.00  0.00     0.084 H 
ATOM     48  CZ  ROC d           0.509   6.706  10.570  0.00  0.00    -0.083 A 
ATOM     49  H21 ROC d           0.337   8.635   9.645  0.00  0.00     0.083 H 
ATOM     50  CE2 ROC d           0.130   5.378  10.520  0.00  0.00    -0.082 A 
ATOM     51  H23 ROC d           1.171   7.054  11.355  0.00  0.00     0.083 H 
ATOM     52  CD2 ROC d          -0.730   4.930   9.499  0.00  0.00    -0.077 A 
ATOM     53  H22 ROC d           0.494   4.682  11.266  0.00  0.00     0.083 H 
ATOM     54  H20 ROC d          -1.022   3.886   9.462  0.00  0.00     0.084 H 
ENDBRANCH  41  44
ENDBRANCH   5  41
ENDBRANCH   1   5
BRANCH   1  55
ATOM     55  CM  ROC d          -4.062   3.711   8.944  0.00  0.00     0.110 C 
ATOM     56  H25 ROC d          -3.677   3.454   9.942  0.00  0.00     0.080 H 
ATOM     57  H26 ROC d          -3.317   3.438   8.182  0.00  0.00     0.080 H 
BRANCH  55  58
ATOM     58  N11 ROC d          -5.287   2.916   8.700  0.00  0.00    -0.057 N 
ATOM     59  C21 ROC d          -5.841   2.278   9.928  0.00  0.00     0.167 C 
ATOM     60  C31 ROC d          -7.049   1.434   9.562  0.00  0.00    -0.027 C 
ATOM     61  H27 ROC d          -6.195   3.101  10.567  0.00  0.00     0.098 H 
ATOM     62  C3A ROC d          -6.871   0.450   8.431  0.00  0.00    -0.047 C 
ATOM     63  H28 ROC d          -7.862   2.121   9.281  0.00  0.00     0.037 H 
ATOM     64  H29 ROC d          -7.342   0.865  10.456  0.00  0.00     0.037 H 
ATOM     65  C41 ROC d          -6.072  -0.788   8.887  0.00  0.00    -0.061 C 
ATOM     66  C7A ROC d          -6.269   1.127   7.238  0.00  0.00    -0.027 C 
ATOM     67  H30 ROC d          -7.871   0.099   8.136  0.00  0.00     0.040 H 
ATOM     68  C51 ROC d          -5.829  -1.761   7.800  0.00  0.00    -0.065 C 
ATOM     69  H31 ROC d          -6.633  -1.291   9.686  0.00  0.00     0.033 H 
ATOM     70  H32 ROC d          -5.099  -0.452   9.277  0.00  0.00     0.033 H 
ATOM     71  C61 ROC d          -5.177  -1.097   6.599  0.00  0.00    -0.065 C 
ATOM     72  H33 ROC d          -6.789  -2.198   7.490  0.00  0.00     0.033 H 
ATOM     73  H34 ROC d          -5.167  -2.557   8.173  0.00  0.00     0.033 H 
ATOM     74  C71 ROC d          -5.935   0.149   6.135  0.00  0.00    -0.060 C 
ATOM     75  H35 ROC d          -5.145  -1.820   5.771  0.00  0.00     0.033 H 
ATOM     76  H36 ROC d          -4.152  -0.806   6.871  0.00  0.00     0.033 H 
ATOM     77  H37 ROC d          -6.877  -0.175   5.667  0.00  0.00     0.033 H 
ATOM     78  H38 ROC d          -5.316   0.670   5.390  0.00  0.00     0.033 H 
ATOM     79  C81 ROC d          -5.026   1.954   7.620  0.00  0.00     0.088 C 
ATOM     80  H39 ROC d          -7.023   1.825   6.843  0.00  0.00     0.043 H 
ATOM     81  H40 ROC d          -4.234   1.264   7.949  0.00  0.00     0.076 H 
ATOM     82  H41 ROC d          -4.686   2.507   6.733  0.00  0.00     0.076 H 
ATOM     83  H24 ROC d          -5.993   3.554   8.368  0.00  0.00     0.281 HD
BRANCH  59  84
ATOM     84  CC  ROC d          -4.878   1.468  10.782  0.00  0.00     0.183 C 
ATOM     85  O3  ROC d          -5.367   0.946  11.889  0.00  0.00    -0.175 OA
ATOM     86  N3  ROC d          -3.605   1.419  10.218  0.00  0.00    -0.362 N 
ATOM     87  H42 ROC d          -3.448   1.841   9.325  0.00  0.00     0.162 HD
BRANCH  86  88
ATOM     88  CD  ROC d          -2.465   0.745  10.926  0.00  0.00     0.021 C 
BRANCH  88  89
ATOM     89  C11 ROC d          -1.278   0.906  10.037  0.00  0.00    -0.054 C 
ATOM     90  H43 ROC d          -1.562   0.673   9.001  0.00  0.00     0.030 H 
ATOM     91  H44 ROC d          -0.481   0.220  10.362  0.00  0.00     0.030 H 
ATOM     92  H45 ROC d          -0.915   1.942  10.094  0.00  0.00     0.030 H 
ENDBRANCH  88  89
BRANCH  88  93
ATOM     93  C22 ROC d          -2.750  -0.715  11.137  0.00  0.00    -0.054 C 
ATOM     94  H46 ROC d          -3.824  -0.904  10.996  0.00  0.00     0.030 H 
ATOM     95  H47 ROC d          -2.459  -1.002  12.159  0.00  0.00     0.030 H 
ATOM     96  H48 ROC d          -2.175  -1.310  10.413  0.00  0.00     0.030 H 
ENDBRANCH  88  93
BRANCH  88  97
ATOM     97  C32 ROC d          -2.186   1.402  12.264  0.00  0.00    -0.054 C 
ATOM     98  H49 ROC d          -2.607   0.784  13.071  0.00  0.00     0.030 H 
ATOM     99  H50 ROC d          -2.649   2.400  12.287  0.00  0.00     0.030 H 
ATOM    100  H51 ROC d          -1.099   1.500  12.405  0.00  0.00     0.030 H 
ENDBRANCH  88  97
ENDBRANCH  86  88
ENDBRANCH  59  84
ENDBRANCH  55  58
ENDBRANCH   1  55
TORSDOF 17
ENDMDL
