MODEL 1
REMARK VINA RESULT:     -10.7      0.000      0.000
REMARK  5 active torsions:
REMARK  status: ('A' for Active; 'I' for Inactive)
REMARK    1  A    between atoms: CAW_6  and  C2_7 
REMARK    2  A    between atoms: CAU_12  and  NAQ_13 
REMARK       I    between atoms: NAQ_13  and  CAT_14 
REMARK    3  A    between atoms: CAT_14  and  CAC_16 
REMARK    4  A    between atoms: C6_21  and  NAR_22 
REMARK    5  A    between atoms: NAR_22  and  CAV_23 
ROOT
ATOM      1  C2  G97 d          23.409  -0.856 -19.550  0.00  0.00     0.162 A 
ATOM      2  N1  G97 d          23.389   0.304 -20.247  0.00  0.00    -0.210 NA
ATOM      3  N3  G97 d          22.955  -0.909 -18.282  0.00  0.00    -0.228 NA
ATOM      4  C4  G97 d          22.460   0.185 -17.687  0.00  0.00     0.075 A 
ATOM      5  CAM G97 d          21.986   0.090 -16.378  0.00  0.00    -0.028 A 
ATOM      6  CAU G97 d          21.453   1.206 -15.737  0.00  0.00     0.037 A 
ATOM      7  CAK G97 d          21.408   2.430 -16.428  0.00  0.00    -0.056 A 
ATOM      8  CAL G97 d          21.889   2.525 -17.742  0.00  0.00    -0.065 A 
ATOM      9  C5  G97 d          22.419   1.398 -18.383  0.00  0.00     0.039 A 
ATOM     10  C6  G97 d          22.902   1.439 -19.701  0.00  0.00     0.144 A 
ATOM     11  H6  G97 d          22.032  -0.860 -15.857  0.00  0.00     0.090 H 
ATOM     12  H11 G97 d          20.998   3.308 -15.940  0.00  0.00     0.086 H 
ATOM     13  H12 G97 d          21.849   3.474 -18.263  0.00  0.00     0.085 H 
ENDROOT
BRANCH   1  14
ATOM     14  CAW G97 d          23.931  -2.026 -20.093  0.00  0.00     0.012 A 
ATOM     15  CAH G97 d          23.360  -3.266 -19.773  0.00  0.00    -0.069 A 
ATOM     16  CAE G97 d          23.847  -4.447 -20.331  0.00  0.00    -0.082 A 
ATOM     17  H1  G97 d          22.527  -3.307 -19.081  0.00  0.00     0.085 H 
ATOM     18  CAD G97 d          24.916  -4.371 -21.216  0.00  0.00    -0.083 A 
ATOM     19  H2  G97 d          23.401  -5.404 -20.081  0.00  0.00     0.083 H 
ATOM     20  CAF G97 d          25.486  -3.143 -21.557  0.00  0.00    -0.082 A 
ATOM     21  H3  G97 d          25.315  -5.281 -21.648  0.00  0.00     0.083 H 
ATOM     22  CAI G97 d          24.996  -1.960 -20.994  0.00  0.00    -0.069 A 
ATOM     23  H4  G97 d          26.309  -3.106 -22.260  0.00  0.00     0.083 H 
ATOM     24  H5  G97 d          25.437  -1.004 -21.254  0.00  0.00     0.085 H 
ENDBRANCH   1  14
BRANCH  10  25
ATOM     25  NAR G97 d          22.889   2.580 -20.421  0.00  0.00    -0.325 N 
ATOM     26  H13 G97 d          22.878   3.473 -19.908  0.00  0.00     0.169 HD
BRANCH  25  27
ATOM     27  CAV G97 d          22.889   2.627 -21.777  0.00  0.00     0.124 A 
ATOM     28  CAJ G97 d          23.350   3.645 -22.499  0.00  0.00    -0.021 A 
ATOM     29  CAG G97 d          23.157   3.289 -23.772  0.00  0.00     0.025 A 
ATOM     30  H14 G97 d          23.789   4.571 -22.131  0.00  0.00     0.091 H 
ATOM     31  NAS G97 d          22.582   2.076 -23.781  0.00  0.00    -0.186 NA
ATOM     32  H15 G97 d          23.421   3.880 -24.648  0.00  0.00     0.117 H 
ATOM     33  NAN G97 d          22.425   1.686 -22.614  0.00  0.00    -0.263 N 
ATOM     34  H16 G97 d          22.007   0.788 -22.333  0.00  0.00     0.190 HD
ENDBRANCH  25  27
ENDBRANCH  10  25
BRANCH   6  35
ATOM     35  NAQ G97 d          21.029   1.043 -14.467  0.00  0.00    -0.324 N 
ATOM     36  CAT G97 d          19.924   1.547 -13.902  0.00  0.00     0.244 C 
ATOM     37  OAB G97 d          19.097   2.251 -14.491  0.00  0.00    -0.268 OA
ATOM     38  H7  G97 d          21.606   0.478 -13.879  0.00  0.00     0.169 HD
BRANCH  36  39
ATOM     39  CAC G97 d          19.701   1.238 -12.558  0.00  0.00    -0.026 C 
ATOM     40  CAA G97 d          20.613   0.475 -11.829  0.00  0.00    -0.116 C 
ATOM     41  H9  G97 d          20.418   0.247 -10.783  0.00  0.00     0.067 H 
ATOM     42  H10 G97 d          21.520   0.107 -12.308  0.00  0.00     0.067 H 
ATOM     43  H8  G97 d          18.797   1.600 -12.069  0.00  0.00     0.090 H 
ENDBRANCH  36  39
ENDBRANCH   6  35
TORSDOF 5
ENDMDL
MODEL 2
REMARK VINA RESULT:      -9.7      1.407      4.725
REMARK  5 active torsions:
REMARK  status: ('A' for Active; 'I' for Inactive)
REMARK    1  A    between atoms: CAW_6  and  C2_7 
REMARK    2  A    between atoms: CAU_12  and  NAQ_13 
REMARK       I    between atoms: NAQ_13  and  CAT_14 
REMARK    3  A    between atoms: CAT_14  and  CAC_16 
REMARK    4  A    between atoms: C6_21  and  NAR_22 
REMARK    5  A    between atoms: NAR_22  and  CAV_23 
ROOT
ATOM      1  C2  G97 d          22.766   2.016 -20.281  0.00  0.00     0.162 A 
ATOM      2  N1  G97 d          23.155   0.720 -20.297  0.00  0.00    -0.210 NA
ATOM      3  N3  G97 d          22.224   2.561 -19.174  0.00  0.00    -0.228 NA
ATOM      4  C4  G97 d          22.070   1.834 -18.058  0.00  0.00     0.075 A 
ATOM      5  CAM G97 d          21.519   2.436 -16.927  0.00  0.00    -0.028 A 
ATOM      6  CAU G97 d          21.359   1.711 -15.748  0.00  0.00     0.037 A 
ATOM      7  CAK G97 d          21.756   0.361 -15.721  0.00  0.00    -0.056 A 
ATOM      8  CAL G97 d          22.307  -0.242 -16.860  0.00  0.00    -0.065 A 
ATOM      9  C5  G97 d          22.469   0.493 -18.041  0.00  0.00     0.039 A 
ATOM     10  C6  G97 d          23.026  -0.062 -19.205  0.00  0.00     0.144 A 
ATOM     11  H6  G97 d          21.213   3.475 -16.965  0.00  0.00     0.090 H 
ATOM     12  H11 G97 d          21.636  -0.216 -14.811  0.00  0.00     0.086 H 
ATOM     13  H12 G97 d          22.608  -1.283 -16.827  0.00  0.00     0.085 H 
ENDROOT
BRANCH   1  14
ATOM     14  CAW G97 d          22.871   2.825 -21.408  0.00  0.00     0.012 A 
ATOM     15  CAH G97 d          23.114   2.253 -22.665  0.00  0.00    -0.069 A 
ATOM     16  CAE G97 d          23.189   3.043 -23.812  0.00  0.00    -0.082 A 
ATOM     17  H1  G97 d          23.244   1.181 -22.746  0.00  0.00     0.085 H 
ATOM     18  CAD G97 d          23.020   4.416 -23.683  0.00  0.00    -0.083 A 
ATOM     19  H2  G97 d          23.377   2.596 -24.781  0.00  0.00     0.083 H 
ATOM     20  CAF G97 d          22.762   5.000 -22.441  0.00  0.00    -0.082 A 
ATOM     21  H3  G97 d          23.089   5.045 -24.563  0.00  0.00     0.083 H 
ATOM     22  CAI G97 d          22.688   4.205 -21.292  0.00  0.00    -0.069 A 
ATOM     23  H4  G97 d          22.618   6.071 -22.367  0.00  0.00     0.083 H 
ATOM     24  H5  G97 d          22.490   4.655 -20.325  0.00  0.00     0.085 H 
ENDBRANCH   1  14
BRANCH  10  25
ATOM     25  NAR G97 d          23.428  -1.350 -19.248  0.00  0.00    -0.325 N 
ATOM     26  H13 G97 d          23.041  -1.999 -18.548  0.00  0.00     0.169 HD
BRANCH  25  27
ATOM     27  CAV G97 d          24.309  -1.844 -20.153  0.00  0.00     0.124 A 
ATOM     28  CAJ G97 d          24.374  -3.119 -20.528  0.00  0.00    -0.021 A 
ATOM     29  CAG G97 d          25.370  -3.175 -21.416  0.00  0.00     0.025 A 
ATOM     30  H14 G97 d          23.749  -3.941 -20.184  0.00  0.00     0.091 H 
ATOM     31  NAS G97 d          25.881  -1.939 -21.545  0.00  0.00    -0.186 NA
ATOM     32  H15 G97 d          25.708  -4.066 -21.944  0.00  0.00     0.117 H 
ATOM     33  NAN G97 d          25.260  -1.159 -20.807  0.00  0.00    -0.263 N 
ATOM     34  H16 G97 d          25.444  -0.150 -20.711  0.00  0.00     0.190 HD
ENDBRANCH  25  27
ENDBRANCH  10  25
BRANCH   6  35
ATOM     35  NAQ G97 d          20.804   2.353 -14.700  0.00  0.00    -0.324 N 
ATOM     36  CAT G97 d          19.565   2.851 -14.608  0.00  0.00     0.244 C 
ATOM     37  OAB G97 d          18.714   2.777 -15.502  0.00  0.00    -0.268 OA
ATOM     38  H7  G97 d          21.387   2.471 -13.897  0.00  0.00     0.169 HD
BRANCH  36  39
ATOM     39  CAC G97 d          19.221   3.482 -13.410  0.00  0.00    -0.026 C 
ATOM     40  CAA G97 d          19.567   2.933 -12.177  0.00  0.00    -0.116 C 
ATOM     41  H9  G97 d          19.289   3.443 -11.256  0.00  0.00     0.067 H 
ATOM     42  H10 G97 d          20.115   1.992 -12.134  0.00  0.00     0.067 H 
ATOM     43  H8  G97 d          18.673   4.423 -13.441  0.00  0.00     0.090 H 
ENDBRANCH  36  39
ENDBRANCH   6  35
TORSDOF 5
ENDMDL
MODEL 3
REMARK VINA RESULT:      -9.3      2.301      6.483
REMARK  5 active torsions:
REMARK  status: ('A' for Active; 'I' for Inactive)
REMARK    1  A    between atoms: CAW_6  and  C2_7 
REMARK    2  A    between atoms: CAU_12  and  NAQ_13 
REMARK       I    between atoms: NAQ_13  and  CAT_14 
REMARK    3  A    between atoms: CAT_14  and  CAC_16 
REMARK    4  A    between atoms: C6_21  and  NAR_22 
REMARK    5  A    between atoms: NAR_22  and  CAV_23 
ROOT
ATOM      1  C2  G97 d          21.719   2.000 -17.256  0.00  0.00     0.162 A 
ATOM      2  N1  G97 d          21.817   2.978 -18.187  0.00  0.00    -0.210 NA
ATOM      3  N3  G97 d          22.151   0.751 -17.519  0.00  0.00    -0.228 NA
ATOM      4  C4  G97 d          22.702   0.452 -18.703  0.00  0.00     0.075 A 
ATOM      5  CAM G97 d          23.152  -0.848 -18.934  0.00  0.00    -0.028 A 
ATOM      6  CAU G97 d          23.741  -1.186 -20.150  0.00  0.00     0.037 A 
ATOM      7  CAK G97 d          23.868  -0.197 -21.143  0.00  0.00    -0.056 A 
ATOM      8  CAL G97 d          23.412   1.108 -20.910  0.00  0.00    -0.065 A 
ATOM      9  C5  G97 d          22.824   1.443 -19.683  0.00  0.00     0.039 A 
ATOM     10  C6  G97 d          22.362   2.739 -19.398  0.00  0.00     0.144 A 
ATOM     11  H6  G97 d          23.043  -1.601 -18.161  0.00  0.00     0.090 H 
ATOM     12  H11 G97 d          24.322  -0.446 -22.095  0.00  0.00     0.086 H 
ATOM     13  H12 G97 d          23.514   1.861 -21.683  0.00  0.00     0.085 H 
ENDROOT
BRANCH   1  14
ATOM     14  CAW G97 d          21.136   2.228 -16.013  0.00  0.00     0.012 A 
ATOM     15  CAH G97 d          20.600   3.488 -15.708  0.00  0.00    -0.069 A 
ATOM     16  CAE G97 d          19.983   3.728 -14.481  0.00  0.00    -0.082 A 
ATOM     17  H1  G97 d          20.667   4.286 -16.437  0.00  0.00     0.085 H 
ATOM     18  CAD G97 d          19.908   2.689 -13.561  0.00  0.00    -0.083 A 
ATOM     19  H2  G97 d          19.569   4.704 -14.250  0.00  0.00     0.083 H 
ATOM     20  CAF G97 d          20.423   1.425 -13.856  0.00  0.00    -0.082 A 
ATOM     21  H3  G97 d          19.443   2.863 -12.598  0.00  0.00     0.083 H 
ATOM     22  CAI G97 d          21.043   1.187 -15.087  0.00  0.00    -0.069 A 
ATOM     23  H4  G97 d          20.341   0.625 -13.129  0.00  0.00     0.083 H 
ATOM     24  H5  G97 d          21.446   0.208 -15.319  0.00  0.00     0.085 H 
ENDBRANCH   1  14
BRANCH  10  25
ATOM     25  NAR G97 d          22.453   3.735 -20.304  0.00  0.00    -0.325 N 
ATOM     26  H13 G97 d          23.149   4.475 -20.138  0.00  0.00     0.169 HD
BRANCH  25  27
ATOM     27  CAV G97 d          21.686   3.822 -21.420  0.00  0.00     0.124 A 
ATOM     28  CAJ G97 d          22.134   4.185 -22.619  0.00  0.00    -0.021 A 
ATOM     29  CAG G97 d          21.066   4.146 -23.420  0.00  0.00     0.025 A 
ATOM     30  H14 G97 d          23.154   4.457 -22.889  0.00  0.00     0.091 H 
ATOM     31  NAS G97 d          20.008   3.770 -22.683  0.00  0.00    -0.186 NA
ATOM     32  H15 G97 d          21.056   4.379 -24.484  0.00  0.00     0.117 H 
ATOM     33  NAN G97 d          20.370   3.579 -21.512  0.00  0.00    -0.263 N 
ATOM     34  H16 G97 d          19.760   3.282 -20.737  0.00  0.00     0.190 HD
ENDBRANCH  25  27
ENDBRANCH  10  25
BRANCH   6  35
ATOM     35  NAQ G97 d          24.138  -2.465 -20.308  0.00  0.00    -0.324 N 
ATOM     36  CAT G97 d          23.593  -3.564 -19.770  0.00  0.00     0.244 C 
ATOM     37  OAB G97 d          22.601  -3.562 -19.032  0.00  0.00    -0.268 OA
ATOM     38  H7  G97 d          24.932  -2.611 -20.897  0.00  0.00     0.169 HD
BRANCH  36  39
ATOM     39  CAC G97 d          24.191  -4.787 -20.081  0.00  0.00    -0.026 C 
ATOM     40  CAA G97 d          24.733  -5.028 -21.343  0.00  0.00    -0.116 C 
ATOM     41  H9  G97 d          25.195  -5.989 -21.562  0.00  0.00     0.067 H 
ATOM     42  H10 G97 d          24.696  -4.253 -22.108  0.00  0.00     0.067 H 
ATOM     43  H8  G97 d          24.234  -5.569 -19.323  0.00  0.00     0.090 H 
ENDBRANCH  36  39
ENDBRANCH   6  35
TORSDOF 5
ENDMDL
MODEL 4
REMARK VINA RESULT:      -8.3      2.796      8.035
REMARK  5 active torsions:
REMARK  status: ('A' for Active; 'I' for Inactive)
REMARK    1  A    between atoms: CAW_6  and  C2_7 
REMARK    2  A    between atoms: CAU_12  and  NAQ_13 
REMARK       I    between atoms: NAQ_13  and  CAT_14 
REMARK    3  A    between atoms: CAT_14  and  CAC_16 
REMARK    4  A    between atoms: C6_21  and  NAR_22 
REMARK    5  A    between atoms: NAR_22  and  CAV_23 
ROOT
ATOM      1  C2  G97 d          21.254  -0.732 -13.912  0.00  0.00     0.162 A 
ATOM      2  N1  G97 d          20.702   0.470 -13.626  0.00  0.00    -0.210 NA
ATOM      3  N3  G97 d          21.842  -0.957 -15.104  0.00  0.00    -0.228 NA
ATOM      4  C4  G97 d          21.906   0.011 -16.028  0.00  0.00     0.075 A 
ATOM      5  CAM G97 d          22.535  -0.252 -17.245  0.00  0.00    -0.028 A 
ATOM      6  CAU G97 d          22.629   0.738 -18.221  0.00  0.00     0.037 A 
ATOM      7  CAK G97 d          22.074   2.004 -17.961  0.00  0.00    -0.056 A 
ATOM      8  CAL G97 d          21.439   2.265 -16.738  0.00  0.00    -0.065 A 
ATOM      9  C5  G97 d          21.351   1.268 -15.760  0.00  0.00     0.039 A 
ATOM     10  C6  G97 d          20.735   1.484 -14.515  0.00  0.00     0.144 A 
ATOM     11  H6  G97 d          22.953  -1.235 -17.432  0.00  0.00     0.090 H 
ATOM     12  H11 G97 d          22.138   2.783 -18.712  0.00  0.00     0.086 H 
ATOM     13  H12 G97 d          21.014   3.245 -16.550  0.00  0.00     0.085 H 
ENDROOT
BRANCH   1  14
ATOM     14  CAW G97 d          21.204  -1.793 -13.012  0.00  0.00     0.012 A 
ATOM     15  CAH G97 d          20.322  -1.751 -11.924  0.00  0.00    -0.069 A 
ATOM     16  CAE G97 d          20.233  -2.817 -11.029  0.00  0.00    -0.082 A 
ATOM     17  H1  G97 d          19.699  -0.877 -11.775  0.00  0.00     0.085 H 
ATOM     18  CAD G97 d          21.041  -3.928 -11.239  0.00  0.00    -0.083 A 
ATOM     19  H2  G97 d          19.548  -2.781 -10.189  0.00  0.00     0.083 H 
ATOM     20  CAF G97 d          21.913  -3.992 -12.327  0.00  0.00    -0.082 A 
ATOM     21  H3  G97 d          20.993  -4.759 -10.545  0.00  0.00     0.083 H 
ATOM     22  CAI G97 d          22.002  -2.921 -13.222  0.00  0.00    -0.069 A 
ATOM     23  H4  G97 d          22.524  -4.874 -12.480  0.00  0.00     0.083 H 
ATOM     24  H5  G97 d          22.680  -2.965 -14.067  0.00  0.00     0.085 H 
ENDBRANCH   1  14
BRANCH  10  25
ATOM     25  NAR G97 d          20.183   2.674 -14.201  0.00  0.00    -0.325 N 
ATOM     26  H13 G97 d          20.142   3.396 -14.935  0.00  0.00     0.169 HD
BRANCH  25  27
ATOM     27  CAV G97 d          19.678   2.981 -12.980  0.00  0.00     0.124 A 
ATOM     28  CAJ G97 d          20.044   4.033 -12.252  0.00  0.00    -0.021 A 
ATOM     29  CAG G97 d          19.318   3.958 -11.134  0.00  0.00     0.025 A 
ATOM     30  H14 G97 d          20.780   4.793 -12.513  0.00  0.00     0.091 H 
ATOM     31  NAS G97 d          18.543   2.864 -11.215  0.00  0.00    -0.186 NA
ATOM     32  H15 G97 d          19.348   4.661 -10.302  0.00  0.00     0.117 H 
ATOM     33  NAN G97 d          18.753   2.291 -12.296  0.00  0.00    -0.263 N 
ATOM     34  H16 G97 d          18.291   1.428 -12.615  0.00  0.00     0.190 HD
ENDBRANCH  25  27
ENDBRANCH  10  25
BRANCH   6  35
ATOM     35  NAQ G97 d          23.237   0.406 -19.378  0.00  0.00    -0.324 N 
ATOM     36  CAT G97 d          23.531  -0.822 -19.826  0.00  0.00     0.244 C 
ATOM     37  OAB G97 d          23.264  -1.868 -19.224  0.00  0.00    -0.268 OA
ATOM     38  H7  G97 d          23.498   1.166 -19.972  0.00  0.00     0.169 HD
BRANCH  36  39
ATOM     39  CAC G97 d          24.172  -0.909 -21.064  0.00  0.00    -0.026 C 
ATOM     40  CAA G97 d          25.390  -1.572 -21.203  0.00  0.00    -0.116 C 
ATOM     41  H9  G97 d          25.871  -1.629 -22.179  0.00  0.00     0.067 H 
ATOM     42  H10 G97 d          25.860  -2.035 -20.336  0.00  0.00     0.067 H 
ATOM     43  H8  G97 d          23.710  -0.450 -21.938  0.00  0.00     0.090 H 
ENDBRANCH  36  39
ENDBRANCH   6  35
TORSDOF 5
ENDMDL
