MODEL 1
REMARK VINA RESULT:      -5.9      0.000      0.000
REMARK  17 active torsions:
REMARK  status: ('A' for Active; 'I' for Inactive)
REMARK    1  A    between atoms: CAJ_10  and  OAA_1 
REMARK    2  A    between atoms: CAK_11  and  OAB_2 
REMARK    3  A    between atoms: CAN_14  and  OAC_3 
REMARK    4  A    between atoms: CAO_15  and  OAD_4 
REMARK    5  A    between atoms: CAP_16  and  OAE_5 
REMARK    6  A    between atoms: CAQ_17  and  OAF_6 
REMARK    7  A    between atoms: CAR_18  and  OAG_7 
REMARK    8  A    between atoms: CAS_19  and  OAH_8 
REMARK    9  A    between atoms: CAT_20  and  OAI_9 
REMARK   10  A    between atoms: CAN_14  and  CAJ_10 
REMARK   11  A    between atoms: CAU_21  and  CAK_11 
REMARK   12  A    between atoms: CAL_12  and  CAO_15 
REMARK   13  A    between atoms: SAV_22  and  CAL_12 
REMARK   14  A    between atoms: CAQ_17  and  CAN_14 
REMARK   15  A    between atoms: CAO_15  and  CAR_18 
REMARK   16  A    between atoms: CAS_19  and  CAQ_17 
REMARK   17  A    between atoms: CAR_18  and  CAS_19 
ROOT
ATOM      1  CAO DSK d          -2.736 -19.720 -21.512  0.00  0.00     0.070 C 
ATOM      2  H19 DSK d          -3.808 -19.497 -21.406  0.00  0.00     0.088 H 
ENDROOT
BRANCH   1   3
ATOM      3  OAD DSK d          -2.338 -19.366 -22.829  0.00  0.00    -0.392 OA
ATOM      4  H4  DSK d          -1.841 -20.079 -23.211  0.00  0.00     0.210 HD
ENDBRANCH   1   3
BRANCH   1   5
ATOM      5  CAL DSK d          -1.975 -18.871 -20.446  0.00  0.00    -0.005 C 
ATOM      6  H14 DSK d          -0.894 -19.034 -20.566  0.00  0.00     0.051 H 
ATOM      7  H15 DSK d          -2.285 -19.196 -19.442  0.00  0.00     0.051 H 
BRANCH   5   8
ATOM      8  SAV DSK d          -2.327 -17.105 -20.628  0.00  0.00    -0.206 SA
ATOM      9  CAM DSK d          -1.006 -16.250 -21.582  0.00  0.00    -0.005 C 
ATOM     10  CAP DSK d           0.038 -15.994 -20.475  0.00  0.00     0.069 C 
ATOM     11  H16 DSK d          -0.602 -16.893 -22.377  0.00  0.00     0.051 H 
ATOM     12  H17 DSK d          -1.370 -15.310 -22.021  0.00  0.00     0.051 H 
ATOM     13  CAT DSK d          -0.800 -15.363 -19.329  0.00  0.00     0.074 C 
ATOM     14  H20 DSK d           0.505 -16.938 -20.156  0.00  0.00     0.088 H 
ATOM     15  CAU DSK d          -1.878 -16.429 -18.983  0.00  0.00     0.030 C 
ATOM     16  H24 DSK d          -1.262 -14.411 -19.631  0.00  0.00     0.088 H 
ATOM     17  H25 DSK d          -1.404 -17.228 -18.393  0.00  0.00     0.062 H 
BRANCH  10  18
ATOM     18  OAE DSK d           1.074 -15.053 -20.889  0.00  0.00    -0.392 OA
ATOM     19  H5  DSK d           1.738 -15.513 -21.388  0.00  0.00     0.210 HD
ENDBRANCH  10  18
BRANCH  13  20
ATOM     20  OAI DSK d           0.090 -15.172 -18.222  0.00  0.00    -0.392 OA
ATOM     21  H9  DSK d           0.876 -14.730 -18.521  0.00  0.00     0.210 HD
ENDBRANCH  13  20
BRANCH  15  22
ATOM     22  CAK DSK d          -3.071 -15.913 -18.132  0.00  0.00     0.030 C 
ATOM     23  H12 DSK d          -3.807 -16.726 -18.037  0.00  0.00     0.075 H 
ATOM     24  H13 DSK d          -2.694 -15.642 -17.134  0.00  0.00     0.075 H 
BRANCH  22  25
ATOM     25  OAB DSK d          -3.730 -14.772 -18.690  0.00  0.00    -0.400 OA
ATOM     26  H2  DSK d          -3.093 -14.229 -19.141  0.00  0.00     0.209 HD
ENDBRANCH  22  25
ENDBRANCH  15  22
ENDBRANCH   5   8
ENDBRANCH   1   5
BRANCH   1  27
ATOM     27  CAR DSK d          -2.551 -21.223 -21.323  0.00  0.00     0.088 C 
ATOM     28  H22 DSK d          -1.536 -21.453 -20.963  0.00  0.00     0.091 H 
BRANCH  27  29
ATOM     29  OAG DSK d          -3.559 -21.625 -20.379  0.00  0.00    -0.390 OA
ATOM     30  H7  DSK d          -4.316 -21.057 -20.466  0.00  0.00     0.210 HD
ENDBRANCH  27  29
BRANCH  27  31
ATOM     31  CAS DSK d          -2.858 -21.984 -22.634  0.00  0.00     0.090 C 
ATOM     32  H23 DSK d          -2.263 -21.531 -23.441  0.00  0.00     0.091 H 
BRANCH  31  33
ATOM     33  OAH DSK d          -4.242 -21.864 -22.960  0.00  0.00    -0.390 OA
ATOM     34  H8  DSK d          -4.744 -22.471 -22.429  0.00  0.00     0.210 HD
ENDBRANCH  31  33
BRANCH  31  35
ATOM     35  CAQ DSK d          -2.499 -23.465 -22.542  0.00  0.00     0.089 C 
ATOM     36  H21 DSK d          -3.412 -24.062 -22.408  0.00  0.00     0.091 H 
BRANCH  35  37
ATOM     37  OAF DSK d          -1.624 -23.638 -21.421  0.00  0.00    -0.390 OA
ATOM     38  H6  DSK d          -0.725 -23.678 -21.725  0.00  0.00     0.210 HD
ENDBRANCH  35  37
BRANCH  35  39
ATOM     39  CAN DSK d          -1.756 -23.931 -23.813  0.00  0.00     0.083 C 
ATOM     40  H18 DSK d          -1.484 -24.991 -23.711  0.00  0.00     0.090 H 
BRANCH  39  41
ATOM     41  OAC DSK d          -2.623 -23.768 -24.945  0.00  0.00    -0.391 OA
ATOM     42  H3  DSK d          -3.020 -22.906 -24.917  0.00  0.00     0.210 HD
ENDBRANCH  39  41
BRANCH  39  43
ATOM     43  CAJ DSK d          -0.481 -23.098 -24.002  0.00  0.00     0.043 C 
ATOM     44  H10 DSK d          -0.266 -22.986 -25.075  0.00  0.00     0.078 H 
ATOM     45  H11 DSK d          -0.614 -22.105 -23.548  0.00  0.00     0.078 H 
BRANCH  43  46
ATOM     46  OAA DSK d           0.589 -23.777 -23.366  0.00  0.00    -0.398 OA
ATOM     47  H1  DSK d           0.367 -24.696 -23.271  0.00  0.00     0.209 HD
ENDBRANCH  43  46
ENDBRANCH  39  43
ENDBRANCH  35  39
ENDBRANCH  31  35
ENDBRANCH  27  31
ENDBRANCH   1  27
TORSDOF 17
ENDMDL
MODEL 2
REMARK VINA RESULT:      -5.8      2.199      7.284
REMARK  17 active torsions:
REMARK  status: ('A' for Active; 'I' for Inactive)
REMARK    1  A    between atoms: CAJ_10  and  OAA_1 
REMARK    2  A    between atoms: CAK_11  and  OAB_2 
REMARK    3  A    between atoms: CAN_14  and  OAC_3 
REMARK    4  A    between atoms: CAO_15  and  OAD_4 
REMARK    5  A    between atoms: CAP_16  and  OAE_5 
REMARK    6  A    between atoms: CAQ_17  and  OAF_6 
REMARK    7  A    between atoms: CAR_18  and  OAG_7 
REMARK    8  A    between atoms: CAS_19  and  OAH_8 
REMARK    9  A    between atoms: CAT_20  and  OAI_9 
REMARK   10  A    between atoms: CAN_14  and  CAJ_10 
REMARK   11  A    between atoms: CAU_21  and  CAK_11 
REMARK   12  A    between atoms: CAL_12  and  CAO_15 
REMARK   13  A    between atoms: SAV_22  and  CAL_12 
REMARK   14  A    between atoms: CAQ_17  and  CAN_14 
REMARK   15  A    between atoms: CAO_15  and  CAR_18 
REMARK   16  A    between atoms: CAS_19  and  CAQ_17 
REMARK   17  A    between atoms: CAR_18  and  CAS_19 
ROOT
ATOM      1  CAO DSK d          -2.557 -20.324 -22.058  0.00  0.00     0.070 C 
ATOM      2  H19 DSK d          -1.592 -20.837 -22.180  0.00  0.00     0.088 H 
ENDROOT
BRANCH   1   3
ATOM      3  OAD DSK d          -2.802 -19.555 -23.227  0.00  0.00    -0.392 OA
ATOM      4  H4  DSK d          -2.041 -19.591 -23.794  0.00  0.00     0.210 HD
ENDBRANCH   1   3
BRANCH   1   5
ATOM      5  CAL DSK d          -3.649 -21.423 -21.868  0.00  0.00    -0.005 C 
ATOM      6  H14 DSK d          -4.393 -21.331 -22.672  0.00  0.00     0.051 H 
ATOM      7  H15 DSK d          -4.141 -21.274 -20.895  0.00  0.00     0.051 H 
BRANCH   5   8
ATOM      8  SAV DSK d          -2.933 -23.086 -21.916  0.00  0.00    -0.206 SA
ATOM      9  CAM DSK d          -2.491 -23.676 -20.230  0.00  0.00    -0.005 C 
ATOM     10  CAP DSK d          -1.109 -23.017 -20.041  0.00  0.00     0.069 C 
ATOM     11  H16 DSK d          -3.212 -23.326 -19.477  0.00  0.00     0.051 H 
ATOM     12  H17 DSK d          -2.424 -24.773 -20.191  0.00  0.00     0.051 H 
ATOM     13  CAT DSK d          -0.355 -23.378 -21.350  0.00  0.00     0.074 C 
ATOM     14  H20 DSK d          -1.211 -21.927 -19.925  0.00  0.00     0.088 H 
ATOM     15  CAU DSK d          -1.221 -22.775 -22.494  0.00  0.00     0.030 C 
ATOM     16  H24 DSK d          -0.234 -24.465 -21.471  0.00  0.00     0.088 H 
ATOM     17  H25 DSK d          -1.052 -21.688 -22.524  0.00  0.00     0.062 H 
BRANCH  10  18
ATOM     18  OAE DSK d          -0.379 -23.561 -18.900  0.00  0.00    -0.392 OA
ATOM     19  H5  DSK d          -0.976 -24.056 -18.350  0.00  0.00     0.210 HD
ENDBRANCH  10  18
BRANCH  13  20
ATOM     20  OAI DSK d           0.919 -22.724 -21.289  0.00  0.00    -0.392 OA
ATOM     21  H9  DSK d           1.587 -23.301 -21.644  0.00  0.00     0.210 HD
ENDBRANCH  13  20
BRANCH  15  22
ATOM     22  CAK DSK d          -0.898 -23.303 -23.919  0.00  0.00     0.030 C 
ATOM     23  H12 DSK d          -1.289 -24.328 -24.005  0.00  0.00     0.075 H 
ATOM     24  H13 DSK d          -1.402 -22.655 -24.651  0.00  0.00     0.075 H 
BRANCH  22  25
ATOM     25  OAB DSK d           0.500 -23.327 -24.225  0.00  0.00    -0.400 OA
ATOM     26  H2  DSK d           0.655 -22.843 -25.027  0.00  0.00     0.209 HD
ENDBRANCH  22  25
ENDBRANCH  15  22
ENDBRANCH   5   8
ENDBRANCH   1   5
BRANCH   1  27
ATOM     27  CAR DSK d          -2.440 -19.385 -20.860  0.00  0.00     0.088 C 
ATOM     28  H22 DSK d          -3.277 -19.531 -20.161  0.00  0.00     0.091 H 
BRANCH  27  29
ATOM     29  OAG DSK d          -1.172 -19.687 -20.251  0.00  0.00    -0.390 OA
ATOM     30  H7  DSK d          -1.304 -19.887 -19.332  0.00  0.00     0.210 HD
ENDBRANCH  27  29
BRANCH  27  31
ATOM     31  CAS DSK d          -2.357 -17.912 -21.323  0.00  0.00     0.090 C 
ATOM     32  H23 DSK d          -3.235 -17.700 -21.951  0.00  0.00     0.091 H 
BRANCH  31  33
ATOM     33  OAH DSK d          -1.177 -17.704 -22.097  0.00  0.00    -0.390 OA
ATOM     34  H8  DSK d          -0.414 -17.785 -21.537  0.00  0.00     0.210 HD
ENDBRANCH  31  33
BRANCH  31  35
ATOM     35  CAQ DSK d          -2.356 -16.935 -20.149  0.00  0.00     0.089 C 
ATOM     36  H21 DSK d          -2.619 -17.467 -19.223  0.00  0.00     0.091 H 
BRANCH  35  37
ATOM     37  OAF DSK d          -3.319 -15.912 -20.424  0.00  0.00    -0.390 OA
ATOM     38  H6  DSK d          -3.980 -16.252 -21.016  0.00  0.00     0.210 HD
ENDBRANCH  35  37
BRANCH  35  39
ATOM     39  CAN DSK d          -0.972 -16.269 -19.989  0.00  0.00     0.083 C 
ATOM     40  H18 DSK d          -0.183 -17.013 -20.174  0.00  0.00     0.090 H 
BRANCH  39  41
ATOM     41  OAC DSK d          -0.855 -15.204 -20.944  0.00  0.00    -0.391 OA
ATOM     42  H3  DSK d           0.035 -15.174 -21.277  0.00  0.00     0.210 HD
ENDBRANCH  39  41
BRANCH  39  43
ATOM     43  CAJ DSK d          -0.823 -15.718 -18.565  0.00  0.00     0.043 C 
ATOM     44  H10 DSK d          -0.261 -16.433 -17.947  0.00  0.00     0.078 H 
ATOM     45  H11 DSK d          -0.290 -14.756 -18.592  0.00  0.00     0.078 H 
BRANCH  43  46
ATOM     46  OAA DSK d          -2.121 -15.533 -18.026  0.00  0.00    -0.398 OA
ATOM     47  H1  DSK d          -2.282 -16.190 -17.359  0.00  0.00     0.209 HD
ENDBRANCH  43  46
ENDBRANCH  39  43
ENDBRANCH  35  39
ENDBRANCH  31  35
ENDBRANCH  27  31
ENDBRANCH   1  27
TORSDOF 17
ENDMDL
MODEL 3
REMARK VINA RESULT:      -5.5      1.966      7.752
REMARK  17 active torsions:
REMARK  status: ('A' for Active; 'I' for Inactive)
REMARK    1  A    between atoms: CAJ_10  and  OAA_1 
REMARK    2  A    between atoms: CAK_11  and  OAB_2 
REMARK    3  A    between atoms: CAN_14  and  OAC_3 
REMARK    4  A    between atoms: CAO_15  and  OAD_4 
REMARK    5  A    between atoms: CAP_16  and  OAE_5 
REMARK    6  A    between atoms: CAQ_17  and  OAF_6 
REMARK    7  A    between atoms: CAR_18  and  OAG_7 
REMARK    8  A    between atoms: CAS_19  and  OAH_8 
REMARK    9  A    between atoms: CAT_20  and  OAI_9 
REMARK   10  A    between atoms: CAN_14  and  CAJ_10 
REMARK   11  A    between atoms: CAU_21  and  CAK_11 
REMARK   12  A    between atoms: CAL_12  and  CAO_15 
REMARK   13  A    between atoms: SAV_22  and  CAL_12 
REMARK   14  A    between atoms: CAQ_17  and  CAN_14 
REMARK   15  A    between atoms: CAO_15  and  CAR_18 
REMARK   16  A    between atoms: CAS_19  and  CAQ_17 
REMARK   17  A    between atoms: CAR_18  and  CAS_19 
ROOT
ATOM      1  CAO DSK d          -2.353 -19.691 -20.360  0.00  0.00     0.070 C 
ATOM      2  H19 DSK d          -3.318 -19.395 -19.922  0.00  0.00     0.088 H 
ENDROOT
BRANCH   1   3
ATOM      3  OAD DSK d          -1.682 -20.528 -19.429  0.00  0.00    -0.392 OA
ATOM      4  H4  DSK d          -1.275 -19.993 -18.758  0.00  0.00     0.210 HD
ENDBRANCH   1   3
BRANCH   1   5
ATOM      5  CAL DSK d          -2.656 -20.454 -21.687  0.00  0.00    -0.005 C 
ATOM      6  H14 DSK d          -1.926 -20.148 -22.450  0.00  0.00     0.051 H 
ATOM      7  H15 DSK d          -3.670 -20.194 -22.024  0.00  0.00     0.051 H 
BRANCH   5   8
ATOM      8  SAV DSK d          -2.554 -22.248 -21.460  0.00  0.00    -0.206 SA
ATOM      9  CAM DSK d          -0.899 -22.892 -21.941  0.00  0.00    -0.005 C 
ATOM     10  CAP DSK d          -1.069 -23.030 -23.468  0.00  0.00     0.069 C 
ATOM     11  H16 DSK d          -0.099 -22.182 -21.686  0.00  0.00     0.051 H 
ATOM     12  H17 DSK d          -0.691 -23.863 -21.467  0.00  0.00     0.051 H 
ATOM     13  CAT DSK d          -2.412 -23.796 -23.613  0.00  0.00     0.074 C 
ATOM     14  H20 DSK d          -1.119 -22.039 -23.944  0.00  0.00     0.088 H 
ATOM     15  CAU DSK d          -3.468 -22.894 -22.913  0.00  0.00     0.030 C 
ATOM     16  H24 DSK d          -2.371 -24.794 -23.153  0.00  0.00     0.088 H 
ATOM     17  H25 DSK d          -3.708 -22.053 -23.579  0.00  0.00     0.062 H 
BRANCH  10  18
ATOM     18  OAE DSK d           0.000 -23.812 -24.082  0.00  0.00    -0.392 OA
ATOM     19  H5  DSK d           0.379 -24.393 -23.434  0.00  0.00     0.210 HD
ENDBRANCH  10  18
BRANCH  13  20
ATOM     20  OAI DSK d          -2.687 -23.890 -25.017  0.00  0.00    -0.392 OA
ATOM     21  H9  DSK d          -1.891 -24.130 -25.478  0.00  0.00     0.210 HD
ENDBRANCH  13  20
BRANCH  15  22
ATOM     22  CAK DSK d          -4.821 -23.587 -22.587  0.00  0.00     0.030 C 
ATOM     23  H12 DSK d          -4.812 -23.883 -21.527  0.00  0.00     0.075 H 
ATOM     24  H13 DSK d          -5.631 -22.864 -22.759  0.00  0.00     0.075 H 
BRANCH  22  25
ATOM     25  OAB DSK d          -5.080 -24.751 -23.378  0.00  0.00    -0.400 OA
ATOM     26  H2  DSK d          -4.275 -25.034 -23.797  0.00  0.00     0.209 HD
ENDBRANCH  22  25
ENDBRANCH  15  22
ENDBRANCH   5   8
ENDBRANCH   1   5
BRANCH   1  27
ATOM     27  CAR DSK d          -1.528 -18.424 -20.574  0.00  0.00     0.088 C 
ATOM     28  H22 DSK d          -0.498 -18.558 -20.210  0.00  0.00     0.091 H 
BRANCH  27  29
ATOM     29  OAG DSK d          -1.570 -18.167 -21.989  0.00  0.00    -0.390 OA
ATOM     30  H7  DSK d          -1.470 -18.985 -22.461  0.00  0.00     0.210 HD
ENDBRANCH  27  29
BRANCH  27  31
ATOM     31  CAS DSK d          -2.202 -17.209 -19.894  0.00  0.00     0.090 C 
ATOM     32  H23 DSK d          -2.851 -17.583 -19.088  0.00  0.00     0.091 H 
BRANCH  31  33
ATOM     33  OAH DSK d          -3.003 -16.498 -20.837  0.00  0.00    -0.390 OA
ATOM     34  H8  DSK d          -2.548 -15.708 -21.104  0.00  0.00     0.210 HD
ENDBRANCH  31  33
BRANCH  31  35
ATOM     35  CAQ DSK d          -1.183 -16.247 -19.287  0.00  0.00     0.089 C 
ATOM     36  H21 DSK d          -0.213 -16.754 -19.177  0.00  0.00     0.091 H 
BRANCH  35  37
ATOM     37  OAF DSK d          -1.675 -15.833 -18.008  0.00  0.00    -0.390 OA
ATOM     38  H6  DSK d          -2.583 -16.097 -17.918  0.00  0.00     0.210 HD
ENDBRANCH  35  37
BRANCH  35  39
ATOM     39  CAN DSK d          -1.015 -14.993 -20.172  0.00  0.00     0.083 C 
ATOM     40  H18 DSK d          -1.929 -14.838 -20.765  0.00  0.00     0.090 H 
BRANCH  39  41
ATOM     41  OAC DSK d          -0.795 -13.853 -19.328  0.00  0.00    -0.391 OA
ATOM     42  H3  DSK d          -1.604 -13.625 -18.887  0.00  0.00     0.210 HD
ENDBRANCH  39  41
BRANCH  39  43
ATOM     43  CAJ DSK d           0.175 -15.184 -21.121  0.00  0.00     0.043 C 
ATOM     44  H10 DSK d           0.691 -14.224 -21.268  0.00  0.00     0.078 H 
ATOM     45  H11 DSK d           0.877 -15.917 -20.695  0.00  0.00     0.078 H 
BRANCH  43  46
ATOM     46  OAA DSK d          -0.320 -15.659 -22.362  0.00  0.00    -0.398 OA
ATOM     47  H1  DSK d           0.409 -15.849 -22.940  0.00  0.00     0.209 HD
ENDBRANCH  43  46
ENDBRANCH  39  43
ENDBRANCH  35  39
ENDBRANCH  31  35
ENDBRANCH  27  31
ENDBRANCH   1  27
TORSDOF 17
ENDMDL
MODEL 4
REMARK VINA RESULT:      -5.4      2.063      7.718
REMARK  17 active torsions:
REMARK  status: ('A' for Active; 'I' for Inactive)
REMARK    1  A    between atoms: CAJ_10  and  OAA_1 
REMARK    2  A    between atoms: CAK_11  and  OAB_2 
REMARK    3  A    between atoms: CAN_14  and  OAC_3 
REMARK    4  A    between atoms: CAO_15  and  OAD_4 
REMARK    5  A    between atoms: CAP_16  and  OAE_5 
REMARK    6  A    between atoms: CAQ_17  and  OAF_6 
REMARK    7  A    between atoms: CAR_18  and  OAG_7 
REMARK    8  A    between atoms: CAS_19  and  OAH_8 
REMARK    9  A    between atoms: CAT_20  and  OAI_9 
REMARK   10  A    between atoms: CAN_14  and  CAJ_10 
REMARK   11  A    between atoms: CAU_21  and  CAK_11 
REMARK   12  A    between atoms: CAL_12  and  CAO_15 
REMARK   13  A    between atoms: SAV_22  and  CAL_12 
REMARK   14  A    between atoms: CAQ_17  and  CAN_14 
REMARK   15  A    between atoms: CAO_15  and  CAR_18 
REMARK   16  A    between atoms: CAS_19  and  CAQ_17 
REMARK   17  A    between atoms: CAR_18  and  CAS_19 
ROOT
ATOM      1  CAO DSK d          -2.842 -20.311 -21.994  0.00  0.00     0.070 C 
ATOM      2  H19 DSK d          -2.007 -21.023 -22.054  0.00  0.00     0.088 H 
ENDROOT
BRANCH   1   3
ATOM      3  OAD DSK d          -2.891 -19.581 -23.212  0.00  0.00    -0.392 OA
ATOM      4  H4  DSK d          -3.177 -20.154 -23.913  0.00  0.00     0.210 HD
ENDBRANCH   1   3
BRANCH   1   5
ATOM      5  CAL DSK d          -4.148 -21.139 -21.782  0.00  0.00    -0.005 C 
ATOM      6  H14 DSK d          -4.834 -20.945 -22.619  0.00  0.00     0.051 H 
ATOM      7  H15 DSK d          -4.621 -20.825 -20.840  0.00  0.00     0.051 H 
BRANCH   5   8
ATOM      8  SAV DSK d          -3.803 -22.915 -21.703  0.00  0.00    -0.206 SA
ATOM      9  CAM DSK d          -2.020 -23.239 -21.387  0.00  0.00    -0.005 C 
ATOM     10  CAP DSK d          -1.442 -23.125 -22.813  0.00  0.00     0.069 C 
ATOM     11  H16 DSK d          -1.586 -22.487 -20.713  0.00  0.00     0.051 H 
ATOM     12  H17 DSK d          -1.861 -24.243 -20.965  0.00  0.00     0.051 H 
ATOM     13  CAT DSK d          -2.387 -24.023 -23.657  0.00  0.00     0.074 C 
ATOM     14  H20 DSK d          -1.467 -22.081 -23.159  0.00  0.00     0.088 H 
ATOM     15  CAU DSK d          -3.803 -23.408 -23.470  0.00  0.00     0.030 C 
ATOM     16  H24 DSK d          -2.361 -25.073 -23.330  0.00  0.00     0.088 H 
ATOM     17  H25 DSK d          -3.875 -22.500 -24.088  0.00  0.00     0.062 H 
BRANCH  10  18
ATOM     18  OAE DSK d          -0.078 -23.638 -22.908  0.00  0.00    -0.392 OA
ATOM     19  H5  DSK d           0.205 -23.615 -23.814  0.00  0.00     0.210 HD
ENDBRANCH  10  18
BRANCH  13  20
ATOM     20  OAI DSK d          -1.965 -23.902 -25.022  0.00  0.00    -0.392 OA
ATOM     21  H9  DSK d          -1.534 -23.063 -25.145  0.00  0.00     0.210 HD
ENDBRANCH  13  20
BRANCH  15  22
ATOM     22  CAK DSK d          -4.985 -24.320 -23.901  0.00  0.00     0.030 C 
ATOM     23  H12 DSK d          -5.781 -24.236 -23.147  0.00  0.00     0.075 H 
ATOM     24  H13 DSK d          -5.361 -23.964 -24.873  0.00  0.00     0.075 H 
BRANCH  22  25
ATOM     25  OAB DSK d          -4.633 -25.701 -24.033  0.00  0.00    -0.400 OA
ATOM     26  H2  DSK d          -4.122 -25.969 -23.278  0.00  0.00     0.209 HD
ENDBRANCH  22  25
ENDBRANCH  15  22
ENDBRANCH   5   8
ENDBRANCH   1   5
BRANCH   1  27
ATOM     27  CAR DSK d          -2.554 -19.346 -20.847  0.00  0.00     0.088 C 
ATOM     28  H22 DSK d          -3.364 -19.365 -20.103  0.00  0.00     0.091 H 
BRANCH  27  29
ATOM     29  OAG DSK d          -1.299 -19.771 -20.287  0.00  0.00    -0.390 OA
ATOM     30  H7  DSK d          -1.078 -20.631 -20.624  0.00  0.00     0.210 HD
ENDBRANCH  27  29
BRANCH  27  31
ATOM     31  CAS DSK d          -2.325 -17.912 -21.380  0.00  0.00     0.090 C 
ATOM     32  H23 DSK d          -3.217 -17.612 -21.951  0.00  0.00     0.091 H 
BRANCH  31  33
ATOM     33  OAH DSK d          -1.192 -17.882 -22.246  0.00  0.00    -0.390 OA
ATOM     34  H8  DSK d          -0.590 -18.575 -22.002  0.00  0.00     0.210 HD
ENDBRANCH  31  33
BRANCH  31  35
ATOM     35  CAQ DSK d          -2.111 -16.903 -20.253  0.00  0.00     0.089 C 
ATOM     36  H21 DSK d          -2.196 -17.409 -19.280  0.00  0.00     0.091 H 
BRANCH  35  37
ATOM     37  OAF DSK d          -3.114 -15.888 -20.373  0.00  0.00    -0.390 OA
ATOM     38  H6  DSK d          -3.611 -15.838 -19.565  0.00  0.00     0.210 HD
ENDBRANCH  35  37
BRANCH  35  39
ATOM     39  CAN DSK d          -0.725 -16.233 -20.371  0.00  0.00     0.083 C 
ATOM     40  H18 DSK d           0.044 -17.005 -20.517  0.00  0.00     0.090 H 
BRANCH  39  41
ATOM     41  OAC DSK d          -0.731 -15.345 -21.499  0.00  0.00    -0.391 OA
ATOM     42  H3  DSK d          -1.116 -15.788 -22.247  0.00  0.00     0.210 HD
ENDBRANCH  39  41
BRANCH  39  43
ATOM     43  CAJ DSK d          -0.418 -15.451 -19.088  0.00  0.00     0.043 C 
ATOM     44  H10 DSK d          -0.655 -16.069 -18.209  0.00  0.00     0.078 H 
ATOM     45  H11 DSK d           0.647 -15.175 -19.065  0.00  0.00     0.078 H 
BRANCH  43  46
ATOM     46  OAA DSK d          -1.218 -14.280 -19.081  0.00  0.00    -0.398 OA
ATOM     47  H1  DSK d          -1.249 -13.925 -18.200  0.00  0.00     0.209 HD
ENDBRANCH  43  46
ENDBRANCH  39  43
ENDBRANCH  35  39
ENDBRANCH  31  35
ENDBRANCH  27  31
ENDBRANCH   1  27
TORSDOF 17
ENDMDL
MODEL 5
REMARK VINA RESULT:      -5.4      1.410      2.019
REMARK  17 active torsions:
REMARK  status: ('A' for Active; 'I' for Inactive)
REMARK    1  A    between atoms: CAJ_10  and  OAA_1 
REMARK    2  A    between atoms: CAK_11  and  OAB_2 
REMARK    3  A    between atoms: CAN_14  and  OAC_3 
REMARK    4  A    between atoms: CAO_15  and  OAD_4 
REMARK    5  A    between atoms: CAP_16  and  OAE_5 
REMARK    6  A    between atoms: CAQ_17  and  OAF_6 
REMARK    7  A    between atoms: CAR_18  and  OAG_7 
REMARK    8  A    between atoms: CAS_19  and  OAH_8 
REMARK    9  A    between atoms: CAT_20  and  OAI_9 
REMARK   10  A    between atoms: CAN_14  and  CAJ_10 
REMARK   11  A    between atoms: CAU_21  and  CAK_11 
REMARK   12  A    between atoms: CAL_12  and  CAO_15 
REMARK   13  A    between atoms: SAV_22  and  CAL_12 
REMARK   14  A    between atoms: CAQ_17  and  CAN_14 
REMARK   15  A    between atoms: CAO_15  and  CAR_18 
REMARK   16  A    between atoms: CAS_19  and  CAQ_17 
REMARK   17  A    between atoms: CAR_18  and  CAS_19 
ROOT
ATOM      1  CAO DSK d          -1.592 -20.348 -20.036  0.00  0.00     0.070 C 
ATOM      2  H19 DSK d          -1.890 -20.004 -21.037  0.00  0.00     0.088 H 
ENDROOT
BRANCH   1   3
ATOM      3  OAD DSK d          -0.289 -20.907 -20.130  0.00  0.00    -0.392 OA
ATOM      4  H4  DSK d           0.202 -20.454 -20.805  0.00  0.00     0.210 HD
ENDBRANCH   1   3
BRANCH   1   5
ATOM      5  CAL DSK d          -1.604 -19.105 -19.092  0.00  0.00    -0.005 C 
ATOM      6  H14 DSK d          -0.571 -18.870 -18.797  0.00  0.00     0.051 H 
ATOM      7  H15 DSK d          -2.196 -19.343 -18.197  0.00  0.00     0.051 H 
BRANCH   5   8
ATOM      8  SAV DSK d          -2.326 -17.658 -19.908  0.00  0.00    -0.206 SA
ATOM      9  CAM DSK d          -1.300 -17.108 -21.332  0.00  0.00    -0.005 C 
ATOM     10  CAP DSK d          -0.235 -16.253 -20.616  0.00  0.00     0.069 C 
ATOM     11  H16 DSK d          -0.846 -17.962 -21.857  0.00  0.00     0.051 H 
ATOM     12  H17 DSK d          -1.887 -16.510 -22.045  0.00  0.00     0.051 H 
ATOM     13  CAT DSK d          -1.077 -15.324 -19.698  0.00  0.00     0.074 C 
ATOM     14  H20 DSK d           0.442 -16.889 -20.027  0.00  0.00     0.088 H 
ATOM     15  CAU DSK d          -1.878 -16.287 -18.775  0.00  0.00     0.030 C 
ATOM     16  H24 DSK d          -1.750 -14.672 -20.275  0.00  0.00     0.088 H 
ATOM     17  H25 DSK d          -1.199 -16.677 -18.003  0.00  0.00     0.062 H 
BRANCH  10  18
ATOM     18  OAE DSK d           0.545 -15.436 -21.541  0.00  0.00    -0.392 OA
ATOM     19  H5  DSK d          -0.043 -14.909 -22.069  0.00  0.00     0.210 HD
ENDBRANCH  10  18
BRANCH  13  20
ATOM     20  OAI DSK d          -0.149 -14.550 -18.928  0.00  0.00    -0.392 OA
ATOM     21  H9  DSK d          -0.614 -14.106 -18.227  0.00  0.00     0.210 HD
ENDBRANCH  13  20
BRANCH  15  22
ATOM     22  CAK DSK d          -3.070 -15.640 -18.017  0.00  0.00     0.030 C 
ATOM     23  H12 DSK d          -3.813 -16.424 -17.806  0.00  0.00     0.075 H 
ATOM     24  H13 DSK d          -2.694 -15.226 -17.069  0.00  0.00     0.075 H 
BRANCH  22  25
ATOM     25  OAB DSK d          -3.716 -14.590 -18.743  0.00  0.00    -0.400 OA
ATOM     26  H2  DSK d          -3.107 -14.219 -19.371  0.00  0.00     0.209 HD
ENDBRANCH  22  25
ENDBRANCH  15  22
ENDBRANCH   5   8
ENDBRANCH   1   5
BRANCH   1  27
ATOM     27  CAR DSK d          -2.571 -21.436 -19.604  0.00  0.00     0.088 C 
ATOM     28  H22 DSK d          -2.064 -22.408 -19.511  0.00  0.00     0.091 H 
BRANCH  27  29
ATOM     29  OAG DSK d          -3.118 -20.993 -18.350  0.00  0.00    -0.390 OA
ATOM     30  H7  DSK d          -3.337 -21.748 -17.817  0.00  0.00     0.210 HD
ENDBRANCH  27  29
BRANCH  27  31
ATOM     31  CAS DSK d          -3.761 -21.525 -20.587  0.00  0.00     0.090 C 
ATOM     32  H23 DSK d          -4.408 -20.651 -20.422  0.00  0.00     0.091 H 
BRANCH  31  33
ATOM     33  OAH DSK d          -4.517 -22.710 -20.340  0.00  0.00    -0.390 OA
ATOM     34  H8  DSK d          -4.835 -23.059 -21.164  0.00  0.00     0.210 HD
ENDBRANCH  31  33
BRANCH  31  35
ATOM     35  CAQ DSK d          -3.309 -21.524 -22.046  0.00  0.00     0.089 C 
ATOM     36  H21 DSK d          -2.234 -21.301 -22.101  0.00  0.00     0.091 H 
BRANCH  35  37
ATOM     37  OAF DSK d          -4.060 -20.521 -22.740  0.00  0.00    -0.390 OA
ATOM     38  H6  DSK d          -3.594 -20.267 -23.528  0.00  0.00     0.210 HD
ENDBRANCH  35  37
BRANCH  35  39
ATOM     39  CAN DSK d          -3.592 -22.889 -22.710  0.00  0.00     0.083 C 
ATOM     40  H18 DSK d          -3.797 -23.640 -21.933  0.00  0.00     0.090 H 
BRANCH  39  41
ATOM     41  OAC DSK d          -4.738 -22.762 -23.565  0.00  0.00    -0.391 OA
ATOM     42  H3  DSK d          -5.476 -23.213 -23.173  0.00  0.00     0.210 HD
ENDBRANCH  39  41
BRANCH  39  43
ATOM     43  CAJ DSK d          -2.371 -23.329 -23.528  0.00  0.00     0.043 C 
ATOM     44  H10 DSK d          -1.932 -24.234 -23.083  0.00  0.00     0.078 H 
ATOM     45  H11 DSK d          -2.673 -23.539 -24.565  0.00  0.00     0.078 H 
BRANCH  43  46
ATOM     46  OAA DSK d          -1.423 -22.275 -23.509  0.00  0.00    -0.398 OA
ATOM     47  H1  DSK d          -1.061 -22.192 -22.634  0.00  0.00     0.209 HD
ENDBRANCH  43  46
ENDBRANCH  39  43
ENDBRANCH  35  39
ENDBRANCH  31  35
ENDBRANCH  27  31
ENDBRANCH   1  27
TORSDOF 17
ENDMDL
MODEL 6
REMARK VINA RESULT:      -5.0      1.474      2.901
REMARK  17 active torsions:
REMARK  status: ('A' for Active; 'I' for Inactive)
REMARK    1  A    between atoms: CAJ_10  and  OAA_1 
REMARK    2  A    between atoms: CAK_11  and  OAB_2 
REMARK    3  A    between atoms: CAN_14  and  OAC_3 
REMARK    4  A    between atoms: CAO_15  and  OAD_4 
REMARK    5  A    between atoms: CAP_16  and  OAE_5 
REMARK    6  A    between atoms: CAQ_17  and  OAF_6 
REMARK    7  A    between atoms: CAR_18  and  OAG_7 
REMARK    8  A    between atoms: CAS_19  and  OAH_8 
REMARK    9  A    between atoms: CAT_20  and  OAI_9 
REMARK   10  A    between atoms: CAN_14  and  CAJ_10 
REMARK   11  A    between atoms: CAU_21  and  CAK_11 
REMARK   12  A    between atoms: CAL_12  and  CAO_15 
REMARK   13  A    between atoms: SAV_22  and  CAL_12 
REMARK   14  A    between atoms: CAQ_17  and  CAN_14 
REMARK   15  A    between atoms: CAO_15  and  CAR_18 
REMARK   16  A    between atoms: CAS_19  and  CAQ_17 
REMARK   17  A    between atoms: CAR_18  and  CAS_19 
ROOT
ATOM      1  CAO DSK d          -2.388 -19.813 -21.272  0.00  0.00     0.070 C 
ATOM      2  H19 DSK d          -1.383 -20.261 -21.272  0.00  0.00     0.088 H 
ENDROOT
BRANCH   1   3
ATOM      3  OAD DSK d          -3.068 -20.248 -20.104  0.00  0.00    -0.392 OA
ATOM      4  H4  DSK d          -3.553 -21.042 -20.298  0.00  0.00     0.210 HD
ENDBRANCH   1   3
BRANCH   1   5
ATOM      5  CAL DSK d          -2.208 -18.262 -21.274  0.00  0.00    -0.005 C 
ATOM      6  H14 DSK d          -3.199 -17.788 -21.235  0.00  0.00     0.051 H 
ATOM      7  H15 DSK d          -1.695 -17.964 -22.200  0.00  0.00     0.051 H 
BRANCH   5   8
ATOM      8  SAV DSK d          -1.232 -17.705 -19.855  0.00  0.00    -0.206 SA
ATOM      9  CAM DSK d          -2.309 -17.277 -18.426  0.00  0.00    -0.005 C 
ATOM     10  CAP DSK d          -2.722 -15.836 -18.790  0.00  0.00     0.069 C 
ATOM     11  H16 DSK d          -3.181 -17.944 -18.363  0.00  0.00     0.051 H 
ATOM     12  H17 DSK d          -1.753 -17.311 -17.477  0.00  0.00     0.051 H 
ATOM     13  CAT DSK d          -1.372 -15.151 -19.139  0.00  0.00     0.074 C 
ATOM     14  H20 DSK d          -3.407 -15.834 -19.651  0.00  0.00     0.088 H 
ATOM     15  CAU DSK d          -0.790 -15.985 -20.316  0.00  0.00     0.030 C 
ATOM     16  H24 DSK d          -0.683 -15.134 -18.282  0.00  0.00     0.088 H 
ATOM     17  H25 DSK d          -1.330 -15.719 -21.236  0.00  0.00     0.062 H 
BRANCH  10  18
ATOM     18  OAE DSK d          -3.344 -15.131 -17.672  0.00  0.00    -0.392 OA
ATOM     19  H5  DSK d          -2.684 -14.630 -17.208  0.00  0.00     0.210 HD
ENDBRANCH  10  18
BRANCH  13  20
ATOM     20  OAI DSK d          -1.682 -13.821 -19.574  0.00  0.00    -0.392 OA
ATOM     21  H9  DSK d          -1.543 -13.756 -20.512  0.00  0.00     0.210 HD
ENDBRANCH  13  20
BRANCH  15  22
ATOM     22  CAK DSK d           0.717 -15.748 -20.614  0.00  0.00     0.030 C 
ATOM     23  H12 DSK d           1.064 -14.906 -19.998  0.00  0.00     0.075 H 
ATOM     24  H13 DSK d           1.272 -16.658 -20.339  0.00  0.00     0.075 H 
BRANCH  22  25
ATOM     25  OAB DSK d           0.995 -15.448 -21.986  0.00  0.00    -0.400 OA
ATOM     26  H2  DSK d           1.196 -14.524 -22.072  0.00  0.00     0.209 HD
ENDBRANCH  22  25
ENDBRANCH  15  22
ENDBRANCH   5   8
ENDBRANCH   1   5
BRANCH   1  27
ATOM     27  CAR DSK d          -3.129 -20.330 -22.502  0.00  0.00     0.088 C 
ATOM     28  H22 DSK d          -4.193 -20.052 -22.467  0.00  0.00     0.091 H 
BRANCH  27  29
ATOM     29  OAG DSK d          -2.459 -19.748 -23.635  0.00  0.00    -0.390 OA
ATOM     30  H7  DSK d          -2.632 -20.274 -24.407  0.00  0.00     0.210 HD
ENDBRANCH  27  29
BRANCH  27  31
ATOM     31  CAS DSK d          -2.961 -21.861 -22.641  0.00  0.00     0.090 C 
ATOM     32  H23 DSK d          -3.312 -22.155 -23.642  0.00  0.00     0.091 H 
BRANCH  31  33
ATOM     33  OAH DSK d          -3.750 -22.534 -21.661  0.00  0.00    -0.390 OA
ATOM     34  H8  DSK d          -3.868 -21.968 -20.908  0.00  0.00     0.210 HD
ENDBRANCH  31  33
BRANCH  31  35
ATOM     35  CAQ DSK d          -1.507 -22.300 -22.491  0.00  0.00     0.089 C 
ATOM     36  H21 DSK d          -0.945 -21.539 -21.930  0.00  0.00     0.091 H 
BRANCH  35  37
ATOM     37  OAF DSK d          -0.955 -22.457 -23.803  0.00  0.00    -0.390 OA
ATOM     38  H6  DSK d          -1.244 -23.283 -24.171  0.00  0.00     0.210 HD
ENDBRANCH  35  37
BRANCH  35  39
ATOM     39  CAN DSK d          -1.414 -23.658 -21.760  0.00  0.00     0.083 C 
ATOM     40  H18 DSK d          -2.142 -23.680 -20.936  0.00  0.00     0.090 H 
BRANCH  39  41
ATOM     41  OAC DSK d          -1.715 -24.709 -22.691  0.00  0.00    -0.391 OA
ATOM     42  H3  DSK d          -1.068 -24.710 -23.386  0.00  0.00     0.210 HD
ENDBRANCH  39  41
BRANCH  39  43
ATOM     43  CAJ DSK d          -0.001 -23.845 -21.193  0.00  0.00     0.043 C 
ATOM     44  H10 DSK d          -0.060 -24.089 -20.122  0.00  0.00     0.078 H 
ATOM     45  H11 DSK d           0.510 -24.660 -21.727  0.00  0.00     0.078 H 
BRANCH  43  46
ATOM     46  OAA DSK d           0.711 -22.633 -21.371  0.00  0.00    -0.398 OA
ATOM     47  H1  DSK d           0.947 -22.277 -20.522  0.00  0.00     0.209 HD
ENDBRANCH  43  46
ENDBRANCH  39  43
ENDBRANCH  35  39
ENDBRANCH  31  35
ENDBRANCH  27  31
ENDBRANCH   1  27
TORSDOF 17
ENDMDL
MODEL 7
REMARK VINA RESULT:      -4.9      1.607      3.475
REMARK  17 active torsions:
REMARK  status: ('A' for Active; 'I' for Inactive)
REMARK    1  A    between atoms: CAJ_10  and  OAA_1 
REMARK    2  A    between atoms: CAK_11  and  OAB_2 
REMARK    3  A    between atoms: CAN_14  and  OAC_3 
REMARK    4  A    between atoms: CAO_15  and  OAD_4 
REMARK    5  A    between atoms: CAP_16  and  OAE_5 
REMARK    6  A    between atoms: CAQ_17  and  OAF_6 
REMARK    7  A    between atoms: CAR_18  and  OAG_7 
REMARK    8  A    between atoms: CAS_19  and  OAH_8 
REMARK    9  A    between atoms: CAT_20  and  OAI_9 
REMARK   10  A    between atoms: CAN_14  and  CAJ_10 
REMARK   11  A    between atoms: CAU_21  and  CAK_11 
REMARK   12  A    between atoms: CAL_12  and  CAO_15 
REMARK   13  A    between atoms: SAV_22  and  CAL_12 
REMARK   14  A    between atoms: CAQ_17  and  CAN_14 
REMARK   15  A    between atoms: CAO_15  and  CAR_18 
REMARK   16  A    between atoms: CAS_19  and  CAQ_17 
REMARK   17  A    between atoms: CAR_18  and  CAS_19 
ROOT
ATOM      1  CAO DSK d          -2.366 -19.915 -21.161  0.00  0.00     0.070 C 
ATOM      2  H19 DSK d          -1.358 -20.355 -21.133  0.00  0.00     0.088 H 
ENDROOT
BRANCH   1   3
ATOM      3  OAD DSK d          -3.060 -20.323 -19.991  0.00  0.00    -0.392 OA
ATOM      4  H4  DSK d          -2.529 -20.133 -19.226  0.00  0.00     0.210 HD
ENDBRANCH   1   3
BRANCH   1   5
ATOM      5  CAL DSK d          -2.198 -18.364 -21.205  0.00  0.00    -0.005 C 
ATOM      6  H14 DSK d          -3.192 -17.896 -21.160  0.00  0.00     0.051 H 
ATOM      7  H15 DSK d          -1.703 -18.085 -22.147  0.00  0.00     0.051 H 
BRANCH   5   8
ATOM      8  SAV DSK d          -1.201 -17.764 -19.817  0.00  0.00    -0.206 SA
ATOM      9  CAM DSK d          -2.257 -17.291 -18.387  0.00  0.00    -0.005 C 
ATOM     10  CAP DSK d          -2.674 -15.861 -18.789  0.00  0.00     0.069 C 
ATOM     11  H16 DSK d          -3.129 -17.954 -18.291  0.00  0.00     0.051 H 
ATOM     12  H17 DSK d          -1.688 -17.297 -17.445  0.00  0.00     0.051 H 
ATOM     13  CAT DSK d          -1.329 -15.190 -19.178  0.00  0.00     0.074 C 
ATOM     14  H20 DSK d          -3.371 -15.885 -19.640  0.00  0.00     0.088 H 
ATOM     15  CAU DSK d          -0.764 -16.061 -20.337  0.00  0.00     0.030 C 
ATOM     16  H24 DSK d          -0.628 -15.147 -18.332  0.00  0.00     0.088 H 
ATOM     17  H25 DSK d          -1.317 -15.821 -21.257  0.00  0.00     0.062 H 
BRANCH  10  18
ATOM     18  OAE DSK d          -3.279 -15.122 -17.685  0.00  0.00    -0.392 OA
ATOM     19  H5  DSK d          -3.486 -14.240 -17.970  0.00  0.00     0.210 HD
ENDBRANCH  10  18
BRANCH  13  20
ATOM     20  OAI DSK d          -1.643 -13.873 -19.650  0.00  0.00    -0.392 OA
ATOM     21  H9  DSK d          -2.101 -13.937 -20.481  0.00  0.00     0.210 HD
ENDBRANCH  13  20
BRANCH  15  22
ATOM     22  CAK DSK d           0.738 -15.835 -20.664  0.00  0.00     0.030 C 
ATOM     23  H12 DSK d           1.336 -16.189 -19.811  0.00  0.00     0.075 H 
ATOM     24  H13 DSK d           0.991 -16.425 -21.558  0.00  0.00     0.075 H 
BRANCH  22  25
ATOM     25  OAB DSK d           1.077 -14.467 -20.916  0.00  0.00    -0.400 OA
ATOM     26  H2  DSK d           1.680 -14.164 -20.248  0.00  0.00     0.209 HD
ENDBRANCH  22  25
ENDBRANCH  15  22
ENDBRANCH   5   8
ENDBRANCH   1   5
BRANCH   1  27
ATOM     27  CAR DSK d          -3.085 -20.473 -22.386  0.00  0.00     0.088 C 
ATOM     28  H22 DSK d          -4.155 -20.215 -22.367  0.00  0.00     0.091 H 
BRANCH  27  29
ATOM     29  OAG DSK d          -2.415 -19.904 -23.525  0.00  0.00    -0.390 OA
ATOM     30  H7  DSK d          -2.667 -20.378 -24.308  0.00  0.00     0.210 HD
ENDBRANCH  27  29
BRANCH  27  31
ATOM     31  CAS DSK d          -2.888 -22.003 -22.490  0.00  0.00     0.090 C 
ATOM     32  H23 DSK d          -2.817 -22.410 -21.470  0.00  0.00     0.091 H 
BRANCH  31  33
ATOM     33  OAH DSK d          -1.679 -22.299 -23.187  0.00  0.00    -0.390 OA
ATOM     34  H8  DSK d          -1.752 -21.997 -24.085  0.00  0.00     0.210 HD
ENDBRANCH  31  33
BRANCH  31  35
ATOM     35  CAQ DSK d          -4.050 -22.690 -23.203  0.00  0.00     0.089 C 
ATOM     36  H21 DSK d          -3.826 -22.782 -24.276  0.00  0.00     0.091 H 
BRANCH  35  37
ATOM     37  OAF DSK d          -5.222 -21.890 -23.008  0.00  0.00    -0.390 OA
ATOM     38  H6  DSK d          -4.974 -21.050 -22.643  0.00  0.00     0.210 HD
ENDBRANCH  35  37
BRANCH  35  39
ATOM     39  CAN DSK d          -4.313 -24.090 -22.606  0.00  0.00     0.083 C 
ATOM     40  H18 DSK d          -4.345 -24.833 -23.415  0.00  0.00     0.090 H 
BRANCH  39  41
ATOM     41  OAC DSK d          -3.249 -24.417 -21.700  0.00  0.00    -0.391 OA
ATOM     42  H3  DSK d          -3.546 -25.083 -21.091  0.00  0.00     0.210 HD
ENDBRANCH  39  41
BRANCH  39  43
ATOM     43  CAJ DSK d          -5.656 -24.092 -21.864  0.00  0.00     0.043 C 
ATOM     44  H10 DSK d          -6.398 -23.518 -22.437  0.00  0.00     0.078 H 
ATOM     45  H11 DSK d          -6.009 -25.126 -21.737  0.00  0.00     0.078 H 
BRANCH  43  46
ATOM     46  OAA DSK d          -5.460 -23.493 -20.594  0.00  0.00    -0.398 OA
ATOM     47  H1  DSK d          -6.209 -23.678 -20.039  0.00  0.00     0.209 HD
ENDBRANCH  43  46
ENDBRANCH  39  43
ENDBRANCH  35  39
ENDBRANCH  31  35
ENDBRANCH  27  31
ENDBRANCH   1  27
TORSDOF 17
ENDMDL
MODEL 8
REMARK VINA RESULT:      -4.9      2.229      7.698
REMARK  17 active torsions:
REMARK  status: ('A' for Active; 'I' for Inactive)
REMARK    1  A    between atoms: CAJ_10  and  OAA_1 
REMARK    2  A    between atoms: CAK_11  and  OAB_2 
REMARK    3  A    between atoms: CAN_14  and  OAC_3 
REMARK    4  A    between atoms: CAO_15  and  OAD_4 
REMARK    5  A    between atoms: CAP_16  and  OAE_5 
REMARK    6  A    between atoms: CAQ_17  and  OAF_6 
REMARK    7  A    between atoms: CAR_18  and  OAG_7 
REMARK    8  A    between atoms: CAS_19  and  OAH_8 
REMARK    9  A    between atoms: CAT_20  and  OAI_9 
REMARK   10  A    between atoms: CAN_14  and  CAJ_10 
REMARK   11  A    between atoms: CAU_21  and  CAK_11 
REMARK   12  A    between atoms: CAL_12  and  CAO_15 
REMARK   13  A    between atoms: SAV_22  and  CAL_12 
REMARK   14  A    between atoms: CAQ_17  and  CAN_14 
REMARK   15  A    between atoms: CAO_15  and  CAR_18 
REMARK   16  A    between atoms: CAS_19  and  CAQ_17 
REMARK   17  A    between atoms: CAR_18  and  CAS_19 
ROOT
ATOM      1  CAO DSK d          -2.554 -20.493 -19.901  0.00  0.00     0.070 C 
ATOM      2  H19 DSK d          -3.281 -20.022 -19.223  0.00  0.00     0.088 H 
ENDROOT
BRANCH   1   3
ATOM      3  OAD DSK d          -1.474 -20.984 -19.119  0.00  0.00    -0.392 OA
ATOM      4  H4  DSK d          -1.810 -21.347 -18.308  0.00  0.00     0.210 HD
ENDBRANCH   1   3
BRANCH   1   5
ATOM      5  CAL DSK d          -3.289 -21.656 -20.638  0.00  0.00    -0.005 C 
ATOM      6  H14 DSK d          -4.304 -21.326 -20.903  0.00  0.00     0.051 H 
ATOM      7  H15 DSK d          -3.349 -22.524 -19.966  0.00  0.00     0.051 H 
BRANCH   5   8
ATOM      8  SAV DSK d          -2.415 -22.142 -22.148  0.00  0.00    -0.206 SA
ATOM      9  CAM DSK d          -3.481 -23.170 -23.240  0.00  0.00    -0.005 C 
ATOM     10  CAP DSK d          -3.294 -24.564 -22.606  0.00  0.00     0.069 C 
ATOM     11  H16 DSK d          -4.531 -22.845 -23.200  0.00  0.00     0.051 H 
ATOM     12  H17 DSK d          -3.131 -23.148 -24.282  0.00  0.00     0.051 H 
ATOM     13  CAT DSK d          -1.752 -24.693 -22.470  0.00  0.00     0.074 C 
ATOM     14  H20 DSK d          -3.789 -24.613 -21.625  0.00  0.00     0.088 H 
ATOM     15  CAU DSK d          -1.326 -23.499 -21.569  0.00  0.00     0.030 C 
ATOM     16  H24 DSK d          -1.246 -24.658 -23.446  0.00  0.00     0.088 H 
ATOM     17  H25 DSK d          -1.584 -23.736 -20.527  0.00  0.00     0.062 H 
BRANCH  10  18
ATOM     18  OAE DSK d          -3.794 -25.639 -23.459  0.00  0.00    -0.392 OA
ATOM     19  H5  DSK d          -4.715 -25.496 -23.639  0.00  0.00     0.210 HD
ENDBRANCH  10  18
BRANCH  13  20
ATOM     20  OAI DSK d          -1.498 -25.937 -21.805  0.00  0.00    -0.392 OA
ATOM     21  H9  DSK d          -1.102 -26.547 -22.417  0.00  0.00     0.210 HD
ENDBRANCH  13  20
BRANCH  15  22
ATOM     22  CAK DSK d           0.194 -23.174 -21.575  0.00  0.00     0.030 C 
ATOM     23  H12 DSK d           0.743 -24.077 -21.268  0.00  0.00     0.075 H 
ATOM     24  H13 DSK d           0.486 -22.898 -22.600  0.00  0.00     0.075 H 
BRANCH  22  25
ATOM     25  OAB DSK d           0.561 -22.103 -20.699  0.00  0.00    -0.400 OA
ATOM     26  H2  DSK d           1.449 -21.826 -20.893  0.00  0.00     0.209 HD
ENDBRANCH  22  25
ENDBRANCH  15  22
ENDBRANCH   5   8
ENDBRANCH   1   5
BRANCH   1  27
ATOM     27  CAR DSK d          -2.033 -19.418 -20.850  0.00  0.00     0.088 C 
ATOM     28  H22 DSK d          -1.354 -19.850 -21.601  0.00  0.00     0.091 H 
BRANCH  27  29
ATOM     29  OAG DSK d          -3.200 -18.832 -21.454  0.00  0.00    -0.390 OA
ATOM     30  H7  DSK d          -3.544 -18.155 -20.884  0.00  0.00     0.210 HD
ENDBRANCH  27  29
BRANCH  27  31
ATOM     31  CAS DSK d          -1.338 -18.281 -20.064  0.00  0.00     0.090 C 
ATOM     32  H23 DSK d          -0.293 -18.577 -19.887  0.00  0.00     0.091 H 
BRANCH  31  33
ATOM     33  OAH DSK d          -1.981 -18.087 -18.806  0.00  0.00    -0.390 OA
ATOM     34  H8  DSK d          -1.569 -18.639 -18.153  0.00  0.00     0.210 HD
ENDBRANCH  31  33
BRANCH  31  35
ATOM     35  CAQ DSK d          -1.342 -16.961 -20.831  0.00  0.00     0.089 C 
ATOM     36  H21 DSK d          -2.337 -16.496 -20.765  0.00  0.00     0.091 H 
BRANCH  35  37
ATOM     37  OAF DSK d          -1.016 -17.242 -22.197  0.00  0.00    -0.390 OA
ATOM     38  H6  DSK d          -0.790 -16.432 -22.640  0.00  0.00     0.210 HD
ENDBRANCH  35  37
BRANCH  35  39
ATOM     39  CAN DSK d          -0.279 -15.993 -20.267  0.00  0.00     0.083 C 
ATOM     40  H18 DSK d           0.310 -16.507 -19.493  0.00  0.00     0.090 H 
BRANCH  39  41
ATOM     41  OAC DSK d           0.589 -15.582 -21.333  0.00  0.00    -0.391 OA
ATOM     42  H3  DSK d           0.585 -14.634 -21.396  0.00  0.00     0.210 HD
ENDBRANCH  39  41
BRANCH  39  43
ATOM     43  CAJ DSK d          -0.968 -14.771 -19.647  0.00  0.00     0.043 C 
ATOM     44  H10 DSK d          -0.227 -13.978 -19.467  0.00  0.00     0.078 H 
ATOM     45  H11 DSK d          -1.747 -14.397 -20.329  0.00  0.00     0.078 H 
BRANCH  43  46
ATOM     46  OAA DSK d          -1.555 -15.169 -18.419  0.00  0.00    -0.398 OA
ATOM     47  H1  DSK d          -2.060 -15.962 -18.554  0.00  0.00     0.209 HD
ENDBRANCH  43  46
ENDBRANCH  39  43
ENDBRANCH  35  39
ENDBRANCH  31  35
ENDBRANCH  27  31
ENDBRANCH   1  27
TORSDOF 17
ENDMDL
MODEL 9
REMARK VINA RESULT:      -4.5      3.335      4.862
REMARK  17 active torsions:
REMARK  status: ('A' for Active; 'I' for Inactive)
REMARK    1  A    between atoms: CAJ_10  and  OAA_1 
REMARK    2  A    between atoms: CAK_11  and  OAB_2 
REMARK    3  A    between atoms: CAN_14  and  OAC_3 
REMARK    4  A    between atoms: CAO_15  and  OAD_4 
REMARK    5  A    between atoms: CAP_16  and  OAE_5 
REMARK    6  A    between atoms: CAQ_17  and  OAF_6 
REMARK    7  A    between atoms: CAR_18  and  OAG_7 
REMARK    8  A    between atoms: CAS_19  and  OAH_8 
REMARK    9  A    between atoms: CAT_20  and  OAI_9 
REMARK   10  A    between atoms: CAN_14  and  CAJ_10 
REMARK   11  A    between atoms: CAU_21  and  CAK_11 
REMARK   12  A    between atoms: CAL_12  and  CAO_15 
REMARK   13  A    between atoms: SAV_22  and  CAL_12 
REMARK   14  A    between atoms: CAQ_17  and  CAN_14 
REMARK   15  A    between atoms: CAO_15  and  CAR_18 
REMARK   16  A    between atoms: CAS_19  and  CAQ_17 
REMARK   17  A    between atoms: CAR_18  and  CAS_19 
ROOT
ATOM      1  CAO DSK d          -3.992 -23.336 -20.376  0.00  0.00     0.070 C 
ATOM      2  H19 DSK d          -2.908 -23.221 -20.523  0.00  0.00     0.088 H 
ENDROOT
BRANCH   1   3
ATOM      3  OAD DSK d          -4.278 -24.723 -20.263  0.00  0.00    -0.392 OA
ATOM      4  H4  DSK d          -4.809 -24.997 -21.001  0.00  0.00     0.210 HD
ENDBRANCH   1   3
BRANCH   1   5
ATOM      5  CAL DSK d          -4.371 -22.574 -19.068  0.00  0.00    -0.005 C 
ATOM      6  H14 DSK d          -4.961 -23.242 -18.424  0.00  0.00     0.051 H 
ATOM      7  H15 DSK d          -4.973 -21.692 -19.330  0.00  0.00     0.051 H 
BRANCH   5   8
ATOM      8  SAV DSK d          -2.898 -22.034 -18.163  0.00  0.00    -0.206 SA
ATOM      9  CAM DSK d          -2.478 -20.285 -18.546  0.00  0.00    -0.005 C 
ATOM     10  CAP DSK d          -1.688 -20.452 -19.861  0.00  0.00     0.069 C 
ATOM     11  H16 DSK d          -3.382 -19.675 -18.693  0.00  0.00     0.051 H 
ATOM     12  H17 DSK d          -1.859 -19.836 -17.756  0.00  0.00     0.051 H 
ATOM     13  CAT DSK d          -0.666 -21.573 -19.526  0.00  0.00     0.074 C 
ATOM     14  H20 DSK d          -2.358 -20.753 -20.680  0.00  0.00     0.088 H 
ATOM     15  CAU DSK d          -1.531 -22.799 -19.118  0.00  0.00     0.030 C 
ATOM     16  H24 DSK d           0.018 -21.280 -18.717  0.00  0.00     0.088 H 
ATOM     17  H25 DSK d          -1.950 -23.252 -20.029  0.00  0.00     0.062 H 
BRANCH  10  18
ATOM     18  OAE DSK d          -0.967 -19.240 -20.240  0.00  0.00    -0.392 OA
ATOM     19  H5  DSK d          -1.223 -18.982 -21.117  0.00  0.00     0.210 HD
ENDBRANCH  10  18
BRANCH  13  20
ATOM     20  OAI DSK d           0.056 -21.850 -20.733  0.00  0.00    -0.392 OA
ATOM     21  H9  DSK d          -0.128 -21.171 -21.373  0.00  0.00     0.210 HD
ENDBRANCH  13  20
BRANCH  15  22
ATOM     22  CAK DSK d          -0.767 -23.935 -18.383  0.00  0.00     0.030 C 
ATOM     23  H12 DSK d          -0.603 -23.623 -17.340  0.00  0.00     0.075 H 
ATOM     24  H13 DSK d          -1.391 -24.841 -18.401  0.00  0.00     0.075 H 
BRANCH  22  25
ATOM     25  OAB DSK d           0.502 -24.249 -18.964  0.00  0.00    -0.400 OA
ATOM     26  H2  DSK d           0.380 -24.875 -19.669  0.00  0.00     0.209 HD
ENDBRANCH  22  25
ENDBRANCH  15  22
ENDBRANCH   5   8
ENDBRANCH   1   5
BRANCH   1  27
ATOM     27  CAR DSK d          -4.693 -22.783 -21.614  0.00  0.00     0.088 C 
ATOM     28  H22 DSK d          -5.729 -23.147 -21.677  0.00  0.00     0.091 H 
BRANCH  27  29
ATOM     29  OAG DSK d          -4.631 -21.351 -21.490  0.00  0.00    -0.390 OA
ATOM     30  H7  DSK d          -5.254 -21.065 -20.832  0.00  0.00     0.210 HD
ENDBRANCH  27  29
BRANCH  27  31
ATOM     31  CAS DSK d          -3.904 -23.139 -22.897  0.00  0.00     0.090 C 
ATOM     32  H23 DSK d          -4.274 -22.503 -23.714  0.00  0.00     0.091 H 
BRANCH  31  33
ATOM     33  OAH DSK d          -4.119 -24.506 -23.244  0.00  0.00    -0.390 OA
ATOM     34  H8  DSK d          -3.900 -24.637 -24.159  0.00  0.00     0.210 HD
ENDBRANCH  31  33
BRANCH  31  35
ATOM     35  CAQ DSK d          -2.404 -22.899 -22.739  0.00  0.00     0.089 C 
ATOM     36  H21 DSK d          -2.097 -23.130 -21.709  0.00  0.00     0.091 H 
BRANCH  35  37
ATOM     37  OAF DSK d          -2.143 -21.524 -23.039  0.00  0.00    -0.390 OA
ATOM     38  H6  DSK d          -2.947 -21.104 -23.322  0.00  0.00     0.210 HD
ENDBRANCH  35  37
BRANCH  35  39
ATOM     39  CAN DSK d          -1.601 -23.773 -23.728  0.00  0.00     0.083 C 
ATOM     40  H18 DSK d          -1.591 -24.814 -23.372  0.00  0.00     0.090 H 
BRANCH  39  41
ATOM     41  OAC DSK d          -2.230 -23.716 -25.017  0.00  0.00    -0.391 OA
ATOM     42  H3  DSK d          -2.736 -22.915 -25.086  0.00  0.00     0.210 HD
ENDBRANCH  39  41
BRANCH  39  43
ATOM     43  CAJ DSK d          -0.160 -23.256 -23.821  0.00  0.00     0.043 C 
ATOM     44  H10 DSK d           0.178 -22.916 -22.831  0.00  0.00     0.078 H 
ATOM     45  H11 DSK d           0.501 -24.060 -24.178  0.00  0.00     0.078 H 
BRANCH  43  46
ATOM     46  OAA DSK d          -0.136 -22.174 -24.736  0.00  0.00    -0.398 OA
ATOM     47  H1  DSK d           0.719 -22.127 -25.147  0.00  0.00     0.209 HD
ENDBRANCH  43  46
ENDBRANCH  39  43
ENDBRANCH  35  39
ENDBRANCH  31  35
ENDBRANCH  27  31
ENDBRANCH   1  27
TORSDOF 17
ENDMDL
MODEL 10
REMARK VINA RESULT:      -4.3      2.249      7.965
REMARK  17 active torsions:
REMARK  status: ('A' for Active; 'I' for Inactive)
REMARK    1  A    between atoms: CAJ_10  and  OAA_1 
REMARK    2  A    between atoms: CAK_11  and  OAB_2 
REMARK    3  A    between atoms: CAN_14  and  OAC_3 
REMARK    4  A    between atoms: CAO_15  and  OAD_4 
REMARK    5  A    between atoms: CAP_16  and  OAE_5 
REMARK    6  A    between atoms: CAQ_17  and  OAF_6 
REMARK    7  A    between atoms: CAR_18  and  OAG_7 
REMARK    8  A    between atoms: CAS_19  and  OAH_8 
REMARK    9  A    between atoms: CAT_20  and  OAI_9 
REMARK   10  A    between atoms: CAN_14  and  CAJ_10 
REMARK   11  A    between atoms: CAU_21  and  CAK_11 
REMARK   12  A    between atoms: CAL_12  and  CAO_15 
REMARK   13  A    between atoms: SAV_22  and  CAL_12 
REMARK   14  A    between atoms: CAQ_17  and  CAN_14 
REMARK   15  A    between atoms: CAO_15  and  CAR_18 
REMARK   16  A    between atoms: CAS_19  and  CAQ_17 
REMARK   17  A    between atoms: CAR_18  and  CAS_19 
ROOT
ATOM      1  CAO DSK d          -2.613 -19.734 -20.548  0.00  0.00     0.070 C 
ATOM      2  H19 DSK d          -3.542 -19.235 -20.233  0.00  0.00     0.088 H 
ENDROOT
BRANCH   1   3
ATOM      3  OAD DSK d          -2.193 -20.592 -19.496  0.00  0.00    -0.392 OA
ATOM      4  H4  DSK d          -2.090 -21.475 -19.830  0.00  0.00     0.210 HD
ENDBRANCH   1   3
BRANCH   1   5
ATOM      5  CAL DSK d          -2.935 -20.546 -21.841  0.00  0.00    -0.005 C 
ATOM      6  H14 DSK d          -2.302 -20.177 -22.661  0.00  0.00     0.051 H 
ATOM      7  H15 DSK d          -3.994 -20.399 -22.101  0.00  0.00     0.051 H 
BRANCH   5   8
ATOM      8  SAV DSK d          -2.627 -22.315 -21.610  0.00  0.00    -0.206 SA
ATOM      9  CAM DSK d          -2.050 -23.106 -23.168  0.00  0.00    -0.005 C 
ATOM     10  CAP DSK d          -3.392 -23.368 -23.880  0.00  0.00     0.069 C 
ATOM     11  H16 DSK d          -1.408 -22.429 -23.751  0.00  0.00     0.051 H 
ATOM     12  H17 DSK d          -1.508 -24.042 -22.968  0.00  0.00     0.051 H 
ATOM     13  CAT DSK d          -4.254 -24.055 -22.785  0.00  0.00     0.074 C 
ATOM     14  H20 DSK d          -3.847 -22.422 -24.212  0.00  0.00     0.088 H 
ATOM     15  CAU DSK d          -4.317 -23.027 -21.619  0.00  0.00     0.030 C 
ATOM     16  H24 DSK d          -3.817 -25.008 -22.454  0.00  0.00     0.088 H 
ATOM     17  H25 DSK d          -5.030 -22.235 -21.888  0.00  0.00     0.062 H 
BRANCH  10  18
ATOM     18  OAE DSK d          -3.256 -24.269 -25.021  0.00  0.00    -0.392 OA
ATOM     19  H5  DSK d          -3.329 -25.168 -24.723  0.00  0.00     0.210 HD
ENDBRANCH  10  18
BRANCH  13  20
ATOM     20  OAI DSK d          -5.557 -24.255 -23.347  0.00  0.00    -0.392 OA
ATOM     21  H9  DSK d          -6.189 -23.723 -22.875  0.00  0.00     0.210 HD
ENDBRANCH  13  20
BRANCH  15  22
ATOM     22  CAK DSK d          -4.800 -23.599 -20.257  0.00  0.00     0.030 C 
ATOM     23  H12 DSK d          -5.870 -23.368 -20.144  0.00  0.00     0.075 H 
ATOM     24  H13 DSK d          -4.659 -24.690 -20.270  0.00  0.00     0.075 H 
BRANCH  22  25
ATOM     25  OAB DSK d          -4.102 -23.069 -19.126  0.00  0.00    -0.400 OA
ATOM     26  H2  DSK d          -3.987 -22.132 -19.237  0.00  0.00     0.209 HD
ENDBRANCH  22  25
ENDBRANCH  15  22
ENDBRANCH   5   8
ENDBRANCH   1   5
BRANCH   1  27
ATOM     27  CAR DSK d          -1.554 -18.658 -20.766  0.00  0.00     0.088 C 
ATOM     28  H22 DSK d          -0.547 -19.099 -20.811  0.00  0.00     0.091 H 
BRANCH  27  29
ATOM     29  OAG DSK d          -1.910 -18.004 -21.997  0.00  0.00    -0.390 OA
ATOM     30  H7  DSK d          -1.158 -17.995 -22.578  0.00  0.00     0.210 HD
ENDBRANCH  27  29
BRANCH  27  31
ATOM     31  CAS DSK d          -1.635 -17.576 -19.663  0.00  0.00     0.090 C 
ATOM     32  H23 DSK d          -0.612 -17.357 -19.322  0.00  0.00     0.091 H 
BRANCH  31  33
ATOM     33  OAH DSK d          -2.397 -18.056 -18.557  0.00  0.00    -0.390 OA
ATOM     34  H8  DSK d          -2.730 -18.923 -18.756  0.00  0.00     0.210 HD
ENDBRANCH  31  33
BRANCH  31  35
ATOM     35  CAQ DSK d          -2.263 -16.279 -20.170  0.00  0.00     0.089 C 
ATOM     36  H21 DSK d          -2.911 -16.492 -21.032  0.00  0.00     0.091 H 
BRANCH  35  37
ATOM     37  OAF DSK d          -1.203 -15.395 -20.552  0.00  0.00    -0.390 OA
ATOM     38  H6  DSK d          -0.410 -15.633 -20.086  0.00  0.00     0.210 HD
ENDBRANCH  35  37
BRANCH  35  39
ATOM     39  CAN DSK d          -3.087 -15.596 -19.057  0.00  0.00     0.083 C 
ATOM     40  H18 DSK d          -3.958 -16.221 -18.809  0.00  0.00     0.090 H 
BRANCH  39  41
ATOM     41  OAC DSK d          -2.262 -15.444 -17.892  0.00  0.00    -0.391 OA
ATOM     42  H3  DSK d          -2.193 -14.523 -17.672  0.00  0.00     0.210 HD
ENDBRANCH  39  41
BRANCH  39  43
ATOM     43  CAJ DSK d          -3.573 -14.224 -19.541  0.00  0.00     0.043 C 
ATOM     44  H10 DSK d          -3.760 -13.569 -18.677  0.00  0.00     0.078 H 
ATOM     45  H11 DSK d          -2.811 -13.766 -20.189  0.00  0.00     0.078 H 
BRANCH  43  46
ATOM     46  OAA DSK d          -4.774 -14.411 -20.271  0.00  0.00    -0.398 OA
ATOM     47  H1  DSK d          -4.620 -15.027 -20.977  0.00  0.00     0.209 HD
ENDBRANCH  43  46
ENDBRANCH  39  43
ENDBRANCH  35  39
ENDBRANCH  31  35
ENDBRANCH  27  31
ENDBRANCH   1  27
TORSDOF 17
ENDMDL
