MODEL 1
REMARK VINA RESULT:      -7.6      0.000      0.000
REMARK  0 active torsions:
REMARK  status: ('A' for Active; 'I' for Inactive)
ROOT
ATOM      1  C1  MOL d          22.963  36.339  41.480  0.00  0.00     0.096 A 
ATOM      2  C2  MOL d          24.381  36.760  41.308  0.00  0.00    -0.012 A 
ATOM      3  C3  MOL d          22.912  36.113  42.976  0.00  0.00     0.237 A 
ATOM      4  C4  MOL d          22.014  37.458  41.137  0.00  0.00    -0.021 C 
ATOM      5  C5  MOL d          22.532  35.124  40.685  0.00  0.00     0.101 C 
ATOM      6  C6  MOL d          25.020  36.813  42.510  0.00  0.00     0.042 A 
ATOM      7  C7  MOL d          25.051  37.076  40.163  0.00  0.00    -0.073 A 
ATOM      8  N1  MOL d          24.150  36.435  43.527  0.00  0.00    -0.326 N 
ATOM      9  O1  MOL d          21.865  35.870  43.566  0.00  0.00    -0.272 OA
ATOM     10  C8  MOL d          20.798  36.804  40.517  0.00  0.00     0.083 C 
ATOM     11  N2  MOL d          21.343  35.576  39.895  0.00  0.00    -0.074 N 
ATOM     12  C9  MOL d          26.331  37.208  42.626  0.00  0.00    -0.057 A 
ATOM     13  C10 MOL d          26.372  37.472  40.250  0.00  0.00    -0.082 A 
ATOM     14  C11 MOL d          27.006  37.524  41.472  0.00  0.00    -0.081 A 
ATOM     15  H1  MOL d          22.483  38.150  40.420  0.00  0.00     0.037 H 
ATOM     16  H2  MOL d          21.729  38.010  42.045  0.00  0.00     0.037 H 
ATOM     17  H3  MOL d          22.256  34.300  41.360  0.00  0.00     0.078 H 
ATOM     18  H4  MOL d          23.339  34.794  40.014  0.00  0.00     0.078 H 
ATOM     19  H5  MOL d          24.555  37.018  39.200  0.00  0.00     0.084 H 
ATOM     20  H6  MOL d          24.377  36.399  44.500  0.00  0.00     0.169 HD
ATOM     21  H7  MOL d          20.344  37.459  39.760  0.00  0.00     0.075 H 
ATOM     22  H8  MOL d          20.051  36.557  41.285  0.00  0.00     0.075 H 
ATOM     23  H9  MOL d          20.640  34.855  39.897  0.00  0.00     0.277 HD
ATOM     24  H10 MOL d          21.621  35.771  38.946  0.00  0.00     0.277 HD
ATOM     25  H11 MOL d          26.815  37.269  43.595  0.00  0.00     0.086 H 
ATOM     26  H12 MOL d          26.913  37.743  39.351  0.00  0.00     0.083 H 
ATOM     27  H13 MOL d          28.048  37.818  41.524  0.00  0.00     0.083 H 
ENDROOT
TORSDOF 0
ENDMDL
MODEL 2
REMARK VINA RESULT:      -6.9      2.378      4.726
REMARK  0 active torsions:
REMARK  status: ('A' for Active; 'I' for Inactive)
ROOT
ATOM      1  C1  MOL d          25.636  36.664  41.917  0.00  0.00     0.096 A 
ATOM      2  C2  MOL d          24.157  36.593  42.082  0.00  0.00    -0.012 A 
ATOM      3  C3  MOL d          25.740  37.313  40.554  0.00  0.00     0.237 A 
ATOM      4  C4  MOL d          26.256  37.589  42.932  0.00  0.00    -0.021 C 
ATOM      5  C5  MOL d          26.375  35.344  42.000  0.00  0.00     0.101 C 
ATOM      6  C6  MOL d          23.523  37.152  41.013  0.00  0.00     0.042 A 
ATOM      7  C7  MOL d          23.432  36.071  43.112  0.00  0.00    -0.073 A 
ATOM      8  N1  MOL d          24.460  37.598  40.087  0.00  0.00    -0.326 N 
ATOM      9  O1  MOL d          26.813  37.673  40.081  0.00  0.00    -0.272 OA
ATOM     10  C8  MOL d          27.603  36.993  43.277  0.00  0.00     0.083 C 
ATOM     11  N2  MOL d          27.404  35.541  43.070  0.00  0.00    -0.074 N 
ATOM     12  C9  MOL d          22.154  37.243  40.939  0.00  0.00    -0.057 A 
ATOM     13  C10 MOL d          22.052  36.145  43.060  0.00  0.00    -0.082 A 
ATOM     14  C11 MOL d          21.423  36.715  41.975  0.00  0.00    -0.081 A 
ATOM     15  H1  MOL d          25.624  37.650  43.830  0.00  0.00     0.037 H 
ATOM     16  H2  MOL d          26.383  38.595  42.505  0.00  0.00     0.037 H 
ATOM     17  H3  MOL d          26.857  35.111  41.039  0.00  0.00     0.078 H 
ATOM     18  H4  MOL d          25.686  34.531  42.272  0.00  0.00     0.078 H 
ATOM     19  H5  MOL d          23.928  35.607  43.956  0.00  0.00     0.084 H 
ATOM     20  H6  MOL d          24.247  38.052  39.222  0.00  0.00     0.169 HD
ATOM     21  H7  MOL d          27.871  37.207  44.321  0.00  0.00     0.075 H 
ATOM     22  H8  MOL d          28.387  37.381  42.610  0.00  0.00     0.075 H 
ATOM     23  H9  MOL d          28.273  35.117  42.786  0.00  0.00     0.277 HD
ATOM     24  H10 MOL d          27.087  35.116  43.927  0.00  0.00     0.277 HD
ATOM     25  H11 MOL d          21.668  37.715  40.092  0.00  0.00     0.086 H 
ATOM     26  H12 MOL d          21.462  35.750  43.878  0.00  0.00     0.083 H 
ATOM     27  H13 MOL d          20.340  36.748  41.939  0.00  0.00     0.083 H 
ENDROOT
TORSDOF 0
ENDMDL
MODEL 3
REMARK VINA RESULT:      -6.6      2.097      4.233
REMARK  0 active torsions:
REMARK  status: ('A' for Active; 'I' for Inactive)
ROOT
ATOM      1  C1  MOL d          25.587  36.386  41.927  0.00  0.00     0.096 A 
ATOM      2  C2  MOL d          24.142  36.689  41.729  0.00  0.00    -0.012 A 
ATOM      3  C3  MOL d          25.515  35.373  43.049  0.00  0.00     0.237 A 
ATOM      4  C4  MOL d          26.176  35.712  40.716  0.00  0.00    -0.021 C 
ATOM      5  C5  MOL d          26.471  37.570  42.258  0.00  0.00     0.101 C 
ATOM      6  C6  MOL d          23.370  35.938  42.564  0.00  0.00     0.042 A 
ATOM      7  C7  MOL d          23.559  37.567  40.864  0.00  0.00    -0.073 A 
ATOM      8  N1  MOL d          24.179  35.134  43.361  0.00  0.00    -0.326 N 
ATOM      9  O1  MOL d          26.502  34.761  43.442  0.00  0.00    -0.272 OA
ATOM     10  C8  MOL d          27.603  36.204  40.613  0.00  0.00     0.083 C 
ATOM     11  N2  MOL d          27.551  37.552  41.220  0.00  0.00    -0.074 N 
ATOM     12  C9  MOL d          21.998  36.005  42.553  0.00  0.00    -0.057 A 
ATOM     13  C10 MOL d          22.180  37.659  40.835  0.00  0.00    -0.082 A 
ATOM     14  C11 MOL d          21.411  36.892  41.683  0.00  0.00    -0.081 A 
ATOM     15  H1  MOL d          25.611  35.987  39.812  0.00  0.00     0.037 H 
ATOM     16  H2  MOL d          26.158  34.619  40.840  0.00  0.00     0.037 H 
ATOM     17  H3  MOL d          26.902  37.462  43.265  0.00  0.00     0.078 H 
ATOM     18  H4  MOL d          25.899  38.508  42.203  0.00  0.00     0.078 H 
ATOM     19  H5  MOL d          24.166  38.182  40.210  0.00  0.00     0.084 H 
ATOM     20  H6  MOL d          23.852  34.487  44.049  0.00  0.00     0.169 HD
ATOM     21  H7  MOL d          27.925  36.259  39.562  0.00  0.00     0.075 H 
ATOM     22  H8  MOL d          28.286  35.548  41.171  0.00  0.00     0.075 H 
ATOM     23  H9  MOL d          28.437  37.765  41.650  0.00  0.00     0.277 HD
ATOM     24  H10 MOL d          27.349  38.237  40.509  0.00  0.00     0.277 HD
ATOM     25  H11 MOL d          21.400  35.381  43.207  0.00  0.00     0.086 H 
ATOM     26  H12 MOL d          21.700  38.339  40.141  0.00  0.00     0.083 H 
ATOM     27  H13 MOL d          20.332  36.989  41.663  0.00  0.00     0.083 H 
ENDROOT
TORSDOF 0
ENDMDL
MODEL 4
REMARK VINA RESULT:      -5.9      1.876      4.169
REMARK  0 active torsions:
REMARK  status: ('A' for Active; 'I' for Inactive)
ROOT
ATOM      1  C1  MOL d          23.964  36.272  42.005  0.00  0.00     0.096 A 
ATOM      2  C2  MOL d          22.514  36.568  41.840  0.00  0.00    -0.012 A 
ATOM      3  C3  MOL d          23.936  35.375  43.223  0.00  0.00     0.237 A 
ATOM      4  C4  MOL d          24.497  35.477  40.842  0.00  0.00    -0.021 C 
ATOM      5  C5  MOL d          24.869  37.475  42.180  0.00  0.00     0.101 C 
ATOM      6  C6  MOL d          21.776  35.910  42.777  0.00  0.00     0.042 A 
ATOM      7  C7  MOL d          21.899  37.362  40.918  0.00  0.00    -0.073 A 
ATOM      8  N1  MOL d          22.613  35.180  43.614  0.00  0.00    -0.326 N 
ATOM      9  O1  MOL d          24.936  34.794  43.632  0.00  0.00    -0.272 OA
ATOM     10  C8  MOL d          25.921  35.943  40.630  0.00  0.00     0.083 C 
ATOM     11  N2  MOL d          25.903  37.345  41.104  0.00  0.00    -0.074 N 
ATOM     12  C9  MOL d          20.404  35.989  42.817  0.00  0.00    -0.057 A 
ATOM     13  C10 MOL d          20.520  37.464  40.940  0.00  0.00    -0.082 A 
ATOM     14  C11 MOL d          19.785  36.792  41.890  0.00  0.00    -0.081 A 
ATOM     15  H1  MOL d          23.895  35.668  39.941  0.00  0.00     0.037 H 
ATOM     16  H2  MOL d          24.479  34.402  41.073  0.00  0.00     0.037 H 
ATOM     17  H3  MOL d          25.342  37.461  43.173  0.00  0.00     0.078 H 
ATOM     18  H4  MOL d          24.300  38.408  42.058  0.00  0.00     0.078 H 
ATOM     19  H5  MOL d          22.481  37.905  40.181  0.00  0.00     0.084 H 
ATOM     20  H6  MOL d          22.313  34.606  44.376  0.00  0.00     0.169 HD
ATOM     21  H7  MOL d          26.197  35.891  39.567  0.00  0.00     0.075 H 
ATOM     22  H8  MOL d          26.624  35.338  41.221  0.00  0.00     0.075 H 
ATOM     23  H9  MOL d          26.808  37.590  41.472  0.00  0.00     0.277 HD
ATOM     24  H10 MOL d          25.673  37.959  40.339  0.00  0.00     0.277 HD
ATOM     25  H11 MOL d          19.832  35.437  43.554  0.00  0.00     0.086 H 
ATOM     26  H12 MOL d          20.015  38.078  40.203  0.00  0.00     0.083 H 
ATOM     27  H13 MOL d          18.706  36.896  41.907  0.00  0.00     0.083 H 
ENDROOT
TORSDOF 0
ENDMDL
MODEL 5
REMARK VINA RESULT:      -5.8      2.057      4.749
REMARK  0 active torsions:
REMARK  status: ('A' for Active; 'I' for Inactive)
ROOT
ATOM      1  C1  MOL d          24.647  35.908  42.245  0.00  0.00     0.096 A 
ATOM      2  C2  MOL d          23.259  35.655  42.723  0.00  0.00    -0.012 A 
ATOM      3  C3  MOL d          24.446  35.858  40.746  0.00  0.00     0.237 A 
ATOM      4  C4  MOL d          25.110  37.293  42.617  0.00  0.00    -0.021 C 
ATOM      5  C5  MOL d          25.701  34.935  42.732  0.00  0.00     0.101 C 
ATOM      6  C6  MOL d          22.400  35.531  41.672  0.00  0.00     0.042 A 
ATOM      7  C7  MOL d          22.796  35.549  44.001  0.00  0.00    -0.073 A 
ATOM      8  N1  MOL d          23.095  35.658  40.475  0.00  0.00    -0.326 N 
ATOM      9  O1  MOL d          25.339  36.146  39.957  0.00  0.00    -0.272 OA
ATOM     10  C8  MOL d          26.592  37.179  42.900  0.00  0.00     0.083 C 
ATOM     11  N2  MOL d          26.749  35.787  43.379  0.00  0.00    -0.074 N 
ATOM     12  C9  MOL d          21.052  35.328  41.848  0.00  0.00    -0.057 A 
ATOM     13  C10 MOL d          21.445  35.339  44.206  0.00  0.00    -0.082 A 
ATOM     14  C11 MOL d          20.587  35.218  43.136  0.00  0.00    -0.081 A 
ATOM     15  H1  MOL d          24.576  37.647  43.511  0.00  0.00     0.037 H 
ATOM     16  H2  MOL d          24.934  37.991  41.785  0.00  0.00     0.037 H 
ATOM     17  H3  MOL d          26.128  34.375  41.887  0.00  0.00     0.078 H 
ATOM     18  H4  MOL d          25.272  34.231  43.460  0.00  0.00     0.078 H 
ATOM     19  H5  MOL d          23.476  35.627  44.842  0.00  0.00     0.084 H 
ATOM     20  H6  MOL d          22.689  35.613  39.562  0.00  0.00     0.169 HD
ATOM     21  H7  MOL d          26.900  37.898  43.674  0.00  0.00     0.075 H 
ATOM     22  H8  MOL d          27.181  37.348  41.987  0.00  0.00     0.075 H 
ATOM     23  H9  MOL d          27.664  35.445  43.134  0.00  0.00     0.277 HD
ATOM     24  H10 MOL d          26.637  35.759  44.381  0.00  0.00     0.277 HD
ATOM     25  H11 MOL d          20.380  35.257  41.000  0.00  0.00     0.086 H 
ATOM     26  H12 MOL d          21.059  35.269  45.216  0.00  0.00     0.083 H 
ATOM     27  H13 MOL d          19.533  35.034  43.311  0.00  0.00     0.083 H 
ENDROOT
TORSDOF 0
ENDMDL
MODEL 6
REMARK VINA RESULT:      -5.6      2.043      4.102
REMARK  0 active torsions:
REMARK  status: ('A' for Active; 'I' for Inactive)
ROOT
ATOM      1  C1  MOL d          23.946  36.418  41.734  0.00  0.00     0.096 A 
ATOM      2  C2  MOL d          22.506  36.397  42.114  0.00  0.00    -0.012 A 
ATOM      3  C3  MOL d          24.582  35.885  42.999  0.00  0.00     0.237 A 
ATOM      4  C4  MOL d          24.231  35.450  40.615  0.00  0.00    -0.021 C 
ATOM      5  C5  MOL d          24.501  37.764  41.317  0.00  0.00     0.101 C 
ATOM      6  C6  MOL d          22.343  35.891  43.368  0.00  0.00     0.042 A 
ATOM      7  C7  MOL d          21.421  36.797  41.391  0.00  0.00    -0.073 A 
ATOM      8  N1  MOL d          23.581  35.570  43.914  0.00  0.00    -0.326 N 
ATOM      9  O1  MOL d          25.778  35.621  43.070  0.00  0.00    -0.272 OA
ATOM     10  C8  MOL d          25.314  36.088  39.773  0.00  0.00     0.083 C 
ATOM     11  N2  MOL d          25.090  37.540  39.959  0.00  0.00    -0.074 N 
ATOM     12  C9  MOL d          21.103  35.734  43.940  0.00  0.00    -0.057 A 
ATOM     13  C10 MOL d          20.162  36.655  41.944  0.00  0.00    -0.082 A 
ATOM     14  C11 MOL d          20.010  36.139  43.212  0.00  0.00    -0.081 A 
ATOM     15  H1  MOL d          23.326  35.286  40.012  0.00  0.00     0.037 H 
ATOM     16  H2  MOL d          24.580  34.489  41.021  0.00  0.00     0.037 H 
ATOM     17  H3  MOL d          25.276  38.098  42.024  0.00  0.00     0.078 H 
ATOM     18  H4  MOL d          23.699  38.516  41.270  0.00  0.00     0.078 H 
ATOM     19  H5  MOL d          21.544  37.219  40.400  0.00  0.00     0.084 H 
ATOM     20  H6  MOL d          23.728  35.174  44.821  0.00  0.00     0.169 HD
ATOM     21  H7  MOL d          25.206  35.807  38.715  0.00  0.00     0.075 H 
ATOM     22  H8  MOL d          26.313  35.796  40.130  0.00  0.00     0.075 H 
ATOM     23  H9  MOL d          25.967  38.030  39.885  0.00  0.00     0.277 HD
ATOM     24  H10 MOL d          24.455  37.878  39.254  0.00  0.00     0.277 HD
ATOM     25  H11 MOL d          20.991  35.305  44.929  0.00  0.00     0.086 H 
ATOM     26  H12 MOL d          19.289  36.952  41.376  0.00  0.00     0.083 H 
ATOM     27  H13 MOL d          19.018  36.052  43.640  0.00  0.00     0.083 H 
ENDROOT
TORSDOF 0
ENDMDL
MODEL 7
REMARK VINA RESULT:      -5.1      1.638      2.549
REMARK  0 active torsions:
REMARK  status: ('A' for Active; 'I' for Inactive)
ROOT
ATOM      1  C1  MOL d          23.005  36.489  41.979  0.00  0.00     0.096 A 
ATOM      2  C2  MOL d          24.439  36.794  41.715  0.00  0.00    -0.012 A 
ATOM      3  C3  MOL d          22.328  37.492  41.070  0.00  0.00     0.237 A 
ATOM      4  C4  MOL d          22.644  35.104  41.509  0.00  0.00    -0.021 C 
ATOM      5  C5  MOL d          22.558  36.606  43.422  0.00  0.00     0.101 C 
ATOM      6  C6  MOL d          24.561  37.774  40.776  0.00  0.00     0.042 A 
ATOM      7  C7  MOL d          25.552  36.235  42.270  0.00  0.00    -0.073 A 
ATOM      8  N1  MOL d          23.302  38.201  40.370  0.00  0.00    -0.326 N 
ATOM      9  O1  MOL d          21.116  37.496  40.887  0.00  0.00    -0.272 OA
ATOM     10  C8  MOL d          21.615  34.583  42.488  0.00  0.00     0.083 C 
ATOM     11  N2  MOL d          21.953  35.277  43.751  0.00  0.00    -0.074 N 
ATOM     12  C9  MOL d          25.785  38.213  40.330  0.00  0.00    -0.057 A 
ATOM     13  C10 MOL d          26.796  36.662  41.843  0.00  0.00    -0.082 A 
ATOM     14  C11 MOL d          26.907  37.651  40.891  0.00  0.00    -0.081 A 
ATOM     15  H1  MOL d          23.534  34.457  41.509  0.00  0.00     0.037 H 
ATOM     16  H2  MOL d          22.220  35.143  40.495  0.00  0.00     0.037 H 
ATOM     17  H3  MOL d          21.813  37.407  43.531  0.00  0.00     0.078 H 
ATOM     18  H4  MOL d          23.417  36.812  44.077  0.00  0.00     0.078 H 
ATOM     19  H5  MOL d          25.463  35.469  43.031  0.00  0.00     0.084 H 
ATOM     20  H6  MOL d          23.123  38.906  39.684  0.00  0.00     0.169 HD
ATOM     21  H7  MOL d          21.701  33.492  42.604  0.00  0.00     0.075 H 
ATOM     22  H8  MOL d          20.597  34.838  42.161  0.00  0.00     0.075 H 
ATOM     23  H9  MOL d          21.118  35.411  44.298  0.00  0.00     0.277 HD
ATOM     24  H10 MOL d          22.613  34.725  44.275  0.00  0.00     0.277 HD
ATOM     25  H11 MOL d          25.862  38.975  39.563  0.00  0.00     0.086 H 
ATOM     26  H12 MOL d          27.690  36.215  42.262  0.00  0.00     0.083 H 
ATOM     27  H13 MOL d          27.888  37.989  40.581  0.00  0.00     0.083 H 
ENDROOT
TORSDOF 0
ENDMDL
MODEL 8
REMARK VINA RESULT:      -4.9      2.383      4.319
REMARK  0 active torsions:
REMARK  status: ('A' for Active; 'I' for Inactive)
ROOT
ATOM      1  C1  MOL d          25.409  35.843  41.446  0.00  0.00     0.096 A 
ATOM      2  C2  MOL d          23.961  35.591  41.685  0.00  0.00    -0.012 A 
ATOM      3  C3  MOL d          25.668  36.965  42.428  0.00  0.00     0.237 A 
ATOM      4  C4  MOL d          26.246  34.657  41.850  0.00  0.00    -0.021 C 
ATOM      5  C5  MOL d          25.793  36.202  40.026  0.00  0.00     0.101 C 
ATOM      6  C6  MOL d          23.484  36.400  42.672  0.00  0.00     0.042 A 
ATOM      7  C7  MOL d          23.131  34.701  41.069  0.00  0.00    -0.073 A 
ATOM      8  N1  MOL d          24.499  37.229  43.137  0.00  0.00    -0.326 N 
ATOM      9  O1  MOL d          26.795  37.397  42.645  0.00  0.00    -0.272 OA
ATOM     10  C8  MOL d          27.401  34.605  40.874  0.00  0.00     0.083 C 
ATOM     11  N2  MOL d          26.842  35.205  39.642  0.00  0.00    -0.074 N 
ATOM     12  C9  MOL d          22.181  36.337  43.105  0.00  0.00    -0.057 A 
ATOM     13  C10 MOL d          21.814  34.621  41.481  0.00  0.00    -0.082 A 
ATOM     14  C11 MOL d          21.344  35.442  42.483  0.00  0.00    -0.081 A 
ATOM     15  H1  MOL d          25.652  33.732  41.789  0.00  0.00     0.037 H 
ATOM     16  H2  MOL d          26.619  34.785  42.876  0.00  0.00     0.037 H 
ATOM     17  H3  MOL d          26.197  37.224  39.981  0.00  0.00     0.078 H 
ATOM     18  H4  MOL d          24.922  36.123  39.358  0.00  0.00     0.078 H 
ATOM     19  H5  MOL d          23.498  34.068  40.269  0.00  0.00     0.084 H 
ATOM     20  H6  MOL d          24.404  37.907  43.865  0.00  0.00     0.169 HD
ATOM     21  H7  MOL d          27.718  33.567  40.696  0.00  0.00     0.075 H 
ATOM     22  H8  MOL d          28.254  35.191  41.244  0.00  0.00     0.075 H 
ATOM     23  H9  MOL d          27.575  35.666  39.127  0.00  0.00     0.277 HD
ATOM     24  H10 MOL d          26.431  34.485  39.069  0.00  0.00     0.277 HD
ATOM     25  H11 MOL d          21.826  36.971  43.910  0.00  0.00     0.086 H 
ATOM     26  H12 MOL d          21.146  33.908  41.014  0.00  0.00     0.083 H 
ATOM     27  H13 MOL d          20.305  35.382  42.783  0.00  0.00     0.083 H 
ENDROOT
TORSDOF 0
ENDMDL
