MODEL 1
REMARK VINA RESULT:      -6.0      0.000      0.000
REMARK  17 active torsions:
REMARK  status: ('A' for Active; 'I' for Inactive)
REMARK    1  A    between atoms: CAJ_10  and  OAA_1 
REMARK    2  A    between atoms: CAK_11  and  OAB_2 
REMARK    3  A    between atoms: CAN_14  and  OAC_3 
REMARK    4  A    between atoms: CAO_15  and  OAD_4 
REMARK    5  A    between atoms: CAP_16  and  OAE_5 
REMARK    6  A    between atoms: CAQ_17  and  OAF_6 
REMARK    7  A    between atoms: CAR_18  and  OAG_7 
REMARK    8  A    between atoms: CAS_19  and  OAH_8 
REMARK    9  A    between atoms: CAT_20  and  OAI_9 
REMARK   10  A    between atoms: CAN_14  and  CAJ_10 
REMARK   11  A    between atoms: CAU_21  and  CAK_11 
REMARK   12  A    between atoms: CAL_12  and  CAO_15 
REMARK   13  A    between atoms: SAV_22  and  CAL_12 
REMARK   14  A    between atoms: CAQ_17  and  CAN_14 
REMARK   15  A    between atoms: CAO_15  and  CAR_18 
REMARK   16  A    between atoms: CAS_19  and  CAQ_17 
REMARK   17  A    between atoms: CAR_18  and  CAS_19 
ROOT
ATOM      1  CAO DSK d          -2.712 -19.801 -21.494  0.00  0.00     0.070 C 
ATOM      2  H19 DSK d          -3.799 -19.670 -21.386  0.00  0.00     0.088 H 
ENDROOT
BRANCH   1   3
ATOM      3  OAD DSK d          -2.340 -19.362 -22.793  0.00  0.00    -0.392 OA
ATOM      4  H4  DSK d          -2.778 -18.542 -22.987  0.00  0.00     0.210 HD
ENDBRANCH   1   3
BRANCH   1   5
ATOM      5  CAL DSK d          -2.026 -18.936 -20.390  0.00  0.00    -0.005 C 
ATOM      6  H14 DSK d          -0.940 -19.106 -20.427  0.00  0.00     0.051 H 
ATOM      7  H15 DSK d          -2.412 -19.241 -19.407  0.00  0.00     0.051 H 
BRANCH   5   8
ATOM      8  SAV DSK d          -2.354 -17.171 -20.629  0.00  0.00    -0.206 SA
ATOM      9  CAM DSK d          -0.988 -16.353 -21.551  0.00  0.00    -0.005 C 
ATOM     10  CAP DSK d           0.014 -16.079 -20.411  0.00  0.00     0.069 C 
ATOM     11  H16 DSK d          -0.560 -17.020 -22.314  0.00  0.00     0.051 H 
ATOM     12  H17 DSK d          -1.325 -15.420 -22.027  0.00  0.00     0.051 H 
ATOM     13  CAT DSK d          -0.862 -15.411 -19.315  0.00  0.00     0.074 C 
ATOM     14  H20 DSK d           0.459 -17.018 -20.051  0.00  0.00     0.088 H 
ATOM     15  CAU DSK d          -1.963 -16.459 -18.985  0.00  0.00     0.030 C 
ATOM     16  H24 DSK d          -1.302 -14.464 -19.658  0.00  0.00     0.088 H 
ATOM     17  H25 DSK d          -1.521 -17.247 -18.357  0.00  0.00     0.062 H 
BRANCH  10  18
ATOM     18  OAE DSK d           1.075 -15.157 -20.806  0.00  0.00    -0.392 OA
ATOM     19  H5  DSK d           1.915 -15.595 -20.738  0.00  0.00     0.210 HD
ENDBRANCH  10  18
BRANCH  13  20
ATOM     20  OAI DSK d          -0.014 -15.201 -18.178  0.00  0.00    -0.392 OA
ATOM     21  H9  DSK d          -0.419 -14.568 -17.596  0.00  0.00     0.210 HD
ENDBRANCH  13  20
BRANCH  15  22
ATOM     22  CAK DSK d          -3.184 -15.911 -18.195  0.00  0.00     0.030 C 
ATOM     23  H12 DSK d          -3.999 -16.648 -18.261  0.00  0.00     0.075 H 
ATOM     24  H13 DSK d          -2.888 -15.786 -17.142  0.00  0.00     0.075 H 
BRANCH  22  25
ATOM     25  OAB DSK d          -3.670 -14.655 -18.679  0.00  0.00    -0.400 OA
ATOM     26  H2  DSK d          -4.001 -14.764 -19.563  0.00  0.00     0.209 HD
ENDBRANCH  22  25
ENDBRANCH  15  22
ENDBRANCH   5   8
ENDBRANCH   1   5
BRANCH   1  27
ATOM     27  CAR DSK d          -2.404 -21.290 -21.364  0.00  0.00     0.088 C 
ATOM     28  H22 DSK d          -1.397 -21.450 -20.949  0.00  0.00     0.091 H 
BRANCH  27  29
ATOM     29  OAG DSK d          -3.429 -21.827 -20.510  0.00  0.00    -0.390 OA
ATOM     30  H7  DSK d          -4.166 -22.108 -21.040  0.00  0.00     0.210 HD
ENDBRANCH  27  29
BRANCH  27  31
ATOM     31  CAS DSK d          -2.560 -22.004 -22.727  0.00  0.00     0.090 C 
ATOM     32  H23 DSK d          -1.861 -21.539 -23.439  0.00  0.00     0.091 H 
BRANCH  31  33
ATOM     33  OAH DSK d          -3.890 -21.846 -23.218  0.00  0.00    -0.390 OA
ATOM     34  H8  DSK d          -4.433 -21.463 -22.539  0.00  0.00     0.210 HD
ENDBRANCH  31  33
BRANCH  31  35
ATOM     35  CAQ DSK d          -2.239 -23.495 -22.640  0.00  0.00     0.089 C 
ATOM     36  H21 DSK d          -3.156 -24.059 -22.414  0.00  0.00     0.091 H 
BRANCH  35  37
ATOM     37  OAF DSK d          -1.275 -23.678 -21.597  0.00  0.00    -0.390 OA
ATOM     38  H6  DSK d          -0.737 -22.899 -21.524  0.00  0.00     0.210 HD
ENDBRANCH  35  37
BRANCH  35  39
ATOM     39  CAN DSK d          -1.628 -24.004 -23.963  0.00  0.00     0.083 C 
ATOM     40  H18 DSK d          -1.332 -25.057 -23.848  0.00  0.00     0.090 H 
BRANCH  39  41
ATOM     41  OAC DSK d          -2.611 -23.896 -25.003  0.00  0.00    -0.391 OA
ATOM     42  H3  DSK d          -2.406 -24.512 -25.697  0.00  0.00     0.210 HD
ENDBRANCH  39  41
BRANCH  39  43
ATOM     43  CAJ DSK d          -0.391 -23.168 -24.317  0.00  0.00     0.043 C 
ATOM     44  H10 DSK d          -0.137 -23.311 -25.378  0.00  0.00     0.078 H 
ATOM     45  H11 DSK d          -0.595 -22.104 -24.129  0.00  0.00     0.078 H 
BRANCH  43  46
ATOM     46  OAA DSK d           0.685 -23.602 -23.503  0.00  0.00    -0.398 OA
ATOM     47  H1  DSK d           1.250 -22.864 -23.308  0.00  0.00     0.209 HD
ENDBRANCH  43  46
ENDBRANCH  39  43
ENDBRANCH  35  39
ENDBRANCH  31  35
ENDBRANCH  27  31
ENDBRANCH   1  27
TORSDOF 17
ENDMDL
MODEL 2
REMARK VINA RESULT:      -5.9      2.185      7.292
REMARK  17 active torsions:
REMARK  status: ('A' for Active; 'I' for Inactive)
REMARK    1  A    between atoms: CAJ_10  and  OAA_1 
REMARK    2  A    between atoms: CAK_11  and  OAB_2 
REMARK    3  A    between atoms: CAN_14  and  OAC_3 
REMARK    4  A    between atoms: CAO_15  and  OAD_4 
REMARK    5  A    between atoms: CAP_16  and  OAE_5 
REMARK    6  A    between atoms: CAQ_17  and  OAF_6 
REMARK    7  A    between atoms: CAR_18  and  OAG_7 
REMARK    8  A    between atoms: CAS_19  and  OAH_8 
REMARK    9  A    between atoms: CAT_20  and  OAI_9 
REMARK   10  A    between atoms: CAN_14  and  CAJ_10 
REMARK   11  A    between atoms: CAU_21  and  CAK_11 
REMARK   12  A    between atoms: CAL_12  and  CAO_15 
REMARK   13  A    between atoms: SAV_22  and  CAL_12 
REMARK   14  A    between atoms: CAQ_17  and  CAN_14 
REMARK   15  A    between atoms: CAO_15  and  CAR_18 
REMARK   16  A    between atoms: CAS_19  and  CAQ_17 
REMARK   17  A    between atoms: CAR_18  and  CAS_19 
ROOT
ATOM      1  CAO DSK d          -2.532 -20.291 -22.088  0.00  0.00     0.070 C 
ATOM      2  H19 DSK d          -1.568 -20.803 -22.226  0.00  0.00     0.088 H 
ENDROOT
BRANCH   1   3
ATOM      3  OAD DSK d          -2.793 -19.517 -23.250  0.00  0.00    -0.392 OA
ATOM      4  H4  DSK d          -3.683 -19.185 -23.215  0.00  0.00     0.210 HD
ENDBRANCH   1   3
BRANCH   1   5
ATOM      5  CAL DSK d          -3.621 -21.392 -21.888  0.00  0.00    -0.005 C 
ATOM      6  H14 DSK d          -4.369 -21.304 -22.690  0.00  0.00     0.051 H 
ATOM      7  H15 DSK d          -4.108 -21.239 -20.914  0.00  0.00     0.051 H 
BRANCH   5   8
ATOM      8  SAV DSK d          -2.903 -23.053 -21.933  0.00  0.00    -0.206 SA
ATOM      9  CAM DSK d          -2.477 -23.647 -20.244  0.00  0.00    -0.005 C 
ATOM     10  CAP DSK d          -1.098 -22.986 -20.039  0.00  0.00     0.069 C 
ATOM     11  H16 DSK d          -3.207 -23.300 -19.498  0.00  0.00     0.051 H 
ATOM     12  H17 DSK d          -2.410 -24.744 -20.207  0.00  0.00     0.051 H 
ATOM     13  CAT DSK d          -0.330 -23.343 -21.341  0.00  0.00     0.074 C 
ATOM     14  H20 DSK d          -1.203 -21.898 -19.921  0.00  0.00     0.088 H 
ATOM     15  CAU DSK d          -1.184 -22.739 -22.492  0.00  0.00     0.030 C 
ATOM     16  H24 DSK d          -0.207 -24.430 -21.463  0.00  0.00     0.088 H 
ATOM     17  H25 DSK d          -1.017 -21.652 -22.518  0.00  0.00     0.062 H 
BRANCH  10  18
ATOM     18  OAE DSK d          -0.380 -23.533 -18.891  0.00  0.00    -0.392 OA
ATOM     19  H5  DSK d          -0.271 -22.855 -18.235  0.00  0.00     0.210 HD
ENDBRANCH  10  18
BRANCH  13  20
ATOM     20  OAI DSK d           0.942 -22.688 -21.265  0.00  0.00    -0.392 OA
ATOM     21  H9  DSK d           0.876 -21.823 -21.654  0.00  0.00     0.210 HD
ENDBRANCH  13  20
BRANCH  15  22
ATOM     22  CAK DSK d          -0.846 -23.263 -23.915  0.00  0.00     0.030 C 
ATOM     23  H12 DSK d          -1.153 -24.318 -23.978  0.00  0.00     0.075 H 
ATOM     24  H13 DSK d          -1.415 -22.671 -24.647  0.00  0.00     0.075 H 
BRANCH  22  25
ATOM     25  OAB DSK d           0.543 -23.178 -24.248  0.00  0.00    -0.400 OA
ATOM     26  H2  DSK d           0.686 -22.431 -24.818  0.00  0.00     0.209 HD
ENDBRANCH  22  25
ENDBRANCH  15  22
ENDBRANCH   5   8
ENDBRANCH   1   5
BRANCH   1  27
ATOM     27  CAR DSK d          -2.398 -19.358 -20.888  0.00  0.00     0.088 C 
ATOM     28  H22 DSK d          -3.213 -19.524 -20.167  0.00  0.00     0.091 H 
BRANCH  27  29
ATOM     29  OAG DSK d          -1.109 -19.641 -20.316  0.00  0.00    -0.390 OA
ATOM     30  H7  DSK d          -1.122 -19.431 -19.390  0.00  0.00     0.210 HD
ENDBRANCH  27  29
BRANCH  27  31
ATOM     31  CAS DSK d          -2.355 -17.881 -21.343  0.00  0.00     0.090 C 
ATOM     32  H23 DSK d          -3.251 -17.682 -21.949  0.00  0.00     0.091 H 
BRANCH  31  33
ATOM     33  OAH DSK d          -1.197 -17.645 -22.142  0.00  0.00    -0.390 OA
ATOM     34  H8  DSK d          -0.558 -17.158 -21.635  0.00  0.00     0.210 HD
ENDBRANCH  31  33
BRANCH  31  35
ATOM     35  CAQ DSK d          -2.346 -16.912 -20.163  0.00  0.00     0.089 C 
ATOM     36  H21 DSK d          -2.587 -17.452 -19.236  0.00  0.00     0.091 H 
BRANCH  35  37
ATOM     37  OAF DSK d          -3.326 -15.899 -20.416  0.00  0.00    -0.390 OA
ATOM     38  H6  DSK d          -3.570 -15.918 -21.334  0.00  0.00     0.210 HD
ENDBRANCH  35  37
BRANCH  35  39
ATOM     39  CAN DSK d          -0.967 -16.229 -20.022  0.00  0.00     0.083 C 
ATOM     40  H18 DSK d          -0.176 -16.942 -20.295  0.00  0.00     0.090 H 
BRANCH  39  41
ATOM     41  OAC DSK d          -0.916 -15.098 -20.904  0.00  0.00    -0.391 OA
ATOM     42  H3  DSK d          -1.574 -14.464 -20.644  0.00  0.00     0.210 HD
ENDBRANCH  39  41
BRANCH  39  43
ATOM     43  CAJ DSK d          -0.760 -15.776 -18.571  0.00  0.00     0.043 C 
ATOM     44  H10 DSK d          -0.263 -16.574 -18.000  0.00  0.00     0.078 H 
ATOM     45  H11 DSK d          -0.139 -14.868 -18.550  0.00  0.00     0.078 H 
BRANCH  43  46
ATOM     46  OAA DSK d          -2.032 -15.502 -18.007  0.00  0.00    -0.398 OA
ATOM     47  H1  DSK d          -2.218 -14.574 -18.087  0.00  0.00     0.209 HD
ENDBRANCH  43  46
ENDBRANCH  39  43
ENDBRANCH  35  39
ENDBRANCH  31  35
ENDBRANCH  27  31
ENDBRANCH   1  27
TORSDOF 17
ENDMDL
MODEL 3
REMARK VINA RESULT:      -5.1      1.970      2.645
REMARK  17 active torsions:
REMARK  status: ('A' for Active; 'I' for Inactive)
REMARK    1  A    between atoms: CAJ_10  and  OAA_1 
REMARK    2  A    between atoms: CAK_11  and  OAB_2 
REMARK    3  A    between atoms: CAN_14  and  OAC_3 
REMARK    4  A    between atoms: CAO_15  and  OAD_4 
REMARK    5  A    between atoms: CAP_16  and  OAE_5 
REMARK    6  A    between atoms: CAQ_17  and  OAF_6 
REMARK    7  A    between atoms: CAR_18  and  OAG_7 
REMARK    8  A    between atoms: CAS_19  and  OAH_8 
REMARK    9  A    between atoms: CAT_20  and  OAI_9 
REMARK   10  A    between atoms: CAN_14  and  CAJ_10 
REMARK   11  A    between atoms: CAU_21  and  CAK_11 
REMARK   12  A    between atoms: CAL_12  and  CAO_15 
REMARK   13  A    between atoms: SAV_22  and  CAL_12 
REMARK   14  A    between atoms: CAQ_17  and  CAN_14 
REMARK   15  A    between atoms: CAO_15  and  CAR_18 
REMARK   16  A    between atoms: CAS_19  and  CAQ_17 
REMARK   17  A    between atoms: CAR_18  and  CAS_19 
ROOT
ATOM      1  CAO DSK d          -1.836 -20.418 -19.648  0.00  0.00     0.070 C 
ATOM      2  H19 DSK d          -2.714 -20.270 -20.295  0.00  0.00     0.088 H 
ENDROOT
BRANCH   1   3
ATOM      3  OAD DSK d          -0.734 -20.774 -20.470  0.00  0.00    -0.392 OA
ATOM      4  H4  DSK d          -0.573 -21.707 -20.396  0.00  0.00     0.210 HD
ENDBRANCH   1   3
BRANCH   1   5
ATOM      5  CAL DSK d          -1.573 -19.072 -18.903  0.00  0.00    -0.005 C 
ATOM      6  H14 DSK d          -0.487 -18.912 -18.828  0.00  0.00     0.051 H 
ATOM      7  H15 DSK d          -2.005 -19.131 -17.894  0.00  0.00     0.051 H 
BRANCH   5   8
ATOM      8  SAV DSK d          -2.314 -17.672 -19.780  0.00  0.00    -0.206 SA
ATOM      9  CAM DSK d          -1.304 -17.180 -21.237  0.00  0.00    -0.005 C 
ATOM     10  CAP DSK d          -0.242 -16.283 -20.570  0.00  0.00     0.069 C 
ATOM     11  H16 DSK d          -0.847 -18.053 -21.725  0.00  0.00     0.051 H 
ATOM     12  H17 DSK d          -1.902 -16.621 -21.972  0.00  0.00     0.051 H 
ATOM     13  CAT DSK d          -1.085 -15.319 -19.690  0.00  0.00     0.074 C 
ATOM     14  H20 DSK d           0.446 -16.885 -19.958  0.00  0.00     0.088 H 
ATOM     15  CAU DSK d          -1.870 -16.245 -18.717  0.00  0.00     0.030 C 
ATOM     16  H24 DSK d          -1.768 -14.701 -20.292  0.00  0.00     0.088 H 
ATOM     17  H25 DSK d          -1.181 -16.592 -17.932  0.00  0.00     0.062 H 
BRANCH  10  18
ATOM     18  OAE DSK d           0.523 -15.504 -21.540  0.00  0.00    -0.392 OA
ATOM     19  H5  DSK d           1.124 -16.077 -22.001  0.00  0.00     0.210 HD
ENDBRANCH  10  18
BRANCH  13  20
ATOM     20  OAI DSK d          -0.158 -14.502 -18.965  0.00  0.00    -0.392 OA
ATOM     21  H9  DSK d          -0.395 -14.496 -18.044  0.00  0.00     0.210 HD
ENDBRANCH  13  20
BRANCH  15  22
ATOM     22  CAK DSK d          -3.061 -15.573 -17.980  0.00  0.00     0.030 C 
ATOM     23  H12 DSK d          -3.735 -16.364 -17.617  0.00  0.00     0.075 H 
ATOM     24  H13 DSK d          -2.665 -15.008 -17.123  0.00  0.00     0.075 H 
BRANCH  22  25
ATOM     25  OAB DSK d          -3.818 -14.677 -18.799  0.00  0.00    -0.400 OA
ATOM     26  H2  DSK d          -4.737 -14.732 -18.563  0.00  0.00     0.209 HD
ENDBRANCH  22  25
ENDBRANCH  15  22
ENDBRANCH   5   8
ENDBRANCH   1   5
BRANCH   1  27
ATOM     27  CAR DSK d          -2.144 -21.574 -18.700  0.00  0.00     0.088 C 
ATOM     28  H22 DSK d          -1.219 -21.998 -18.281  0.00  0.00     0.091 H 
BRANCH  27  29
ATOM     29  OAG DSK d          -2.995 -21.025 -17.678  0.00  0.00    -0.390 OA
ATOM     30  H7  DSK d          -3.881 -21.344 -17.801  0.00  0.00     0.210 HD
ENDBRANCH  27  29
BRANCH  27  31
ATOM     31  CAS DSK d          -2.977 -22.664 -19.415  0.00  0.00     0.090 C 
ATOM     32  H23 DSK d          -3.414 -23.320 -18.648  0.00  0.00     0.091 H 
BRANCH  31  33
ATOM     33  OAH DSK d          -2.139 -23.445 -20.266  0.00  0.00    -0.390 OA
ATOM     34  H8  DSK d          -2.673 -24.059 -20.757  0.00  0.00     0.210 HD
ENDBRANCH  31  33
BRANCH  31  35
ATOM     35  CAQ DSK d          -4.111 -22.072 -20.248  0.00  0.00     0.089 C 
ATOM     36  H21 DSK d          -4.051 -20.974 -20.231  0.00  0.00     0.091 H 
BRANCH  35  37
ATOM     37  OAF DSK d          -5.351 -22.510 -19.680  0.00  0.00    -0.390 OA
ATOM     38  H6  DSK d          -5.822 -23.034 -20.316  0.00  0.00     0.210 HD
ENDBRANCH  35  37
BRANCH  35  39
ATOM     39  CAN DSK d          -4.042 -22.573 -21.707  0.00  0.00     0.083 C 
ATOM     40  H18 DSK d          -3.353 -23.428 -21.769  0.00  0.00     0.090 H 
BRANCH  39  41
ATOM     41  OAC DSK d          -5.353 -22.987 -22.120  0.00  0.00    -0.391 OA
ATOM     42  H3  DSK d          -5.671 -22.401 -22.797  0.00  0.00     0.210 HD
ENDBRANCH  39  41
BRANCH  39  43
ATOM     43  CAJ DSK d          -3.534 -21.448 -22.617  0.00  0.00     0.043 C 
ATOM     44  H10 DSK d          -4.121 -21.428 -23.548  0.00  0.00     0.078 H 
ATOM     45  H11 DSK d          -3.629 -20.481 -22.102  0.00  0.00     0.078 H 
BRANCH  43  46
ATOM     46  OAA DSK d          -2.171 -21.701 -22.915  0.00  0.00    -0.398 OA
ATOM     47  H1  DSK d          -2.004 -22.635 -22.859  0.00  0.00     0.209 HD
ENDBRANCH  43  46
ENDBRANCH  39  43
ENDBRANCH  35  39
ENDBRANCH  31  35
ENDBRANCH  27  31
ENDBRANCH   1  27
TORSDOF 17
ENDMDL
MODEL 4
REMARK VINA RESULT:      -4.9      1.733      3.027
REMARK  17 active torsions:
REMARK  status: ('A' for Active; 'I' for Inactive)
REMARK    1  A    between atoms: CAJ_10  and  OAA_1 
REMARK    2  A    between atoms: CAK_11  and  OAB_2 
REMARK    3  A    between atoms: CAN_14  and  OAC_3 
REMARK    4  A    between atoms: CAO_15  and  OAD_4 
REMARK    5  A    between atoms: CAP_16  and  OAE_5 
REMARK    6  A    between atoms: CAQ_17  and  OAF_6 
REMARK    7  A    between atoms: CAR_18  and  OAG_7 
REMARK    8  A    between atoms: CAS_19  and  OAH_8 
REMARK    9  A    between atoms: CAT_20  and  OAI_9 
REMARK   10  A    between atoms: CAN_14  and  CAJ_10 
REMARK   11  A    between atoms: CAU_21  and  CAK_11 
REMARK   12  A    between atoms: CAL_12  and  CAO_15 
REMARK   13  A    between atoms: SAV_22  and  CAL_12 
REMARK   14  A    between atoms: CAQ_17  and  CAN_14 
REMARK   15  A    between atoms: CAO_15  and  CAR_18 
REMARK   16  A    between atoms: CAS_19  and  CAQ_17 
REMARK   17  A    between atoms: CAR_18  and  CAS_19 
ROOT
ATOM      1  CAO DSK d          -3.012 -19.651 -22.116  0.00  0.00     0.070 C 
ATOM      2  H19 DSK d          -4.058 -19.912 -22.335  0.00  0.00     0.088 H 
ENDROOT
BRANCH   1   3
ATOM      3  OAD DSK d          -2.251 -19.839 -23.300  0.00  0.00    -0.392 OA
ATOM      4  H4  DSK d          -2.681 -20.480 -23.854  0.00  0.00     0.210 HD
ENDBRANCH   1   3
BRANCH   1   5
ATOM      5  CAL DSK d          -2.988 -18.158 -21.662  0.00  0.00    -0.005 C 
ATOM      6  H14 DSK d          -3.907 -17.941 -21.098  0.00  0.00     0.051 H 
ATOM      7  H15 DSK d          -2.944 -17.515 -22.552  0.00  0.00     0.051 H 
BRANCH   5   8
ATOM      8  SAV DSK d          -1.556 -17.806 -20.611  0.00  0.00    -0.206 SA
ATOM      9  CAM DSK d          -2.057 -17.535 -18.861  0.00  0.00    -0.005 C 
ATOM     10  CAP DSK d          -2.474 -16.050 -18.901  0.00  0.00     0.069 C 
ATOM     11  H16 DSK d          -2.898 -18.184 -18.577  0.00  0.00     0.051 H 
ATOM     12  H17 DSK d          -1.217 -17.701 -18.171  0.00  0.00     0.051 H 
ATOM     13  CAT DSK d          -1.280 -15.360 -19.615  0.00  0.00     0.074 C 
ATOM     14  H20 DSK d          -3.408 -15.925 -19.469  0.00  0.00     0.088 H 
ATOM     15  CAU DSK d          -1.185 -16.053 -21.004  0.00  0.00     0.030 C 
ATOM     16  H24 DSK d          -0.343 -15.467 -19.049  0.00  0.00     0.088 H 
ATOM     17  H25 DSK d          -1.985 -15.660 -21.647  0.00  0.00     0.062 H 
BRANCH  10  18
ATOM     18  OAE DSK d          -2.635 -15.478 -17.567  0.00  0.00    -0.392 OA
ATOM     19  H5  DSK d          -3.376 -15.885 -17.136  0.00  0.00     0.210 HD
ENDBRANCH  10  18
BRANCH  13  20
ATOM     20  OAI DSK d          -1.631 -13.979 -19.768  0.00  0.00    -0.392 OA
ATOM     21  H9  DSK d          -2.365 -13.904 -20.369  0.00  0.00     0.210 HD
ENDBRANCH  13  20
BRANCH  15  22
ATOM     22  CAK DSK d           0.145 -15.816 -21.773  0.00  0.00     0.030 C 
ATOM     23  H12 DSK d           0.505 -14.803 -21.539  0.00  0.00     0.075 H 
ATOM     24  H13 DSK d           0.882 -16.557 -21.428  0.00  0.00     0.075 H 
BRANCH  22  25
ATOM     25  OAB DSK d           0.020 -15.933 -23.194  0.00  0.00    -0.400 OA
ATOM     26  H2  DSK d          -0.203 -16.829 -23.418  0.00  0.00     0.209 HD
ENDBRANCH  22  25
ENDBRANCH  15  22
ENDBRANCH   5   8
ENDBRANCH   1   5
BRANCH   1  27
ATOM     27  CAR DSK d          -2.506 -20.610 -21.041  0.00  0.00     0.088 C 
ATOM     28  H22 DSK d          -1.784 -20.113 -20.377  0.00  0.00     0.091 H 
BRANCH  27  29
ATOM     29  OAG DSK d          -3.676 -21.051 -20.330  0.00  0.00    -0.390 OA
ATOM     30  H7  DSK d          -4.231 -20.304 -20.141  0.00  0.00     0.210 HD
ENDBRANCH  27  29
BRANCH  27  31
ATOM     31  CAS DSK d          -1.888 -21.875 -21.682  0.00  0.00     0.090 C 
ATOM     32  H23 DSK d          -1.174 -21.554 -22.455  0.00  0.00     0.091 H 
BRANCH  31  33
ATOM     33  OAH DSK d          -2.906 -22.666 -22.295  0.00  0.00    -0.390 OA
ATOM     34  H8  DSK d          -2.549 -23.100 -23.060  0.00  0.00     0.210 HD
ENDBRANCH  31  33
BRANCH  31  35
ATOM     35  CAQ DSK d          -1.142 -22.734 -20.663  0.00  0.00     0.089 C 
ATOM     36  H21 DSK d          -1.518 -23.767 -20.701  0.00  0.00     0.091 H 
BRANCH  35  37
ATOM     37  OAF DSK d          -1.364 -22.172 -19.365  0.00  0.00    -0.390 OA
ATOM     38  H6  DSK d          -1.740 -22.832 -18.795  0.00  0.00     0.210 HD
ENDBRANCH  35  37
BRANCH  35  39
ATOM     39  CAN DSK d           0.377 -22.724 -20.943  0.00  0.00     0.083 C 
ATOM     40  H18 DSK d           0.677 -21.729 -21.302  0.00  0.00     0.090 H 
BRANCH  39  41
ATOM     41  OAC DSK d           1.077 -23.023 -19.726  0.00  0.00    -0.391 OA
ATOM     42  H3  DSK d           1.162 -22.231 -19.208  0.00  0.00     0.210 HD
ENDBRANCH  39  41
BRANCH  39  43
ATOM     43  CAJ DSK d           0.713 -23.769 -22.014  0.00  0.00     0.043 C 
ATOM     44  H10 DSK d           1.600 -24.344 -21.708  0.00  0.00     0.078 H 
ATOM     45  H11 DSK d          -0.139 -24.453 -22.147  0.00  0.00     0.078 H 
BRANCH  43  46
ATOM     46  OAA DSK d           0.977 -23.089 -23.229  0.00  0.00    -0.398 OA
ATOM     47  H1  DSK d           1.153 -22.173 -23.046  0.00  0.00     0.209 HD
ENDBRANCH  43  46
ENDBRANCH  39  43
ENDBRANCH  35  39
ENDBRANCH  31  35
ENDBRANCH  27  31
ENDBRANCH   1  27
TORSDOF 17
ENDMDL
MODEL 5
REMARK VINA RESULT:      -4.8      2.921      6.817
REMARK  17 active torsions:
REMARK  status: ('A' for Active; 'I' for Inactive)
REMARK    1  A    between atoms: CAJ_10  and  OAA_1 
REMARK    2  A    between atoms: CAK_11  and  OAB_2 
REMARK    3  A    between atoms: CAN_14  and  OAC_3 
REMARK    4  A    between atoms: CAO_15  and  OAD_4 
REMARK    5  A    between atoms: CAP_16  and  OAE_5 
REMARK    6  A    between atoms: CAQ_17  and  OAF_6 
REMARK    7  A    between atoms: CAR_18  and  OAG_7 
REMARK    8  A    between atoms: CAS_19  and  OAH_8 
REMARK    9  A    between atoms: CAT_20  and  OAI_9 
REMARK   10  A    between atoms: CAN_14  and  CAJ_10 
REMARK   11  A    between atoms: CAU_21  and  CAK_11 
REMARK   12  A    between atoms: CAL_12  and  CAO_15 
REMARK   13  A    between atoms: SAV_22  and  CAL_12 
REMARK   14  A    between atoms: CAQ_17  and  CAN_14 
REMARK   15  A    between atoms: CAO_15  and  CAR_18 
REMARK   16  A    between atoms: CAS_19  and  CAQ_17 
REMARK   17  A    between atoms: CAR_18  and  CAS_19 
ROOT
ATOM      1  CAO DSK d          -3.936 -23.044 -23.159  0.00  0.00     0.070 C 
ATOM      2  H19 DSK d          -2.936 -22.779 -23.534  0.00  0.00     0.088 H 
ENDROOT
BRANCH   1   3
ATOM      3  OAD DSK d          -4.791 -23.237 -24.276  0.00  0.00    -0.392 OA
ATOM      4  H4  DSK d          -4.286 -23.168 -25.077  0.00  0.00     0.210 HD
ENDBRANCH   1   3
BRANCH   1   5
ATOM      5  CAL DSK d          -3.790 -24.357 -22.328  0.00  0.00    -0.005 C 
ATOM      6  H14 DSK d          -4.518 -25.095 -22.694  0.00  0.00     0.051 H 
ATOM      7  H15 DSK d          -3.994 -24.135 -21.270  0.00  0.00     0.051 H 
BRANCH   5   8
ATOM      8  SAV DSK d          -2.125 -25.053 -22.471  0.00  0.00    -0.206 SA
ATOM      9  CAM DSK d          -1.434 -25.488 -20.823  0.00  0.00    -0.005 C 
ATOM     10  CAP DSK d          -0.891 -24.120 -20.361  0.00  0.00     0.069 C 
ATOM     11  H16 DSK d          -2.213 -25.864 -20.144  0.00  0.00     0.051 H 
ATOM     12  H17 DSK d          -0.630 -26.234 -20.906  0.00  0.00     0.051 H 
ATOM     13  CAT DSK d          -0.068 -23.627 -21.583  0.00  0.00     0.074 C 
ATOM     14  H20 DSK d          -1.719 -23.432 -20.132  0.00  0.00     0.088 H 
ATOM     15  CAU DSK d          -1.087 -23.569 -22.758  0.00  0.00     0.030 C 
ATOM     16  H24 DSK d           0.771 -24.300 -21.815  0.00  0.00     0.088 H 
ATOM     17  H25 DSK d          -1.713 -22.673 -22.634  0.00  0.00     0.062 H 
BRANCH  10  18
ATOM     18  OAE DSK d          -0.012 -24.228 -19.200  0.00  0.00    -0.392 OA
ATOM     19  H5  DSK d           0.276 -23.361 -18.940  0.00  0.00     0.210 HD
ENDBRANCH  10  18
BRANCH  13  20
ATOM     20  OAI DSK d           0.402 -22.312 -21.263  0.00  0.00    -0.392 OA
ATOM     21  H9  DSK d          -0.266 -21.674 -21.488  0.00  0.00     0.210 HD
ENDBRANCH  13  20
BRANCH  15  22
ATOM     22  CAK DSK d          -0.458 -23.465 -24.175  0.00  0.00     0.030 C 
ATOM     23  H12 DSK d          -0.295 -24.484 -24.557  0.00  0.00     0.075 H 
ATOM     24  H13 DSK d          -1.166 -22.936 -24.830  0.00  0.00     0.075 H 
BRANCH  22  25
ATOM     25  OAB DSK d           0.791 -22.767 -24.205  0.00  0.00    -0.400 OA
ATOM     26  H2  DSK d           0.705 -21.990 -24.745  0.00  0.00     0.209 HD
ENDBRANCH  22  25
ENDBRANCH  15  22
ENDBRANCH   5   8
ENDBRANCH   1   5
BRANCH   1  27
ATOM     27  CAR DSK d          -4.452 -21.869 -22.333  0.00  0.00     0.088 C 
ATOM     28  H22 DSK d          -4.946 -21.123 -22.975  0.00  0.00     0.091 H 
BRANCH  27  29
ATOM     29  OAG DSK d          -5.358 -22.436 -21.371  0.00  0.00    -0.390 OA
ATOM     30  H7  DSK d          -5.172 -23.362 -21.270  0.00  0.00     0.210 HD
ENDBRANCH  27  29
BRANCH  27  31
ATOM     31  CAS DSK d          -3.306 -21.224 -21.519  0.00  0.00     0.090 C 
ATOM     32  H23 DSK d          -2.365 -21.721 -21.799  0.00  0.00     0.091 H 
BRANCH  31  33
ATOM     33  OAH DSK d          -3.528 -21.411 -20.122  0.00  0.00    -0.390 OA
ATOM     34  H8  DSK d          -4.335 -21.895 -19.993  0.00  0.00     0.210 HD
ENDBRANCH  31  33
BRANCH  31  35
ATOM     35  CAQ DSK d          -3.165 -19.730 -21.800  0.00  0.00     0.089 C 
ATOM     36  H21 DSK d          -4.153 -19.249 -21.761  0.00  0.00     0.091 H 
BRANCH  35  37
ATOM     37  OAF DSK d          -2.591 -19.578 -23.104  0.00  0.00    -0.390 OA
ATOM     38  H6  DSK d          -1.678 -19.838 -23.079  0.00  0.00     0.210 HD
ENDBRANCH  35  37
BRANCH  35  39
ATOM     39  CAN DSK d          -2.222 -19.063 -20.775  0.00  0.00     0.083 C 
ATOM     40  H18 DSK d          -2.789 -18.812 -19.866  0.00  0.00     0.090 H 
BRANCH  39  41
ATOM     41  OAC DSK d          -1.171 -19.982 -20.443  0.00  0.00    -0.391 OA
ATOM     42  H3  DSK d          -0.332 -19.544 -20.524  0.00  0.00     0.210 HD
ENDBRANCH  39  41
BRANCH  39  43
ATOM     43  CAJ DSK d          -1.632 -17.780 -21.372  0.00  0.00     0.043 C 
ATOM     44  H10 DSK d          -0.974 -17.295 -20.635  0.00  0.00     0.078 H 
ATOM     45  H11 DSK d          -1.054 -18.022 -22.277  0.00  0.00     0.078 H 
BRANCH  43  46
ATOM     46  OAA DSK d          -2.703 -16.913 -21.704  0.00  0.00    -0.398 OA
ATOM     47  H1  DSK d          -3.436 -17.081 -21.124  0.00  0.00     0.209 HD
ENDBRANCH  43  46
ENDBRANCH  39  43
ENDBRANCH  35  39
ENDBRANCH  31  35
ENDBRANCH  27  31
ENDBRANCH   1  27
TORSDOF 17
ENDMDL
MODEL 6
REMARK VINA RESULT:      -4.7      1.973      3.414
REMARK  17 active torsions:
REMARK  status: ('A' for Active; 'I' for Inactive)
REMARK    1  A    between atoms: CAJ_10  and  OAA_1 
REMARK    2  A    between atoms: CAK_11  and  OAB_2 
REMARK    3  A    between atoms: CAN_14  and  OAC_3 
REMARK    4  A    between atoms: CAO_15  and  OAD_4 
REMARK    5  A    between atoms: CAP_16  and  OAE_5 
REMARK    6  A    between atoms: CAQ_17  and  OAF_6 
REMARK    7  A    between atoms: CAR_18  and  OAG_7 
REMARK    8  A    between atoms: CAS_19  and  OAH_8 
REMARK    9  A    between atoms: CAT_20  and  OAI_9 
REMARK   10  A    between atoms: CAN_14  and  CAJ_10 
REMARK   11  A    between atoms: CAU_21  and  CAK_11 
REMARK   12  A    between atoms: CAL_12  and  CAO_15 
REMARK   13  A    between atoms: SAV_22  and  CAL_12 
REMARK   14  A    between atoms: CAQ_17  and  CAN_14 
REMARK   15  A    between atoms: CAO_15  and  CAR_18 
REMARK   16  A    between atoms: CAS_19  and  CAQ_17 
REMARK   17  A    between atoms: CAR_18  and  CAS_19 
ROOT
ATOM      1  CAO DSK d          -1.535 -22.368 -18.492  0.00  0.00     0.070 C 
ATOM      2  H19 DSK d          -1.154 -22.549 -17.476  0.00  0.00     0.088 H 
ENDROOT
BRANCH   1   3
ATOM      3  OAD DSK d          -2.954 -22.424 -18.449  0.00  0.00    -0.392 OA
ATOM      4  H4  DSK d          -3.263 -21.994 -17.660  0.00  0.00     0.210 HD
ENDBRANCH   1   3
BRANCH   1   5
ATOM      5  CAL DSK d          -1.040 -20.955 -18.932  0.00  0.00    -0.005 C 
ATOM      6  H14 DSK d          -0.398 -21.061 -19.818  0.00  0.00     0.051 H 
ATOM      7  H15 DSK d          -0.460 -20.508 -18.111  0.00  0.00     0.051 H 
BRANCH   5   8
ATOM      8  SAV DSK d          -2.425 -19.861 -19.337  0.00  0.00    -0.206 SA
ATOM      9  CAM DSK d          -3.178 -20.302 -20.956  0.00  0.00    -0.005 C 
ATOM     10  CAP DSK d          -2.231 -19.570 -21.930  0.00  0.00     0.069 C 
ATOM     11  H16 DSK d          -3.168 -21.389 -21.124  0.00  0.00     0.051 H 
ATOM     12  H17 DSK d          -4.209 -19.929 -21.037  0.00  0.00     0.051 H 
ATOM     13  CAT DSK d          -2.142 -18.137 -21.337  0.00  0.00     0.074 C 
ATOM     14  H20 DSK d          -1.245 -20.057 -21.952  0.00  0.00     0.088 H 
ATOM     15  CAU DSK d          -1.584 -18.331 -19.898  0.00  0.00     0.030 C 
ATOM     16  H24 DSK d          -3.120 -17.634 -21.322  0.00  0.00     0.088 H 
ATOM     17  H25 DSK d          -0.504 -18.528 -19.964  0.00  0.00     0.062 H 
BRANCH  10  18
ATOM     18  OAE DSK d          -2.769 -19.497 -23.286  0.00  0.00    -0.392 OA
ATOM     19  H5  DSK d          -3.303 -20.264 -23.455  0.00  0.00     0.210 HD
ENDBRANCH  10  18
BRANCH  13  20
ATOM     20  OAI DSK d          -1.205 -17.412 -22.143  0.00  0.00    -0.392 OA
ATOM     21  H9  DSK d          -0.488 -17.108 -21.598  0.00  0.00     0.210 HD
ENDBRANCH  13  20
BRANCH  15  22
ATOM     22  CAK DSK d          -1.743 -17.106 -18.955  0.00  0.00     0.030 C 
ATOM     23  H12 DSK d          -2.813 -16.854 -18.891  0.00  0.00     0.075 H 
ATOM     24  H13 DSK d          -1.372 -17.386 -17.957  0.00  0.00     0.075 H 
BRANCH  22  25
ATOM     25  OAB DSK d          -1.032 -15.943 -19.391  0.00  0.00    -0.400 OA
ATOM     26  H2  DSK d          -0.466 -16.174 -20.118  0.00  0.00     0.209 HD
ENDBRANCH  22  25
ENDBRANCH  15  22
ENDBRANCH   5   8
ENDBRANCH   1   5
BRANCH   1  27
ATOM     27  CAR DSK d          -1.020 -23.489 -19.392  0.00  0.00     0.088 C 
ATOM     28  H22 DSK d           0.078 -23.467 -19.460  0.00  0.00     0.091 H 
BRANCH  27  29
ATOM     29  OAG DSK d          -1.498 -24.711 -18.804  0.00  0.00    -0.390 OA
ATOM     30  H7  DSK d          -2.247 -25.026 -19.296  0.00  0.00     0.210 HD
ENDBRANCH  27  29
BRANCH  27  31
ATOM     31  CAS DSK d          -1.663 -23.404 -20.796  0.00  0.00     0.090 C 
ATOM     32  H23 DSK d          -2.075 -22.392 -20.924  0.00  0.00     0.091 H 
BRANCH  31  33
ATOM     33  OAH DSK d          -2.723 -24.351 -20.911  0.00  0.00    -0.390 OA
ATOM     34  H8  DSK d          -3.480 -24.037 -20.431  0.00  0.00     0.210 HD
ENDBRANCH  31  33
BRANCH  31  35
ATOM     35  CAQ DSK d          -0.651 -23.658 -21.912  0.00  0.00     0.089 C 
ATOM     36  H21 DSK d          -0.160 -24.629 -21.754  0.00  0.00     0.091 H 
BRANCH  35  37
ATOM     37  OAF DSK d           0.316 -22.602 -21.879  0.00  0.00    -0.390 OA
ATOM     38  H6  DSK d           1.188 -22.975 -21.823  0.00  0.00     0.210 HD
ENDBRANCH  35  37
BRANCH  35  39
ATOM     39  CAN DSK d          -1.341 -23.642 -23.294  0.00  0.00     0.083 C 
ATOM     40  H18 DSK d          -1.810 -24.619 -23.480  0.00  0.00     0.090 H 
BRANCH  39  41
ATOM     41  OAC DSK d          -2.348 -22.620 -23.300  0.00  0.00    -0.391 OA
ATOM     42  H3  DSK d          -3.123 -22.943 -23.744  0.00  0.00     0.210 HD
ENDBRANCH  39  41
BRANCH  39  43
ATOM     43  CAJ DSK d          -0.302 -23.364 -24.387  0.00  0.00     0.043 C 
ATOM     44  H10 DSK d           0.679 -23.754 -24.076  0.00  0.00     0.078 H 
ATOM     45  H11 DSK d          -0.609 -23.849 -25.325  0.00  0.00     0.078 H 
BRANCH  43  46
ATOM     46  OAA DSK d          -0.223 -21.961 -24.576  0.00  0.00    -0.398 OA
ATOM     47  H1  DSK d           0.534 -21.622 -24.111  0.00  0.00     0.209 HD
ENDBRANCH  43  46
ENDBRANCH  39  43
ENDBRANCH  35  39
ENDBRANCH  31  35
ENDBRANCH  27  31
ENDBRANCH   1  27
TORSDOF 17
ENDMDL
MODEL 7
REMARK VINA RESULT:      -4.6      1.560      2.127
REMARK  17 active torsions:
REMARK  status: ('A' for Active; 'I' for Inactive)
REMARK    1  A    between atoms: CAJ_10  and  OAA_1 
REMARK    2  A    between atoms: CAK_11  and  OAB_2 
REMARK    3  A    between atoms: CAN_14  and  OAC_3 
REMARK    4  A    between atoms: CAO_15  and  OAD_4 
REMARK    5  A    between atoms: CAP_16  and  OAE_5 
REMARK    6  A    between atoms: CAQ_17  and  OAF_6 
REMARK    7  A    between atoms: CAR_18  and  OAG_7 
REMARK    8  A    between atoms: CAS_19  and  OAH_8 
REMARK    9  A    between atoms: CAT_20  and  OAI_9 
REMARK   10  A    between atoms: CAN_14  and  CAJ_10 
REMARK   11  A    between atoms: CAU_21  and  CAK_11 
REMARK   12  A    between atoms: CAL_12  and  CAO_15 
REMARK   13  A    between atoms: SAV_22  and  CAL_12 
REMARK   14  A    between atoms: CAQ_17  and  CAN_14 
REMARK   15  A    between atoms: CAO_15  and  CAR_18 
REMARK   16  A    between atoms: CAS_19  and  CAQ_17 
REMARK   17  A    between atoms: CAR_18  and  CAS_19 
ROOT
ATOM      1  CAO DSK d          -1.565 -19.462 -19.492  0.00  0.00     0.070 C 
ATOM      2  H19 DSK d          -0.898 -18.697 -19.068  0.00  0.00     0.088 H 
ENDROOT
BRANCH   1   3
ATOM      3  OAD DSK d          -2.679 -19.610 -18.624  0.00  0.00    -0.392 OA
ATOM      4  H4  DSK d          -3.433 -19.170 -18.999  0.00  0.00     0.210 HD
ENDBRANCH   1   3
BRANCH   1   5
ATOM      5  CAL DSK d          -2.012 -18.962 -20.902  0.00  0.00    -0.005 C 
ATOM      6  H14 DSK d          -2.927 -19.496 -21.197  0.00  0.00     0.051 H 
ATOM      7  H15 DSK d          -1.213 -19.175 -21.626  0.00  0.00     0.051 H 
BRANCH   5   8
ATOM      8  SAV DSK d          -2.345 -17.182 -20.900  0.00  0.00    -0.206 SA
ATOM      9  CAM DSK d          -0.970 -16.241 -21.681  0.00  0.00    -0.005 C 
ATOM     10  CAP DSK d           0.014 -16.123 -20.499  0.00  0.00     0.069 C 
ATOM     11  H16 DSK d          -0.527 -16.795 -22.521  0.00  0.00     0.051 H 
ATOM     12  H17 DSK d          -1.304 -15.252 -22.029  0.00  0.00     0.051 H 
ATOM     13  CAT DSK d          -0.880 -15.615 -19.335  0.00  0.00     0.074 C 
ATOM     14  H20 DSK d           0.459 -17.102 -20.265  0.00  0.00     0.088 H 
ATOM     15  CAU DSK d          -1.981 -16.701 -19.168  0.00  0.00     0.030 C 
ATOM     16  H24 DSK d          -1.320 -14.630 -19.551  0.00  0.00     0.088 H 
ATOM     17  H25 DSK d          -1.543 -17.566 -18.648  0.00  0.00     0.062 H 
BRANCH  10  18
ATOM     18  OAE DSK d           1.076 -15.152 -20.749  0.00  0.00    -0.392 OA
ATOM     19  H5  DSK d           1.921 -15.570 -20.625  0.00  0.00     0.210 HD
ENDBRANCH  10  18
BRANCH  13  20
ATOM     20  OAI DSK d          -0.050 -15.560 -18.168  0.00  0.00    -0.392 OA
ATOM     21  H9  DSK d           0.860 -15.482 -18.431  0.00  0.00     0.210 HD
ENDBRANCH  13  20
BRANCH  15  22
ATOM     22  CAK DSK d          -3.215 -16.271 -18.329  0.00  0.00     0.030 C 
ATOM     23  H12 DSK d          -4.061 -16.109 -19.014  0.00  0.00     0.075 H 
ATOM     24  H13 DSK d          -3.460 -17.085 -17.630  0.00  0.00     0.075 H 
BRANCH  22  25
ATOM     25  OAB DSK d          -3.012 -15.073 -17.572  0.00  0.00    -0.400 OA
ATOM     26  H2  DSK d          -3.546 -15.102 -16.787  0.00  0.00     0.209 HD
ENDBRANCH  22  25
ENDBRANCH  15  22
ENDBRANCH   5   8
ENDBRANCH   1   5
BRANCH   1  27
ATOM     27  CAR DSK d          -0.795 -20.779 -19.542  0.00  0.00     0.088 C 
ATOM     28  H22 DSK d           0.229 -20.623 -19.915  0.00  0.00     0.091 H 
BRANCH  27  29
ATOM     29  OAG DSK d          -0.805 -21.288 -18.197  0.00  0.00    -0.390 OA
ATOM     30  H7  DSK d          -1.344 -20.727 -17.652  0.00  0.00     0.210 HD
ENDBRANCH  27  29
BRANCH  27  31
ATOM     31  CAS DSK d          -1.544 -21.821 -20.405  0.00  0.00     0.090 C 
ATOM     32  H23 DSK d          -1.905 -21.318 -21.314  0.00  0.00     0.091 H 
BRANCH  31  33
ATOM     33  OAH DSK d          -2.664 -22.339 -19.689  0.00  0.00    -0.390 OA
ATOM     34  H8  DSK d          -3.444 -22.262 -20.226  0.00  0.00     0.210 HD
ENDBRANCH  31  33
BRANCH  31  35
ATOM     35  CAQ DSK d          -0.644 -22.982 -20.821  0.00  0.00     0.089 C 
ATOM     36  H21 DSK d          -0.502 -23.666 -19.971  0.00  0.00     0.091 H 
BRANCH  35  37
ATOM     37  OAF DSK d           0.614 -22.439 -21.236  0.00  0.00    -0.390 OA
ATOM     38  H6  DSK d           0.952 -22.946 -21.965  0.00  0.00     0.210 HD
ENDBRANCH  35  37
BRANCH  35  39
ATOM     39  CAN DSK d          -1.256 -23.754 -22.011  0.00  0.00     0.083 C 
ATOM     40  H18 DSK d          -0.496 -24.420 -22.446  0.00  0.00     0.090 H 
BRANCH  39  41
ATOM     41  OAC DSK d          -2.363 -24.536 -21.539  0.00  0.00    -0.391 OA
ATOM     42  H3  DSK d          -2.430 -25.331 -22.055  0.00  0.00     0.210 HD
ENDBRANCH  39  41
BRANCH  39  43
ATOM     43  CAJ DSK d          -1.730 -22.762 -23.081  0.00  0.00     0.043 C 
ATOM     44  H10 DSK d          -2.495 -23.236 -23.715  0.00  0.00     0.078 H 
ATOM     45  H11 DSK d          -2.156 -21.869 -22.599  0.00  0.00     0.078 H 
BRANCH  43  46
ATOM     46  OAA DSK d          -0.612 -22.395 -23.871  0.00  0.00    -0.398 OA
ATOM     47  H1  DSK d           0.130 -22.942 -23.641  0.00  0.00     0.209 HD
ENDBRANCH  43  46
ENDBRANCH  39  43
ENDBRANCH  35  39
ENDBRANCH  31  35
ENDBRANCH  27  31
ENDBRANCH   1  27
TORSDOF 17
ENDMDL
MODEL 8
REMARK VINA RESULT:      -4.5      2.414      7.943
REMARK  17 active torsions:
REMARK  status: ('A' for Active; 'I' for Inactive)
REMARK    1  A    between atoms: CAJ_10  and  OAA_1 
REMARK    2  A    between atoms: CAK_11  and  OAB_2 
REMARK    3  A    between atoms: CAN_14  and  OAC_3 
REMARK    4  A    between atoms: CAO_15  and  OAD_4 
REMARK    5  A    between atoms: CAP_16  and  OAE_5 
REMARK    6  A    between atoms: CAQ_17  and  OAF_6 
REMARK    7  A    between atoms: CAR_18  and  OAG_7 
REMARK    8  A    between atoms: CAS_19  and  OAH_8 
REMARK    9  A    between atoms: CAT_20  and  OAI_9 
REMARK   10  A    between atoms: CAN_14  and  CAJ_10 
REMARK   11  A    between atoms: CAU_21  and  CAK_11 
REMARK   12  A    between atoms: CAL_12  and  CAO_15 
REMARK   13  A    between atoms: SAV_22  and  CAL_12 
REMARK   14  A    between atoms: CAQ_17  and  CAN_14 
REMARK   15  A    between atoms: CAO_15  and  CAR_18 
REMARK   16  A    between atoms: CAS_19  and  CAQ_17 
REMARK   17  A    between atoms: CAR_18  and  CAS_19 
ROOT
ATOM      1  CAO DSK d          -1.897 -21.707 -20.712  0.00  0.00     0.070 C 
ATOM      2  H19 DSK d          -2.137 -22.564 -20.067  0.00  0.00     0.088 H 
ENDROOT
BRANCH   1   3
ATOM      3  OAD DSK d          -0.491 -21.509 -20.682  0.00  0.00    -0.392 OA
ATOM      4  H4  DSK d          -0.223 -21.281 -19.799  0.00  0.00     0.210 HD
ENDBRANCH   1   3
BRANCH   1   5
ATOM      5  CAL DSK d          -2.386 -22.055 -22.153  0.00  0.00    -0.005 C 
ATOM      6  H14 DSK d          -1.586 -21.817 -22.869  0.00  0.00     0.051 H 
ATOM      7  H15 DSK d          -3.275 -21.451 -22.384  0.00  0.00     0.051 H 
BRANCH   5   8
ATOM      8  SAV DSK d          -2.810 -23.808 -22.305  0.00  0.00    -0.206 SA
ATOM      9  CAM DSK d          -1.534 -24.879 -21.522  0.00  0.00    -0.005 C 
ATOM     10  CAP DSK d          -0.489 -24.967 -22.653  0.00  0.00     0.069 C 
ATOM     11  H16 DSK d          -1.114 -24.412 -20.620  0.00  0.00     0.051 H 
ATOM     12  H17 DSK d          -1.940 -25.869 -21.268  0.00  0.00     0.051 H 
ATOM     13  CAT DSK d          -1.338 -25.339 -23.900  0.00  0.00     0.074 C 
ATOM     14  H20 DSK d           0.018 -24.000 -22.789  0.00  0.00     0.088 H 
ATOM     15  CAU DSK d          -2.369 -24.184 -24.046  0.00  0.00     0.030 C 
ATOM     16  H24 DSK d          -1.841 -26.311 -23.783  0.00  0.00     0.088 H 
ATOM     17  H25 DSK d          -1.858 -23.309 -24.475  0.00  0.00     0.062 H 
BRANCH  10  18
ATOM     18  OAE DSK d           0.504 -26.010 -22.419  0.00  0.00    -0.392 OA
ATOM     19  H5  DSK d           0.066 -26.810 -22.153  0.00  0.00     0.210 HD
ENDBRANCH  10  18
BRANCH  13  20
ATOM     20  OAI DSK d          -0.445 -25.356 -25.020  0.00  0.00    -0.392 OA
ATOM     21  H9  DSK d           0.177 -24.641 -24.940  0.00  0.00     0.210 HD
ENDBRANCH  13  20
BRANCH  15  22
ATOM     22  CAK DSK d          -3.573 -24.483 -24.982  0.00  0.00     0.030 C 
ATOM     23  H12 DSK d          -3.906 -23.536 -25.432  0.00  0.00     0.075 H 
ATOM     24  H13 DSK d          -3.233 -25.166 -25.775  0.00  0.00     0.075 H 
BRANCH  22  25
ATOM     25  OAB DSK d          -4.688 -25.084 -24.317  0.00  0.00    -0.400 OA
ATOM     26  H2  DSK d          -4.896 -24.585 -23.535  0.00  0.00     0.209 HD
ENDBRANCH  22  25
ENDBRANCH  15  22
ENDBRANCH   5   8
ENDBRANCH   1   5
BRANCH   1  27
ATOM     27  CAR DSK d          -2.585 -20.475 -20.129  0.00  0.00     0.088 C 
ATOM     28  H22 DSK d          -3.480 -20.210 -20.712  0.00  0.00     0.091 H 
BRANCH  27  29
ATOM     29  OAG DSK d          -2.911 -20.818 -18.771  0.00  0.00    -0.390 OA
ATOM     30  H7  DSK d          -3.817 -20.590 -18.597  0.00  0.00     0.210 HD
ENDBRANCH  27  29
BRANCH  27  31
ATOM     31  CAS DSK d          -1.603 -19.283 -20.050  0.00  0.00     0.090 C 
ATOM     32  H23 DSK d          -0.631 -19.613 -20.444  0.00  0.00     0.091 H 
BRANCH  31  33
ATOM     33  OAH DSK d          -1.434 -18.872 -18.694  0.00  0.00    -0.390 OA
ATOM     34  H8  DSK d          -1.985 -19.405 -18.132  0.00  0.00     0.210 HD
ENDBRANCH  31  33
BRANCH  31  35
ATOM     35  CAQ DSK d          -2.077 -18.087 -20.873  0.00  0.00     0.089 C 
ATOM     36  H21 DSK d          -3.057 -17.748 -20.506  0.00  0.00     0.091 H 
BRANCH  35  37
ATOM     37  OAF DSK d          -2.176 -18.503 -22.240  0.00  0.00    -0.390 OA
ATOM     38  H6  DSK d          -2.129 -19.451 -22.285  0.00  0.00     0.210 HD
ENDBRANCH  35  37
BRANCH  35  39
ATOM     39  CAN DSK d          -1.062 -16.926 -20.791  0.00  0.00     0.083 C 
ATOM     40  H18 DSK d          -0.106 -17.302 -20.400  0.00  0.00     0.090 H 
BRANCH  39  41
ATOM     41  OAC DSK d          -0.861 -16.389 -22.107  0.00  0.00    -0.391 OA
ATOM     42  H3  DSK d          -1.527 -15.736 -22.286  0.00  0.00     0.210 HD
ENDBRANCH  39  41
BRANCH  39  43
ATOM     43  CAJ DSK d          -1.597 -15.836 -19.853  0.00  0.00     0.043 C 
ATOM     44  H10 DSK d          -2.696 -15.813 -19.899  0.00  0.00     0.078 H 
ATOM     45  H11 DSK d          -1.277 -16.042 -18.821  0.00  0.00     0.078 H 
BRANCH  43  46
ATOM     46  OAA DSK d          -1.073 -14.590 -20.279  0.00  0.00    -0.398 OA
ATOM     47  H1  DSK d          -1.010 -14.581 -21.227  0.00  0.00     0.209 HD
ENDBRANCH  43  46
ENDBRANCH  39  43
ENDBRANCH  35  39
ENDBRANCH  31  35
ENDBRANCH  27  31
ENDBRANCH   1  27
TORSDOF 17
ENDMDL
MODEL 9
REMARK VINA RESULT:      -4.5      1.766      3.119
REMARK  17 active torsions:
REMARK  status: ('A' for Active; 'I' for Inactive)
REMARK    1  A    between atoms: CAJ_10  and  OAA_1 
REMARK    2  A    between atoms: CAK_11  and  OAB_2 
REMARK    3  A    between atoms: CAN_14  and  OAC_3 
REMARK    4  A    between atoms: CAO_15  and  OAD_4 
REMARK    5  A    between atoms: CAP_16  and  OAE_5 
REMARK    6  A    between atoms: CAQ_17  and  OAF_6 
REMARK    7  A    between atoms: CAR_18  and  OAG_7 
REMARK    8  A    between atoms: CAS_19  and  OAH_8 
REMARK    9  A    between atoms: CAT_20  and  OAI_9 
REMARK   10  A    between atoms: CAN_14  and  CAJ_10 
REMARK   11  A    between atoms: CAU_21  and  CAK_11 
REMARK   12  A    between atoms: CAL_12  and  CAO_15 
REMARK   13  A    between atoms: SAV_22  and  CAL_12 
REMARK   14  A    between atoms: CAQ_17  and  CAN_14 
REMARK   15  A    between atoms: CAO_15  and  CAR_18 
REMARK   16  A    between atoms: CAS_19  and  CAQ_17 
REMARK   17  A    between atoms: CAR_18  and  CAS_19 
ROOT
ATOM      1  CAO DSK d          -2.930 -19.740 -22.153  0.00  0.00     0.070 C 
ATOM      2  H19 DSK d          -3.956 -20.083 -22.352  0.00  0.00     0.088 H 
ENDROOT
BRANCH   1   3
ATOM      3  OAD DSK d          -2.202 -19.790 -23.372  0.00  0.00    -0.392 OA
ATOM      4  H4  DSK d          -2.212 -20.677 -23.710  0.00  0.00     0.210 HD
ENDBRANCH   1   3
BRANCH   1   5
ATOM      5  CAL DSK d          -3.023 -18.279 -21.612  0.00  0.00    -0.005 C 
ATOM      6  H14 DSK d          -3.954 -18.170 -21.037  0.00  0.00     0.051 H 
ATOM      7  H15 DSK d          -3.034 -17.583 -22.463  0.00  0.00     0.051 H 
BRANCH   5   8
ATOM      8  SAV DSK d          -1.620 -17.877 -20.541  0.00  0.00    -0.206 SA
ATOM      9  CAM DSK d          -2.159 -17.588 -18.806  0.00  0.00    -0.005 C 
ATOM     10  CAP DSK d          -2.609 -16.114 -18.878  0.00  0.00     0.069 C 
ATOM     11  H16 DSK d          -2.991 -18.251 -18.526  0.00  0.00     0.051 H 
ATOM     12  H17 DSK d          -1.329 -17.723 -18.097  0.00  0.00     0.051 H 
ATOM     13  CAT DSK d          -1.418 -15.408 -19.582  0.00  0.00     0.074 C 
ATOM     14  H20 DSK d          -3.534 -16.020 -19.466  0.00  0.00     0.088 H 
ATOM     15  CAU DSK d          -1.280 -16.123 -20.957  0.00  0.00     0.030 C 
ATOM     16  H24 DSK d          -0.489 -15.484 -18.998  0.00  0.00     0.088 H 
ATOM     17  H25 DSK d          -2.078 -15.759 -21.622  0.00  0.00     0.062 H 
BRANCH  10  18
ATOM     18  OAE DSK d          -2.807 -15.523 -17.558  0.00  0.00    -0.392 OA
ATOM     19  H5  DSK d          -2.280 -14.737 -17.482  0.00  0.00     0.210 HD
ENDBRANCH  10  18
BRANCH  13  20
ATOM     20  OAI DSK d          -1.797 -14.039 -19.766  0.00  0.00    -0.392 OA
ATOM     21  H9  DSK d          -1.042 -13.538 -20.054  0.00  0.00     0.210 HD
ENDBRANCH  13  20
BRANCH  15  22
ATOM     22  CAK DSK d           0.057 -15.868 -21.706  0.00  0.00     0.030 C 
ATOM     23  H12 DSK d           0.433 -14.875 -21.417  0.00  0.00     0.075 H 
ATOM     24  H13 DSK d           0.780 -16.638 -21.396  0.00  0.00     0.075 H 
BRANCH  22  25
ATOM     25  OAB DSK d          -0.061 -15.909 -23.131  0.00  0.00    -0.400 OA
ATOM     26  H2  DSK d           0.761 -16.202 -23.508  0.00  0.00     0.209 HD
ENDBRANCH  22  25
ENDBRANCH  15  22
ENDBRANCH   5   8
ENDBRANCH   1   5
BRANCH   1  27
ATOM     27  CAR DSK d          -2.298 -20.708 -21.156  0.00  0.00     0.088 C 
ATOM     28  H22 DSK d          -1.374 -20.288 -20.731  0.00  0.00     0.091 H 
BRANCH  27  29
ATOM     29  OAG DSK d          -3.298 -20.937 -20.148  0.00  0.00    -0.390 OA
ATOM     30  H7  DSK d          -3.348 -20.180 -19.575  0.00  0.00     0.210 HD
ENDBRANCH  27  29
BRANCH  27  31
ATOM     31  CAS DSK d          -2.030 -22.080 -21.817  0.00  0.00     0.090 C 
ATOM     32  H23 DSK d          -1.089 -22.479 -21.409  0.00  0.00     0.091 H 
BRANCH  31  33
ATOM     33  OAH DSK d          -1.891 -21.928 -23.229  0.00  0.00    -0.390 OA
ATOM     34  H8  DSK d          -2.666 -22.267 -23.660  0.00  0.00     0.210 HD
ENDBRANCH  31  33
BRANCH  31  35
ATOM     35  CAQ DSK d          -3.143 -23.086 -21.536  0.00  0.00     0.089 C 
ATOM     36  H21 DSK d          -3.821 -22.685 -20.768  0.00  0.00     0.091 H 
BRANCH  35  37
ATOM     37  OAF DSK d          -2.537 -24.299 -21.077  0.00  0.00    -0.390 OA
ATOM     38  H6  DSK d          -2.821 -24.478 -20.188  0.00  0.00     0.210 HD
ENDBRANCH  35  37
BRANCH  35  39
ATOM     39  CAN DSK d          -3.940 -23.398 -22.821  0.00  0.00     0.083 C 
ATOM     40  H18 DSK d          -3.486 -22.869 -23.672  0.00  0.00     0.090 H 
BRANCH  39  41
ATOM     41  OAC DSK d          -3.901 -24.812 -23.063  0.00  0.00    -0.391 OA
ATOM     42  H3  DSK d          -4.760 -25.110 -23.337  0.00  0.00     0.210 HD
ENDBRANCH  39  41
BRANCH  39  43
ATOM     43  CAJ DSK d          -5.393 -22.933 -22.655  0.00  0.00     0.043 C 
ATOM     44  H10 DSK d          -6.075 -23.681 -23.086  0.00  0.00     0.078 H 
ATOM     45  H11 DSK d          -5.621 -22.799 -21.587  0.00  0.00     0.078 H 
BRANCH  43  46
ATOM     46  OAA DSK d          -5.542 -21.698 -23.336  0.00  0.00    -0.398 OA
ATOM     47  H1  DSK d          -6.191 -21.168 -22.889  0.00  0.00     0.209 HD
ENDBRANCH  43  46
ENDBRANCH  39  43
ENDBRANCH  35  39
ENDBRANCH  31  35
ENDBRANCH  27  31
ENDBRANCH   1  27
TORSDOF 17
ENDMDL
MODEL 10
REMARK VINA RESULT:      -4.2      4.284      5.828
REMARK  17 active torsions:
REMARK  status: ('A' for Active; 'I' for Inactive)
REMARK    1  A    between atoms: CAJ_10  and  OAA_1 
REMARK    2  A    between atoms: CAK_11  and  OAB_2 
REMARK    3  A    between atoms: CAN_14  and  OAC_3 
REMARK    4  A    between atoms: CAO_15  and  OAD_4 
REMARK    5  A    between atoms: CAP_16  and  OAE_5 
REMARK    6  A    between atoms: CAQ_17  and  OAF_6 
REMARK    7  A    between atoms: CAR_18  and  OAG_7 
REMARK    8  A    between atoms: CAS_19  and  OAH_8 
REMARK    9  A    between atoms: CAT_20  and  OAI_9 
REMARK   10  A    between atoms: CAN_14  and  CAJ_10 
REMARK   11  A    between atoms: CAU_21  and  CAK_11 
REMARK   12  A    between atoms: CAL_12  and  CAO_15 
REMARK   13  A    between atoms: SAV_22  and  CAL_12 
REMARK   14  A    between atoms: CAQ_17  and  CAN_14 
REMARK   15  A    between atoms: CAO_15  and  CAR_18 
REMARK   16  A    between atoms: CAS_19  and  CAQ_17 
REMARK   17  A    between atoms: CAR_18  and  CAS_19 
ROOT
ATOM      1  CAO DSK d          -0.091 -23.311 -22.314  0.00  0.00     0.070 C 
ATOM      2  H19 DSK d           0.229 -22.259 -22.364  0.00  0.00     0.088 H 
ENDROOT
BRANCH   1   3
ATOM      3  OAD DSK d           1.062 -24.131 -22.437  0.00  0.00    -0.392 OA
ATOM      4  H4  DSK d           1.790 -23.608 -22.749  0.00  0.00     0.210 HD
ENDBRANCH   1   3
BRANCH   1   5
ATOM      5  CAL DSK d          -0.789 -23.522 -20.935  0.00  0.00    -0.005 C 
ATOM      6  H14 DSK d          -0.048 -23.895 -20.213  0.00  0.00     0.051 H 
ATOM      7  H15 DSK d          -1.593 -24.264 -21.051  0.00  0.00     0.051 H 
BRANCH   5   8
ATOM      8  SAV DSK d          -1.499 -21.980 -20.306  0.00  0.00    -0.206 SA
ATOM      9  CAM DSK d          -2.307 -22.229 -18.672  0.00  0.00    -0.005 C 
ATOM     10  CAP DSK d          -3.688 -22.764 -19.104  0.00  0.00     0.069 C 
ATOM     11  H16 DSK d          -1.763 -22.964 -18.060  0.00  0.00     0.051 H 
ATOM     12  H17 DSK d          -2.395 -21.284 -18.117  0.00  0.00     0.051 H 
ATOM     13  CAT DSK d          -4.142 -21.750 -20.190  0.00  0.00     0.074 C 
ATOM     14  H20 DSK d          -3.599 -23.780 -19.517  0.00  0.00     0.088 H 
ATOM     15  CAU DSK d          -3.040 -21.812 -21.286  0.00  0.00     0.030 C 
ATOM     16  H24 DSK d          -4.248 -20.732 -19.787  0.00  0.00     0.088 H 
ATOM     17  H25 DSK d          -3.183 -22.730 -21.875  0.00  0.00     0.062 H 
BRANCH  10  18
ATOM     18  OAE DSK d          -4.656 -22.765 -18.011  0.00  0.00    -0.392 OA
ATOM     19  H5  DSK d          -4.916 -21.872 -17.819  0.00  0.00     0.210 HD
ENDBRANCH  10  18
BRANCH  13  20
ATOM     20  OAI DSK d          -5.390 -22.229 -20.708  0.00  0.00    -0.392 OA
ATOM     21  H9  DSK d          -6.081 -21.615 -20.485  0.00  0.00     0.210 HD
ENDBRANCH  13  20
BRANCH  15  22
ATOM     22  CAK DSK d          -3.051 -20.638 -22.304  0.00  0.00     0.030 C 
ATOM     23  H12 DSK d          -2.661 -19.740 -21.802  0.00  0.00     0.075 H 
ATOM     24  H13 DSK d          -2.393 -20.903 -23.145  0.00  0.00     0.075 H 
BRANCH  22  25
ATOM     25  OAB DSK d          -4.349 -20.335 -22.825  0.00  0.00    -0.400 OA
ATOM     26  H2  DSK d          -4.892 -19.977 -22.133  0.00  0.00     0.209 HD
ENDBRANCH  22  25
ENDBRANCH  15  22
ENDBRANCH   5   8
ENDBRANCH   1   5
BRANCH   1  27
ATOM     27  CAR DSK d          -1.017 -23.573 -23.499  0.00  0.00     0.088 C 
ATOM     28  H22 DSK d          -1.638 -22.691 -23.718  0.00  0.00     0.091 H 
BRANCH  27  29
ATOM     29  OAG DSK d          -0.156 -23.910 -24.600  0.00  0.00    -0.390 OA
ATOM     30  H7  DSK d          -0.674 -24.283 -25.303  0.00  0.00     0.210 HD
ENDBRANCH  27  29
BRANCH  27  31
ATOM     31  CAS DSK d          -1.898 -24.819 -23.242  0.00  0.00     0.090 C 
ATOM     32  H23 DSK d          -2.325 -24.734 -22.232  0.00  0.00     0.091 H 
BRANCH  31  33
ATOM     33  OAH DSK d          -1.107 -26.004 -23.310  0.00  0.00    -0.390 OA
ATOM     34  H8  DSK d          -1.612 -26.739 -22.986  0.00  0.00     0.210 HD
ENDBRANCH  31  33
BRANCH  31  35
ATOM     35  CAQ DSK d          -3.045 -24.933 -24.243  0.00  0.00     0.089 C 
ATOM     36  H21 DSK d          -2.886 -25.804 -24.894  0.00  0.00     0.091 H 
BRANCH  35  37
ATOM     37  OAF DSK d          -3.073 -23.731 -25.022  0.00  0.00    -0.390 OA
ATOM     38  H6  DSK d          -2.257 -23.646 -25.501  0.00  0.00     0.210 HD
ENDBRANCH  35  37
BRANCH  35  39
ATOM     39  CAN DSK d          -4.400 -25.070 -23.514  0.00  0.00     0.083 C 
ATOM     40  H18 DSK d          -4.721 -26.122 -23.532  0.00  0.00     0.090 H 
BRANCH  39  41
ATOM     41  OAC DSK d          -4.241 -24.643 -22.153  0.00  0.00    -0.391 OA
ATOM     42  H3  DSK d          -4.518 -25.339 -21.569  0.00  0.00     0.210 HD
ENDBRANCH  39  41
BRANCH  39  43
ATOM     43  CAJ DSK d          -5.456 -24.208 -24.217  0.00  0.00     0.043 C 
ATOM     44  H10 DSK d          -5.234 -24.152 -25.294  0.00  0.00     0.078 H 
ATOM     45  H11 DSK d          -6.454 -24.647 -24.070  0.00  0.00     0.078 H 
BRANCH  43  46
ATOM     46  OAA DSK d          -5.415 -22.909 -23.651  0.00  0.00    -0.398 OA
ATOM     47  H1  DSK d          -4.669 -22.843 -23.066  0.00  0.00     0.209 HD
ENDBRANCH  43  46
ENDBRANCH  39  43
ENDBRANCH  35  39
ENDBRANCH  31  35
ENDBRANCH  27  31
ENDBRANCH   1  27
TORSDOF 17
ENDMDL
