MODEL 1
REMARK VINA RESULT:      -9.0      0.000      0.000
REMARK  2 active torsions:
REMARK  status: ('A' for Active; 'I' for Inactive)
REMARK    1  A    between atoms: C3_3  and  O3_20 
REMARK    2  A    between atoms: C5_5  and  O4_21 
ROOT
ATOM      1  C1  M1S d          55.440  75.889  -5.752  0.00  0.00     0.296 C 
ATOM      2  C2  M1S d          55.523  76.648  -4.460  0.00  0.00     0.081 A 
ATOM      3  C3  M1S d          54.641  77.726  -4.264  0.00  0.00     0.085 A 
ATOM      4  C4  M1S d          54.679  78.501  -3.114  0.00  0.00    -0.016 A 
ATOM      5  C5  M1S d          55.643  78.173  -2.156  0.00  0.00     0.090 A 
ATOM      6  C6  M1S d          56.481  77.114  -2.370  0.00  0.00     0.075 A 
ATOM      7  C7  M1S d          56.479  76.318  -3.504  0.00  0.00    -0.008 A 
ATOM      8  C8  M1S d          57.464  75.148  -3.640  0.00  0.00     0.017 C 
ATOM      9  C9  M1S d          58.754  75.473  -4.335  0.00  0.00     0.131 C 
ATOM     10  C10 M1S d          59.247  76.884  -4.486  0.00  0.00    -0.009 C 
ATOM     11  C11 M1S d          60.592  76.913  -5.220  0.00  0.00    -0.059 C 
ATOM     12  C12 M1S d          61.043  78.335  -5.511  0.00  0.00    -0.064 C 
ATOM     13  C13 M1S d          60.084  79.083  -6.437  0.00  0.00    -0.062 C 
ATOM     14  C14 M1S d          60.062  78.451  -7.827  0.00  0.00    -0.050 C 
ATOM     15  C15 M1S d          58.707  77.832  -8.091  0.00  0.00    -0.106 C 
ATOM     16  C16 M1S d          58.602  76.526  -8.329  0.00  0.00    -0.105 C 
ATOM     17  C17 M1S d          57.253  75.904  -8.608  0.00  0.00    -0.030 C 
ATOM     18  C18 M1S d          56.768  74.917  -7.552  0.00  0.00     0.032 C 
ATOM     19  O2  M1S d          54.420  75.614  -6.347  0.00  0.00    -0.259 OA
ATOM     20 CL1  M1S d          57.613  76.715  -1.069  0.00  0.00    -0.081 Cl
ATOM     21  O5  M1S d          59.405  74.503  -4.730  0.00  0.00    -0.298 OA
ATOM     22  O1  M1S d          56.720  75.608  -6.276  0.00  0.00    -0.317 OA
ATOM     23  H1  M1S d          53.992  79.326  -2.965  0.00  0.00     0.092 H 
ATOM     24  H2  M1S d          56.966  74.348  -4.206  0.00  0.00     0.051 H 
ATOM     25  H3  M1S d          57.704  74.787  -2.630  0.00  0.00     0.051 H 
ATOM     26  H4  M1S d          59.370  77.332  -3.489  0.00  0.00     0.044 H 
ATOM     27  H5  M1S d          58.510  77.465  -5.059  0.00  0.00     0.044 H 
ATOM     28  H6  M1S d          60.491  76.369  -6.172  0.00  0.00     0.033 H 
ATOM     29  H7  M1S d          61.350  76.419  -4.595  0.00  0.00     0.033 H 
ATOM     30  H8  M1S d          62.034  78.299  -5.988  0.00  0.00     0.033 H 
ATOM     31  H9  M1S d          61.113  78.884  -4.560  0.00  0.00     0.033 H 
ATOM     32  H10 M1S d          60.410  80.130  -6.522  0.00  0.00     0.033 H 
ATOM     33  H11 M1S d          59.071  79.048  -6.009  0.00  0.00     0.033 H 
ATOM     34  H12 M1S d          60.836  77.672  -7.886  0.00  0.00     0.038 H 
ATOM     35  H13 M1S d          60.263  79.225  -8.583  0.00  0.00     0.038 H 
ATOM     36  H14 M1S d          57.815  78.456  -8.086  0.00  0.00     0.076 H 
ATOM     37  H15 M1S d          59.494  75.902  -8.321  0.00  0.00     0.076 H 
ATOM     38  H16 M1S d          57.315  75.373  -9.569  0.00  0.00     0.042 H 
ATOM     39  H17 M1S d          56.513  76.715  -8.684  0.00  0.00     0.042 H 
ATOM     40  H18 M1S d          57.464  74.067  -7.489  0.00  0.00     0.075 H 
ATOM     41  H19 M1S d          55.765  74.551  -7.816  0.00  0.00     0.075 H 
ENDROOT
BRANCH   3  42
ATOM     42  O3  M1S d          53.676  78.018  -5.213  0.00  0.00    -0.360 OA
ATOM     43  H20 M1S d          53.495  78.951  -5.202  0.00  0.00     0.217 HD
ENDBRANCH   3  42
BRANCH   5  44
ATOM     44  O4  M1S d          55.762  78.933  -1.019  0.00  0.00    -0.359 OA
ATOM     45  H21 M1S d          56.647  78.856  -0.679  0.00  0.00     0.217 HD
ENDBRANCH   5  44
TORSDOF 2
ENDMDL
MODEL 2
REMARK VINA RESULT:      -6.9      1.455      1.968
REMARK  2 active torsions:
REMARK  status: ('A' for Active; 'I' for Inactive)
REMARK    1  A    between atoms: C3_3  and  O3_20 
REMARK    2  A    between atoms: C5_5  and  O4_21 
ROOT
ATOM      1  C1  M1S d          57.492  74.611  -6.320  0.00  0.00     0.296 C 
ATOM      2  C2  M1S d          56.819  75.396  -5.233  0.00  0.00     0.081 A 
ATOM      3  C3  M1S d          55.594  76.021  -5.524  0.00  0.00     0.085 A 
ATOM      4  C4  M1S d          54.928  76.797  -4.585  0.00  0.00    -0.016 A 
ATOM      5  C5  M1S d          55.533  76.941  -3.334  0.00  0.00     0.090 A 
ATOM      6  C6  M1S d          56.720  76.314  -3.076  0.00  0.00     0.075 A 
ATOM      7  C7  M1S d          57.419  75.536  -3.985  0.00  0.00    -0.008 A 
ATOM      8  C8  M1S d          58.746  74.873  -3.589  0.00  0.00     0.017 C 
ATOM      9  C9  M1S d          59.980  75.669  -3.901  0.00  0.00     0.131 C 
ATOM     10  C10 M1S d          59.933  77.149  -4.155  0.00  0.00    -0.009 C 
ATOM     11  C11 M1S d          61.338  77.697  -4.431  0.00  0.00    -0.059 C 
ATOM     12  C12 M1S d          61.301  79.163  -4.831  0.00  0.00    -0.064 C 
ATOM     13  C13 M1S d          60.532  79.403  -6.130  0.00  0.00    -0.062 C 
ATOM     14  C14 M1S d          61.245  78.754  -7.315  0.00  0.00    -0.050 C 
ATOM     15  C15 M1S d          60.408  77.619  -7.862  0.00  0.00    -0.106 C 
ATOM     16  C16 M1S d          60.887  76.377  -7.870  0.00  0.00    -0.105 C 
ATOM     17  C17 M1S d          60.061  75.241  -8.430  0.00  0.00    -0.030 C 
ATOM     18  C18 M1S d          59.635  74.192  -7.408  0.00  0.00     0.032 C 
ATOM     19  O2  M1S d          56.932  73.912  -7.137  0.00  0.00    -0.259 OA
ATOM     20 CL1  M1S d          57.373  76.480  -1.439  0.00  0.00    -0.081 Cl
ATOM     21  O5  M1S d          61.039  75.037  -3.886  0.00  0.00    -0.298 OA
ATOM     22  O1  M1S d          58.880  74.861  -6.363  0.00  0.00    -0.317 OA
ATOM     23  H1  M1S d          53.979  77.270  -4.812  0.00  0.00     0.092 H 
ATOM     24  H2  M1S d          58.819  73.913  -4.120  0.00  0.00     0.051 H 
ATOM     25  H3  M1S d          58.725  74.691  -2.504  0.00  0.00     0.051 H 
ATOM     26  H4  M1S d          59.516  77.653  -3.271  0.00  0.00     0.044 H 
ATOM     27  H5  M1S d          59.291  77.346  -5.026  0.00  0.00     0.044 H 
ATOM     28  H6  M1S d          61.793  77.116  -5.248  0.00  0.00     0.033 H 
ATOM     29  H7  M1S d          61.947  77.590  -3.522  0.00  0.00     0.033 H 
ATOM     30  H8  M1S d          62.333  79.517  -4.964  0.00  0.00     0.033 H 
ATOM     31  H9  M1S d          60.817  79.735  -4.026  0.00  0.00     0.033 H 
ATOM     32  H10 M1S d          60.453  80.486  -6.307  0.00  0.00     0.033 H 
ATOM     33  H11 M1S d          59.524  78.972  -6.037  0.00  0.00     0.033 H 
ATOM     34  H12 M1S d          62.218  78.363  -6.986  0.00  0.00     0.038 H 
ATOM     35  H13 M1S d          61.400  79.506  -8.103  0.00  0.00     0.038 H 
ATOM     36  H14 M1S d          59.410  77.818  -8.249  0.00  0.00     0.076 H 
ATOM     37  H15 M1S d          61.880  76.178  -7.472  0.00  0.00     0.076 H 
ATOM     38  H16 M1S d          60.655  74.738  -9.207  0.00  0.00     0.042 H 
ATOM     39  H17 M1S d          59.153  75.668  -8.880  0.00  0.00     0.042 H 
ATOM     40  H18 M1S d          60.523  73.710  -6.976  0.00  0.00     0.075 H 
ATOM     41  H19 M1S d          59.005  73.432  -7.894  0.00  0.00     0.075 H 
ENDROOT
BRANCH   3  42
ATOM     42  O3  M1S d          54.998  75.845  -6.760  0.00  0.00    -0.360 OA
ATOM     43  H20 M1S d          54.366  75.137  -6.709  0.00  0.00     0.217 HD
ENDBRANCH   3  42
BRANCH   5  44
ATOM     44  O4  M1S d          54.947  77.735  -2.378  0.00  0.00    -0.359 OA
ATOM     45  H21 M1S d          55.591  77.962  -1.718  0.00  0.00     0.217 HD
ENDBRANCH   5  44
TORSDOF 2
ENDMDL
MODEL 3
REMARK VINA RESULT:      -6.9      2.543      5.325
REMARK  2 active torsions:
REMARK  status: ('A' for Active; 'I' for Inactive)
REMARK    1  A    between atoms: C3_3  and  O3_20 
REMARK    2  A    between atoms: C5_5  and  O4_21 
ROOT
ATOM      1  C1  M1S d          55.760  76.847  -5.733  0.00  0.00     0.296 C 
ATOM      2  C2  M1S d          56.509  76.115  -6.808  0.00  0.00     0.081 A 
ATOM      3  C3  M1S d          56.020  74.864  -7.225  0.00  0.00     0.085 A 
ATOM      4  C4  M1S d          56.676  74.107  -8.186  0.00  0.00    -0.016 A 
ATOM      5  C5  M1S d          57.854  74.636  -8.719  0.00  0.00     0.090 A 
ATOM      6  C6  M1S d          58.301  75.859  -8.300  0.00  0.00     0.075 A 
ATOM      7  C7  M1S d          57.680  76.644  -7.342  0.00  0.00    -0.008 A 
ATOM      8  C8  M1S d          58.266  78.007  -6.948  0.00  0.00     0.017 C 
ATOM      9  C9  M1S d          59.203  77.989  -5.776  0.00  0.00     0.131 C 
ATOM     10  C10 M1S d          59.870  76.727  -5.306  0.00  0.00    -0.009 C 
ATOM     11  C11 M1S d          60.780  77.010  -4.105  0.00  0.00    -0.059 C 
ATOM     12  C12 M1S d          61.355  75.729  -3.522  0.00  0.00    -0.064 C 
ATOM     13  C13 M1S d          60.278  74.792  -2.976  0.00  0.00    -0.062 C 
ATOM     14  C14 M1S d          59.570  75.415  -1.775  0.00  0.00    -0.050 C 
ATOM     15  C15 M1S d          58.129  75.713  -2.124  0.00  0.00    -0.106 C 
ATOM     16  C16 M1S d          57.674  76.963  -2.076  0.00  0.00    -0.105 C 
ATOM     17  C17 M1S d          56.230  77.267  -2.409  0.00  0.00    -0.030 C 
ATOM     18  C18 M1S d          56.022  78.110  -3.663  0.00  0.00     0.032 C 
ATOM     19  O2  M1S d          54.555  76.889  -5.614  0.00  0.00    -0.259 OA
ATOM     20 CL1  M1S d          59.754  76.492  -9.088  0.00  0.00    -0.081 Cl
ATOM     21  O5  M1S d          59.428  79.085  -5.256  0.00  0.00    -0.298 OA
ATOM     22  O1  M1S d          56.634  77.414  -4.781  0.00  0.00    -0.317 OA
ATOM     23  H1  M1S d          56.291  73.147  -8.510  0.00  0.00     0.092 H 
ATOM     24  H2  M1S d          57.431  78.679  -6.704  0.00  0.00     0.051 H 
ATOM     25  H3  M1S d          58.814  78.405  -7.815  0.00  0.00     0.051 H 
ATOM     26  H4  M1S d          60.472  76.310  -6.126  0.00  0.00     0.044 H 
ATOM     27  H5  M1S d          59.099  76.000  -5.011  0.00  0.00     0.044 H 
ATOM     28  H6  M1S d          60.196  77.525  -3.328  0.00  0.00     0.033 H 
ATOM     29  H7  M1S d          61.608  77.657  -4.431  0.00  0.00     0.033 H 
ATOM     30  H8  M1S d          62.040  75.992  -2.703  0.00  0.00     0.033 H 
ATOM     31  H9  M1S d          61.912  75.202  -4.311  0.00  0.00     0.033 H 
ATOM     32  H10 M1S d          60.747  73.846  -2.667  0.00  0.00     0.033 H 
ATOM     33  H11 M1S d          59.539  74.593  -3.767  0.00  0.00     0.033 H 
ATOM     34  H12 M1S d          60.078  76.349  -1.495  0.00  0.00     0.038 H 
ATOM     35  H13 M1S d          59.602  74.712  -0.928  0.00  0.00     0.038 H 
ATOM     36  H14 M1S d          57.462  74.904  -2.415  0.00  0.00     0.076 H 
ATOM     37  H15 M1S d          58.345  77.773  -1.796  0.00  0.00     0.076 H 
ATOM     38  H16 M1S d          55.790  77.807  -1.558  0.00  0.00     0.042 H 
ATOM     39  H17 M1S d          55.704  76.311  -2.549  0.00  0.00     0.042 H 
ATOM     40  H18 M1S d          56.495  79.094  -3.532  0.00  0.00     0.075 H 
ATOM     41  H19 M1S d          54.946  78.242  -3.849  0.00  0.00     0.075 H 
ENDROOT
BRANCH   3  42
ATOM     42  O3  M1S d          54.837  74.369  -6.705  0.00  0.00    -0.360 OA
ATOM     43  H20 M1S d          54.336  75.081  -6.326  0.00  0.00     0.217 HD
ENDBRANCH   3  42
BRANCH   5  44
ATOM     44  O4  M1S d          58.574  73.914  -9.638  0.00  0.00    -0.359 OA
ATOM     45  H21 M1S d          59.167  74.494 -10.102  0.00  0.00     0.217 HD
ENDBRANCH   5  44
TORSDOF 2
ENDMDL
MODEL 4
REMARK VINA RESULT:      -6.9      2.685      6.079
REMARK  2 active torsions:
REMARK  status: ('A' for Active; 'I' for Inactive)
REMARK    1  A    between atoms: C3_3  and  O3_20 
REMARK    2  A    between atoms: C5_5  and  O4_21 
ROOT
ATOM      1  C1  M1S d          60.306  76.946  -3.291  0.00  0.00     0.296 C 
ATOM      2  C2  M1S d          60.423  77.446  -4.701  0.00  0.00     0.081 A 
ATOM      3  C3  M1S d          60.989  78.716  -4.911  0.00  0.00     0.085 A 
ATOM      4  C4  M1S d          61.098  79.266  -6.181  0.00  0.00    -0.016 A 
ATOM      5  C5  M1S d          60.610  78.507  -7.248  0.00  0.00     0.090 A 
ATOM      6  C6  M1S d          60.072  77.272  -7.014  0.00  0.00     0.075 A 
ATOM      7  C7  M1S d          59.942  76.688  -5.764  0.00  0.00    -0.008 A 
ATOM      8  C8  M1S d          59.325  75.290  -5.614  0.00  0.00     0.017 C 
ATOM      9  C9  M1S d          57.846  75.264  -5.360  0.00  0.00     0.131 C 
ATOM     10  C10 M1S d          56.962  76.439  -5.667  0.00  0.00    -0.009 C 
ATOM     11  C11 M1S d          55.502  76.124  -5.322  0.00  0.00    -0.059 C 
ATOM     12  C12 M1S d          54.609  77.344  -5.489  0.00  0.00    -0.064 C 
ATOM     13  C13 M1S d          54.989  78.488  -4.550  0.00  0.00    -0.062 C 
ATOM     14  C14 M1S d          54.750  78.101  -3.092  0.00  0.00    -0.050 C 
ATOM     15  C15 M1S d          56.071  78.008  -2.361  0.00  0.00    -0.106 C 
ATOM     16  C16 M1S d          56.453  76.857  -1.810  0.00  0.00    -0.105 C 
ATOM     17  C17 M1S d          57.764  76.762  -1.065  0.00  0.00    -0.030 C 
ATOM     18  C18 M1S d          58.806  75.853  -1.709  0.00  0.00     0.032 C 
ATOM     19  O2  M1S d          61.124  77.111  -2.412  0.00  0.00    -0.259 OA
ATOM     20 CL1  M1S d          59.557  76.343  -8.430  0.00  0.00    -0.081 Cl
ATOM     21  O5  M1S d          57.398  74.199  -4.929  0.00  0.00    -0.298 OA
ATOM     22  O1  M1S d          59.056  76.335  -3.055  0.00  0.00    -0.317 OA
ATOM     23  H1  M1S d          61.542  80.242  -6.338  0.00  0.00     0.092 H 
ATOM     24  H2  M1S d          59.823  74.788  -4.772  0.00  0.00     0.051 H 
ATOM     25  H3  M1S d          59.520  74.732  -6.541  0.00  0.00     0.051 H 
ATOM     26  H4  M1S d          57.037  76.676  -6.739  0.00  0.00     0.044 H 
ATOM     27  H5  M1S d          57.294  77.305  -5.076  0.00  0.00     0.044 H 
ATOM     28  H6  M1S d          55.448  75.783  -4.276  0.00  0.00     0.033 H 
ATOM     29  H7  M1S d          55.143  75.325  -5.987  0.00  0.00     0.033 H 
ATOM     30  H8  M1S d          53.570  77.049  -5.282  0.00  0.00     0.033 H 
ATOM     31  H9  M1S d          54.691  77.699  -6.527  0.00  0.00     0.033 H 
ATOM     32  H10 M1S d          54.377  79.370  -4.793  0.00  0.00     0.033 H 
ATOM     33  H11 M1S d          56.053  78.730  -4.689  0.00  0.00     0.033 H 
ATOM     34  H12 M1S d          54.243  77.126  -3.052  0.00  0.00     0.038 H 
ATOM     35  H13 M1S d          54.120  78.863  -2.611  0.00  0.00     0.038 H 
ATOM     36  H14 M1S d          56.712  78.884  -2.284  0.00  0.00     0.076 H 
ATOM     37  H15 M1S d          55.816  75.979  -1.898  0.00  0.00     0.076 H 
ATOM     38  H16 M1S d          57.556  76.380  -0.054  0.00  0.00     0.042 H 
ATOM     39  H17 M1S d          58.191  77.774  -0.994  0.00  0.00     0.042 H 
ATOM     40  H18 M1S d          58.427  74.821  -1.747  0.00  0.00     0.075 H 
ATOM     41  H19 M1S d          59.737  75.880  -1.124  0.00  0.00     0.075 H 
ENDROOT
BRANCH   3  42
ATOM     42  O3  M1S d          61.491  79.442  -3.845  0.00  0.00    -0.360 OA
ATOM     43  H20 M1S d          61.114  79.115  -3.036  0.00  0.00     0.217 HD
ENDBRANCH   3  42
BRANCH   5  44
ATOM     44  O4  M1S d          60.645  79.017  -8.522  0.00  0.00    -0.359 OA
ATOM     45  H21 M1S d          61.546  79.061  -8.820  0.00  0.00     0.217 HD
ENDBRANCH   5  44
TORSDOF 2
ENDMDL
