MODEL 1
REMARK VINA RESULT:      -9.7      0.000      0.000
REMARK  11 active torsions:
REMARK  status: ('A' for Active; 'I' for Inactive)
REMARK    1  A    between atoms: N10_10  and  C1_1 
REMARK    2  A    between atoms: C2_2  and  O3_3 
REMARK    3  A    between atoms: C4_4  and  O5_5 
REMARK    4  A    between atoms: C6_6  and  C14_14 
REMARK    5  A    between atoms: C35_35  and  C7_7 
REMARK    6  A    between atoms: C15_15  and  C16_16 
REMARK    7  A    between atoms: C16_16  and  N17_17 
REMARK       I    between atoms: N17_17  and  C18_18 
REMARK    8  A    between atoms: C18_18  and  C20_20 
REMARK    9  A    between atoms: C22_22  and  C24_24 
REMARK   10  A    between atoms: C31_31  and  O32_32 
REMARK   11  A    between atoms: C33_33  and  O34_34 
ROOT
ATOM      1  C14 MOL d          -3.309  18.107  14.268  0.00  0.00    -0.075 C 
ATOM      2  C15 MOL d          -2.504  17.265  13.673  0.00  0.00    -0.087 C 
ATOM      3  H11 MOL d          -4.293  17.790  14.611  0.00  0.00     0.080 H 
ATOM      4  H12 MOL d          -1.510  17.596  13.375  0.00  0.00     0.079 H 
ENDROOT
BRANCH   2   5
ATOM      5  C16 MOL d          -2.916  15.871  13.398  0.00  0.00     0.010 C 
ATOM      6  H13 MOL d          -2.310  15.423  12.597  0.00  0.00     0.070 H 
ATOM      7  H14 MOL d          -3.982  15.813  13.128  0.00  0.00     0.070 H 
BRANCH   5   8
ATOM      8  N17 MOL d          -2.657  15.229  14.686  0.00  0.00    -0.353 N 
ATOM      9  C18 MOL d          -2.873  13.879  14.681  0.00  0.00     0.254 C 
ATOM     10  O19 MOL d          -3.329  13.319  13.680  0.00  0.00    -0.268 OA
ATOM     11  H15 MOL d          -2.352  15.730  15.495  0.00  0.00     0.163 HD
BRANCH   9  12
ATOM     12  C20 MOL d          -2.723  13.175  15.956  0.00  0.00     0.068 A 
ATOM     13  C21 MOL d          -1.675  12.241  16.056  0.00  0.00    -0.054 A 
ATOM     14  C22 MOL d          -1.442  11.556  17.249  0.00  0.00    -0.022 A 
ATOM     15  H16 MOL d          -1.042  12.051  15.196  0.00  0.00     0.086 H 
ATOM     16  C23 MOL d          -2.247  11.757  18.387  0.00  0.00    -0.037 A 
ATOM     17  C33 MOL d          -3.283  12.690  18.257  0.00  0.00     0.100 A 
ATOM     18  H17 MOL d          -2.075  11.219  19.312  0.00  0.00     0.089 H 
ATOM     19  C31 MOL d          -3.491  13.426  17.091  0.00  0.00     0.114 A 
BRANCH  14  20
ATOM     20  C24 MOL d          -0.317  10.572  17.275  0.00  0.00    -0.026 A 
ATOM     21  C25 MOL d           0.486  10.468  16.158  0.00  0.00    -0.069 A 
ATOM     22  C26 MOL d           1.511   9.527  16.204  0.00  0.00    -0.045 A 
ATOM     23  H18 MOL d           0.327  11.091  15.285  0.00  0.00     0.085 H 
ATOM     24  C29 MOL d           1.645   8.791  17.380  0.00  0.00     0.116 A 
ATOM     25  H19 MOL d           2.175   9.374  15.362  0.00  0.00     0.088 H 
ATOM     26  C28 MOL d           0.836   8.855  18.485  0.00  0.00    -0.045 A 
ATOM     27  F30 MOL d           2.629   7.808  17.507  0.00  0.00    -0.206 F 
ATOM     28  C27 MOL d          -0.172   9.827  18.425  0.00  0.00    -0.069 A 
ATOM     29  H21 MOL d           0.966   8.203  19.341  0.00  0.00     0.088 H 
ATOM     30  H20 MOL d          -0.829   9.990  19.271  0.00  0.00     0.085 H 
ENDBRANCH  14  20
BRANCH  17  31
ATOM     31  O34 MOL d          -4.095  12.905  19.376  0.00  0.00    -0.358 OA
ATOM     32  H23 MOL d          -5.005  12.929  19.104  0.00  0.00     0.217 HD
ENDBRANCH  17  31
BRANCH  19  33
ATOM     33  O32 MOL d          -4.544  14.285  17.089  0.00  0.00    -0.357 OA
ATOM     34  H22 MOL d          -5.355  13.789  17.066  0.00  0.00     0.217 HD
ENDBRANCH  19  33
ENDBRANCH   9  12
ENDBRANCH   5   8
ENDBRANCH   2   5
BRANCH   1  35
ATOM     35  C6  MOL d          -2.846  19.522  14.467  0.00  0.00     0.084 C 
ATOM     36  C4  MOL d          -3.481  20.026  15.753  0.00  0.00     0.092 C 
ATOM     37  C2  MOL d          -4.816  20.506  15.179  0.00  0.00     0.105 C 
ATOM     38  H4  MOL d          -3.605  19.254  16.527  0.00  0.00     0.091 H 
ATOM     39  C1  MOL d          -4.380  21.148  13.853  0.00  0.00     0.140 C 
ATOM     40  H2  MOL d          -5.503  19.662  15.021  0.00  0.00     0.093 H 
ATOM     41  O13 MOL d          -3.294  20.364  13.351  0.00  0.00    -0.352 OA
ATOM     42  H1  MOL d          -4.051  22.182  14.034  0.00  0.00     0.123 H 
ATOM     43  H6  MOL d          -1.749  19.556  14.542  0.00  0.00     0.093 H 
BRANCH  36  44
ATOM     44  O5  MOL d          -2.654  21.102  16.220  0.00  0.00    -0.390 OA
ATOM     45  H5  MOL d          -2.459  20.972  17.140  0.00  0.00     0.210 HD
ENDBRANCH  36  44
BRANCH  37  46
ATOM     46  O3  MOL d          -5.456  21.506  15.986  0.00  0.00    -0.388 OA
ATOM     47  H3  MOL d          -4.936  22.301  15.974  0.00  0.00     0.210 HD
ENDBRANCH  37  46
BRANCH  39  48
ATOM     48  N10 MOL d          -5.468  21.152  12.857  0.00  0.00    -0.294 N 
ATOM     49  C9  MOL d          -6.301  20.057  12.515  0.00  0.00     0.070 A 
ATOM     50  N8  MOL d          -7.091  20.351  11.534  0.00  0.00    -0.238 NA
ATOM     51  H10 MOL d          -6.278  19.090  13.016  0.00  0.00     0.144 H 
ATOM     52  C12 MOL d          -6.792  21.619  11.167  0.00  0.00     0.128 A 
ATOM     53  C11 MOL d          -5.811  22.162  11.977  0.00  0.00     0.165 A 
ATOM     54  C35 MOL d          -7.356  22.457  10.188  0.00  0.00     0.064 A 
ATOM     55  N40 MOL d          -5.285  23.394  11.858  0.00  0.00    -0.222 NA
ATOM     56  C39 MOL d          -5.848  24.138  10.906  0.00  0.00     0.089 A 
ATOM     57  N38 MOL d          -6.853  23.694  10.081  0.00  0.00    -0.244 NA
ATOM     58  H24 MOL d          -5.493  25.153  10.775  0.00  0.00     0.146 H 
BRANCH  54  59
ATOM     59  C7  MOL d          -8.506  22.045   9.291  0.00  0.00    -0.033 C 
ATOM     60  H7  MOL d          -8.875  22.924   8.741  0.00  0.00     0.035 H 
ATOM     61  H8  MOL d          -9.319  21.630   9.905  0.00  0.00     0.035 H 
ATOM     62  H9  MOL d          -8.160  21.284   8.576  0.00  0.00     0.035 H 
ENDBRANCH  54  59
ENDBRANCH  39  48
ENDBRANCH   1  35
TORSDOF 11
ENDMDL
MODEL 2
REMARK VINA RESULT:      -8.6      2.953      5.026
REMARK  11 active torsions:
REMARK  status: ('A' for Active; 'I' for Inactive)
REMARK    1  A    between atoms: N10_10  and  C1_1 
REMARK    2  A    between atoms: C2_2  and  O3_3 
REMARK    3  A    between atoms: C4_4  and  O5_5 
REMARK    4  A    between atoms: C6_6  and  C14_14 
REMARK    5  A    between atoms: C35_35  and  C7_7 
REMARK    6  A    between atoms: C15_15  and  C16_16 
REMARK    7  A    between atoms: C16_16  and  N17_17 
REMARK       I    between atoms: N17_17  and  C18_18 
REMARK    8  A    between atoms: C18_18  and  C20_20 
REMARK    9  A    between atoms: C22_22  and  C24_24 
REMARK   10  A    between atoms: C31_31  and  O32_32 
REMARK   11  A    between atoms: C33_33  and  O34_34 
ROOT
ATOM      1  C14 MOL d          -5.739  19.362  16.947  0.00  0.00    -0.075 C 
ATOM      2  C15 MOL d          -4.935  18.467  17.461  0.00  0.00    -0.087 C 
ATOM      3  H11 MOL d          -6.818  19.280  17.071  0.00  0.00     0.080 H 
ATOM      4  H12 MOL d          -3.859  18.594  17.357  0.00  0.00     0.079 H 
ENDROOT
BRANCH   2   5
ATOM      5  C16 MOL d          -5.461  17.286  18.181  0.00  0.00     0.010 C 
ATOM      6  H13 MOL d          -6.518  17.421  18.455  0.00  0.00     0.070 H 
ATOM      7  H14 MOL d          -4.872  17.072  19.085  0.00  0.00     0.070 H 
BRANCH   5   8
ATOM      8  N17 MOL d          -5.299  16.235  17.178  0.00  0.00    -0.353 N 
ATOM      9  C18 MOL d          -4.703  15.103  17.659  0.00  0.00     0.254 C 
ATOM     10  O19 MOL d          -4.280  15.060  18.818  0.00  0.00    -0.268 OA
ATOM     11  H15 MOL d          -5.596  16.335  16.228  0.00  0.00     0.163 HD
BRANCH   9  12
ATOM     12  C20 MOL d          -4.422  14.036  16.696  0.00  0.00     0.068 A 
ATOM     13  C21 MOL d          -3.153  13.429  16.760  0.00  0.00    -0.054 A 
ATOM     14  C22 MOL d          -2.821  12.380  15.903  0.00  0.00    -0.022 A 
ATOM     15  H16 MOL d          -2.426  13.781  17.483  0.00  0.00     0.086 H 
ATOM     16  C23 MOL d          -3.727  11.900  14.936  0.00  0.00    -0.037 A 
ATOM     17  C33 MOL d          -4.979  12.524  14.894  0.00  0.00     0.100 A 
ATOM     18  H17 MOL d          -3.468  11.091  14.261  0.00  0.00     0.089 H 
ATOM     19  C31 MOL d          -5.347  13.533  15.784  0.00  0.00     0.114 A 
BRANCH  14  20
ATOM     20  C24 MOL d          -1.452  11.793  16.023  0.00  0.00    -0.026 A 
ATOM     21  C25 MOL d          -0.387  12.513  15.520  0.00  0.00    -0.069 A 
ATOM     22  C26 MOL d           0.872  11.930  15.626  0.00  0.00    -0.045 A 
ATOM     23  H18 MOL d          -0.525  13.486  15.063  0.00  0.00     0.085 H 
ATOM     24  C29 MOL d           0.946  10.685  16.249  0.00  0.00     0.116 A 
ATOM     25  H19 MOL d           1.757  12.423  15.241  0.00  0.00     0.088 H 
ATOM     26  C28 MOL d          -0.103   9.941  16.722  0.00  0.00    -0.045 A 
ATOM     27  F30 MOL d           2.165  10.015  16.378  0.00  0.00    -0.206 F 
ATOM     28  C27 MOL d          -1.357  10.559  16.627  0.00  0.00    -0.069 A 
ATOM     29  H21 MOL d           0.027   8.949  17.139  0.00  0.00     0.088 H 
ATOM     30  H20 MOL d          -2.241  10.072  17.023  0.00  0.00     0.085 H 
ENDBRANCH  14  20
BRANCH  17  31
ATOM     31  O34 MOL d          -5.894  12.063  13.941  0.00  0.00    -0.358 OA
ATOM     32  H23 MOL d          -6.743  12.455  14.105  0.00  0.00     0.217 HD
ENDBRANCH  17  31
BRANCH  19  33
ATOM     33  O32 MOL d          -6.585  14.070  15.623  0.00  0.00    -0.357 OA
ATOM     34  H22 MOL d          -6.924  14.339  16.469  0.00  0.00     0.217 HD
ENDBRANCH  19  33
ENDBRANCH   9  12
ENDBRANCH   5   8
ENDBRANCH   2   5
BRANCH   1  35
ATOM     35  C6  MOL d          -5.139  20.508  16.181  0.00  0.00     0.084 C 
ATOM     36  C4  MOL d          -5.953  20.672  14.908  0.00  0.00     0.092 C 
ATOM     37  C2  MOL d          -5.219  19.654  14.032  0.00  0.00     0.105 C 
ATOM     38  H4  MOL d          -7.022  20.440  15.024  0.00  0.00     0.091 H 
ATOM     39  C1  MOL d          -3.754  19.891  14.428  0.00  0.00     0.140 C 
ATOM     40  H2  MOL d          -5.547  18.630  14.259  0.00  0.00     0.093 H 
ATOM     41  O13 MOL d          -3.748  20.205  15.824  0.00  0.00    -0.352 OA
ATOM     42  H1  MOL d          -3.346  20.732  13.847  0.00  0.00     0.123 H 
ATOM     43  H6  MOL d          -5.177  21.428  16.782  0.00  0.00     0.093 H 
BRANCH  36  44
ATOM     44  O5  MOL d          -5.760  22.026  14.474  0.00  0.00    -0.390 OA
ATOM     45  H5  MOL d          -5.042  22.059  13.854  0.00  0.00     0.210 HD
ENDBRANCH  36  44
BRANCH  37  46
ATOM     46  O3  MOL d          -5.363  19.907  12.626  0.00  0.00    -0.388 OA
ATOM     47  H3  MOL d          -6.063  20.534  12.488  0.00  0.00     0.210 HD
ENDBRANCH  37  46
BRANCH  39  48
ATOM     48  N10 MOL d          -2.920  18.696  14.202  0.00  0.00    -0.294 N 
ATOM     49  C9  MOL d          -3.385  17.373  13.993  0.00  0.00     0.070 A 
ATOM     50  N8  MOL d          -2.405  16.531  13.928  0.00  0.00    -0.238 NA
ATOM     51  H10 MOL d          -4.435  17.099  13.900  0.00  0.00     0.144 H 
ATOM     52  C12 MOL d          -1.273  17.245  14.125  0.00  0.00     0.128 A 
ATOM     53  C11 MOL d          -1.544  18.593  14.273  0.00  0.00     0.165 A 
ATOM     54  C35 MOL d           0.080  16.856  14.123  0.00  0.00     0.064 A 
ATOM     55  N40 MOL d          -0.635  19.559  14.501  0.00  0.00    -0.222 NA
ATOM     56  C39 MOL d           0.628  19.131  14.501  0.00  0.00     0.089 A 
ATOM     57  N38 MOL d           0.991  17.818  14.324  0.00  0.00    -0.244 NA
ATOM     58  H24 MOL d           1.414  19.862  14.649  0.00  0.00     0.146 H 
BRANCH  54  59
ATOM     59  C7  MOL d           0.545  15.436  13.872  0.00  0.00    -0.033 C 
ATOM     60  H7  MOL d           1.586  15.327  14.210  0.00  0.00     0.035 H 
ATOM     61  H8  MOL d           0.484  15.215  12.796  0.00  0.00     0.035 H 
ATOM     62  H9  MOL d          -0.096  14.737  14.428  0.00  0.00     0.035 H 
ENDBRANCH  54  59
ENDBRANCH  39  48
ENDBRANCH   1  35
TORSDOF 11
ENDMDL
MODEL 3
REMARK VINA RESULT:      -8.4      4.945      8.703
REMARK  11 active torsions:
REMARK  status: ('A' for Active; 'I' for Inactive)
REMARK    1  A    between atoms: N10_10  and  C1_1 
REMARK    2  A    between atoms: C2_2  and  O3_3 
REMARK    3  A    between atoms: C4_4  and  O5_5 
REMARK    4  A    between atoms: C6_6  and  C14_14 
REMARK    5  A    between atoms: C35_35  and  C7_7 
REMARK    6  A    between atoms: C15_15  and  C16_16 
REMARK    7  A    between atoms: C16_16  and  N17_17 
REMARK       I    between atoms: N17_17  and  C18_18 
REMARK    8  A    between atoms: C18_18  and  C20_20 
REMARK    9  A    between atoms: C22_22  and  C24_24 
REMARK   10  A    between atoms: C31_31  and  O32_32 
REMARK   11  A    between atoms: C33_33  and  O34_34 
ROOT
ATOM      1  C14 MOL d          -3.159  13.496  16.204  0.00  0.00    -0.075 C 
ATOM      2  C15 MOL d          -2.859  12.612  15.288  0.00  0.00    -0.087 C 
ATOM      3  H11 MOL d          -2.876  14.541  16.085  0.00  0.00     0.080 H 
ATOM      4  H12 MOL d          -3.188  11.581  15.412  0.00  0.00     0.079 H 
ENDROOT
BRANCH   2   5
ATOM      5  C16 MOL d          -2.081  12.985  14.085  0.00  0.00     0.010 C 
ATOM      6  H13 MOL d          -2.601  12.689  13.163  0.00  0.00     0.070 H 
ATOM      7  H14 MOL d          -1.077  12.535  14.101  0.00  0.00     0.070 H 
BRANCH   5   8
ATOM      8  N17 MOL d          -2.016  14.440  14.219  0.00  0.00    -0.353 N 
ATOM      9  C18 MOL d          -0.789  14.964  13.925  0.00  0.00     0.254 C 
ATOM     10  O19 MOL d           0.165  14.224  13.664  0.00  0.00    -0.268 OA
ATOM     11  H15 MOL d          -2.796  14.998  14.498  0.00  0.00     0.163 HD
BRANCH   9  12
ATOM     12  C20 MOL d          -0.615  16.405  14.122  0.00  0.00     0.068 A 
ATOM     13  C21 MOL d          -1.781  17.177  14.287  0.00  0.00    -0.054 A 
ATOM     14  C22 MOL d          -1.699  18.550  14.516  0.00  0.00    -0.022 A 
ATOM     15  H16 MOL d          -2.753  16.699  14.235  0.00  0.00     0.086 H 
ATOM     16  C23 MOL d          -0.460  19.218  14.576  0.00  0.00    -0.037 A 
ATOM     17  C33 MOL d           0.681  18.426  14.406  0.00  0.00     0.100 A 
ATOM     18  H17 MOL d          -0.394  20.288  14.744  0.00  0.00     0.089 H 
ATOM     19  C31 MOL d           0.618  17.042  14.236  0.00  0.00     0.114 A 
BRANCH  14  20
ATOM     20  C24 MOL d          -2.980  19.305  14.670  0.00  0.00    -0.026 A 
ATOM     21  C25 MOL d          -3.119  20.138  15.762  0.00  0.00    -0.069 A 
ATOM     22  C26 MOL d          -4.331  20.810  15.890  0.00  0.00    -0.045 A 
ATOM     23  H18 MOL d          -2.322  20.263  16.486  0.00  0.00     0.085 H 
ATOM     24  C29 MOL d          -5.284  20.598  14.895  0.00  0.00     0.116 A 
ATOM     25  H19 MOL d          -4.526  21.470  16.728  0.00  0.00     0.088 H 
ATOM     26  C28 MOL d          -5.177  19.749  13.824  0.00  0.00    -0.045 A 
ATOM     27  F30 MOL d          -6.537  21.211  14.954  0.00  0.00    -0.206 F 
ATOM     28  C27 MOL d          -3.939  19.103  13.702  0.00  0.00    -0.069 A 
ATOM     29  H21 MOL d          -5.988  19.589  13.123  0.00  0.00     0.088 H 
ATOM     30  H20 MOL d          -3.739  18.454  12.858  0.00  0.00     0.085 H 
ENDBRANCH  14  20
BRANCH  17  31
ATOM     31  O34 MOL d           1.922  19.068  14.462  0.00  0.00    -0.358 OA
ATOM     32  H23 MOL d           2.591  18.441  14.709  0.00  0.00     0.217 HD
ENDBRANCH  17  31
BRANCH  19  33
ATOM     33  O32 MOL d           1.799  16.393  14.061  0.00  0.00    -0.357 OA
ATOM     34  H22 MOL d           2.442  16.738  14.670  0.00  0.00     0.217 HD
ENDBRANCH  19  33
ENDBRANCH   9  12
ENDBRANCH   5   8
ENDBRANCH   2   5
BRANCH   1  35
ATOM     35  C6  MOL d          -3.904  13.036  17.426  0.00  0.00     0.084 C 
ATOM     36  C4  MOL d          -5.150  12.309  16.944  0.00  0.00     0.092 C 
ATOM     37  C2  MOL d          -6.077  13.516  16.788  0.00  0.00     0.105 C 
ATOM     38  H4  MOL d          -5.013  11.755  16.004  0.00  0.00     0.091 H 
ATOM     39  C1  MOL d          -5.713  14.358  18.021  0.00  0.00     0.140 C 
ATOM     40  H2  MOL d          -5.873  14.051  15.849  0.00  0.00     0.093 H 
ATOM     41  O13 MOL d          -4.309  14.190  18.237  0.00  0.00    -0.352 OA
ATOM     42  H1  MOL d          -6.278  13.998  18.894  0.00  0.00     0.123 H 
ATOM     43  H6  MOL d          -3.274  12.363  18.024  0.00  0.00     0.093 H 
BRANCH  36  44
ATOM     44  O5  MOL d          -5.546  11.433  18.009  0.00  0.00    -0.390 OA
ATOM     45  H5  MOL d          -5.012  11.608  18.775  0.00  0.00     0.210 HD
ENDBRANCH  36  44
BRANCH  37  46
ATOM     46  O3  MOL d          -7.470  13.176  16.858  0.00  0.00    -0.388 OA
ATOM     47  H3  MOL d          -7.933  13.843  17.351  0.00  0.00     0.210 HD
ENDBRANCH  37  46
BRANCH  39  48
ATOM     48  N10 MOL d          -5.999  15.791  17.816  0.00  0.00    -0.294 N 
ATOM     49  C9  MOL d          -5.143  16.740  17.201  0.00  0.00     0.070 A 
ATOM     50  N8  MOL d          -5.637  17.933  17.264  0.00  0.00    -0.238 NA
ATOM     51  H10 MOL d          -4.190  16.494  16.734  0.00  0.00     0.144 H 
ATOM     52  C12 MOL d          -6.802  17.831  17.946  0.00  0.00     0.128 A 
ATOM     53  C11 MOL d          -7.077  16.518  18.283  0.00  0.00     0.165 A 
ATOM     54  C35 MOL d          -7.769  18.798  18.277  0.00  0.00     0.064 A 
ATOM     55  N40 MOL d          -8.148  16.091  18.977  0.00  0.00    -0.222 NA
ATOM     56  C39 MOL d          -9.023  17.052  19.275  0.00  0.00     0.089 A 
ATOM     57  N38 MOL d          -8.850  18.374  18.946  0.00  0.00    -0.244 NA
ATOM     58  H24 MOL d          -9.925  16.773  19.807  0.00  0.00     0.146 H 
BRANCH  54  59
ATOM     59  C7  MOL d          -7.665  20.258  17.888  0.00  0.00    -0.033 C 
ATOM     60  H7  MOL d          -6.858  20.735  18.465  0.00  0.00     0.035 H 
ATOM     61  H8  MOL d          -8.617  20.764  18.105  0.00  0.00     0.035 H 
ATOM     62  H9  MOL d          -7.443  20.336  16.814  0.00  0.00     0.035 H 
ENDBRANCH  54  59
ENDBRANCH  39  48
ENDBRANCH   1  35
TORSDOF 11
ENDMDL
MODEL 4
REMARK VINA RESULT:      -8.4      4.852     10.269
REMARK  11 active torsions:
REMARK  status: ('A' for Active; 'I' for Inactive)
REMARK    1  A    between atoms: N10_10  and  C1_1 
REMARK    2  A    between atoms: C2_2  and  O3_3 
REMARK    3  A    between atoms: C4_4  and  O5_5 
REMARK    4  A    between atoms: C6_6  and  C14_14 
REMARK    5  A    between atoms: C35_35  and  C7_7 
REMARK    6  A    between atoms: C15_15  and  C16_16 
REMARK    7  A    between atoms: C16_16  and  N17_17 
REMARK       I    between atoms: N17_17  and  C18_18 
REMARK    8  A    between atoms: C18_18  and  C20_20 
REMARK    9  A    between atoms: C22_22  and  C24_24 
REMARK   10  A    between atoms: C31_31  and  O32_32 
REMARK   11  A    between atoms: C33_33  and  O34_34 
ROOT
ATOM      1  C14 MOL d          -2.703  13.132  14.047  0.00  0.00    -0.075 C 
ATOM      2  C15 MOL d          -2.762  14.330  14.571  0.00  0.00    -0.087 C 
ATOM      3  H11 MOL d          -2.278  12.977  13.056  0.00  0.00     0.080 H 
ATOM      4  H12 MOL d          -3.154  14.453  15.580  0.00  0.00     0.079 H 
ENDROOT
BRANCH   2   5
ATOM      5  C16 MOL d          -2.306  15.520  13.819  0.00  0.00     0.010 C 
ATOM      6  H13 MOL d          -2.181  15.296  12.750  0.00  0.00     0.070 H 
ATOM      7  H14 MOL d          -1.362  15.914  14.224  0.00  0.00     0.070 H 
BRANCH   5   8
ATOM      8  N17 MOL d          -3.412  16.450  14.044  0.00  0.00    -0.353 N 
ATOM      9  C18 MOL d          -3.012  17.742  14.241  0.00  0.00     0.254 C 
ATOM     10  O19 MOL d          -1.813  18.027  14.301  0.00  0.00    -0.268 OA
ATOM     11  H15 MOL d          -4.371  16.167  14.054  0.00  0.00     0.163 HD
BRANCH   9  12
ATOM     12  C20 MOL d          -4.053  18.721  14.563  0.00  0.00     0.068 A 
ATOM     13  C21 MOL d          -4.465  19.585  13.530  0.00  0.00    -0.054 A 
ATOM     14  C22 MOL d          -5.478  20.520  13.746  0.00  0.00    -0.022 A 
ATOM     15  H16 MOL d          -3.990  19.524  12.558  0.00  0.00     0.086 H 
ATOM     16  C23 MOL d          -6.113  20.648  14.997  0.00  0.00    -0.037 A 
ATOM     17  C33 MOL d          -5.681  19.777  16.004  0.00  0.00     0.100 A 
ATOM     18  H17 MOL d          -6.894  21.380  15.170  0.00  0.00     0.089 H 
ATOM     19  C31 MOL d          -4.713  18.797  15.787  0.00  0.00     0.114 A 
BRANCH  14  20
ATOM     20  C24 MOL d          -5.853  21.411  12.606  0.00  0.00    -0.026 A 
ATOM     21  C25 MOL d          -6.778  20.947  11.692  0.00  0.00    -0.069 A 
ATOM     22  C26 MOL d          -7.091  21.790  10.630  0.00  0.00    -0.045 A 
ATOM     23  H18 MOL d          -7.239  19.971  11.797  0.00  0.00     0.085 H 
ATOM     24  C29 MOL d          -6.459  23.031  10.597  0.00  0.00     0.116 A 
ATOM     25  H19 MOL d          -7.795  21.493   9.861  0.00  0.00     0.088 H 
ATOM     26  C28 MOL d          -5.513  23.495  11.475  0.00  0.00    -0.045 A 
ATOM     27  F30 MOL d          -6.693  23.932   9.555  0.00  0.00    -0.206 F 
ATOM     28  C27 MOL d          -5.234  22.640  12.549  0.00  0.00    -0.069 A 
ATOM     29  H21 MOL d          -5.019  24.451  11.348  0.00  0.00     0.088 H 
ATOM     30  H20 MOL d          -4.540  22.941  13.325  0.00  0.00     0.085 H 
ENDBRANCH  14  20
BRANCH  17  31
ATOM     31  O34 MOL d          -6.299  19.886  17.254  0.00  0.00    -0.358 OA
ATOM     32  H23 MOL d          -5.715  19.551  17.924  0.00  0.00     0.217 HD
ENDBRANCH  17  31
BRANCH  19  33
ATOM     33  O32 MOL d          -4.368  18.030  16.855  0.00  0.00    -0.357 OA
ATOM     34  H22 MOL d          -5.155  17.736  17.299  0.00  0.00     0.217 HD
ENDBRANCH  19  33
ENDBRANCH   9  12
ENDBRANCH   5   8
ENDBRANCH   2   5
BRANCH   1  35
ATOM     35  C6  MOL d          -3.233  11.975  14.845  0.00  0.00     0.084 C 
ATOM     36  C4  MOL d          -4.316  11.311  14.008  0.00  0.00     0.092 C 
ATOM     37  C2  MOL d          -5.499  12.188  14.424  0.00  0.00     0.105 C 
ATOM     38  H4  MOL d          -4.127  11.338  12.925  0.00  0.00     0.091 H 
ATOM     39  C1  MOL d          -5.244  12.375  15.927  0.00  0.00     0.140 C 
ATOM     40  H2  MOL d          -5.490  13.145  13.882  0.00  0.00     0.093 H 
ATOM     41  O13 MOL d          -3.826  12.453  16.100  0.00  0.00    -0.352 OA
ATOM     42  H1  MOL d          -5.648  11.514  16.481  0.00  0.00     0.123 H 
ATOM     43  H6  MOL d          -2.425  11.261  15.063  0.00  0.00     0.093 H 
BRANCH  36  44
ATOM     44  O5  MOL d          -4.425   9.961  14.482  0.00  0.00    -0.390 OA
ATOM     45  H5  MOL d          -4.494   9.965  15.430  0.00  0.00     0.210 HD
ENDBRANCH  36  44
BRANCH  37  46
ATOM     46  O3  MOL d          -6.771  11.545  14.249  0.00  0.00    -0.388 OA
ATOM     47  H3  MOL d          -7.147  11.810  13.418  0.00  0.00     0.210 HD
ENDBRANCH  37  46
BRANCH  39  48
ATOM     48  N10 MOL d          -5.858  13.613  16.442  0.00  0.00    -0.294 N 
ATOM     49  C9  MOL d          -5.172  14.764  16.906  0.00  0.00     0.070 A 
ATOM     50  N8  MOL d          -5.990  15.642  17.387  0.00  0.00    -0.238 NA
ATOM     51  H10 MOL d          -4.090  14.892  16.862  0.00  0.00     0.144 H 
ATOM     52  C12 MOL d          -7.228  15.102  17.299  0.00  0.00     0.128 A 
ATOM     53  C11 MOL d          -7.195  13.858  16.695  0.00  0.00     0.165 A 
ATOM     54  C35 MOL d          -8.491  15.621  17.636  0.00  0.00     0.064 A 
ATOM     55  N40 MOL d          -8.256  13.060  16.479  0.00  0.00    -0.222 NA
ATOM     56  C39 MOL d          -9.424  13.598  16.830  0.00  0.00     0.089 A 
ATOM     57  N38 MOL d          -9.554  14.840  17.399  0.00  0.00    -0.244 NA
ATOM     58  H24 MOL d         -10.324  13.020  16.655  0.00  0.00     0.146 H 
BRANCH  54  59
ATOM     59  C7  MOL d          -8.704  17.008  18.209  0.00  0.00    -0.033 C 
ATOM     60  H7  MOL d          -8.448  17.761  17.450  0.00  0.00     0.035 H 
ATOM     61  H8  MOL d          -8.061  17.143  19.091  0.00  0.00     0.035 H 
ATOM     62  H9  MOL d          -9.758  17.125  18.502  0.00  0.00     0.035 H 
ENDBRANCH  54  59
ENDBRANCH  39  48
ENDBRANCH   1  35
TORSDOF 11
ENDMDL
MODEL 5
REMARK VINA RESULT:      -8.3      4.652     11.382
REMARK  11 active torsions:
REMARK  status: ('A' for Active; 'I' for Inactive)
REMARK    1  A    between atoms: N10_10  and  C1_1 
REMARK    2  A    between atoms: C2_2  and  O3_3 
REMARK    3  A    between atoms: C4_4  and  O5_5 
REMARK    4  A    between atoms: C6_6  and  C14_14 
REMARK    5  A    between atoms: C35_35  and  C7_7 
REMARK    6  A    between atoms: C15_15  and  C16_16 
REMARK    7  A    between atoms: C16_16  and  N17_17 
REMARK       I    between atoms: N17_17  and  C18_18 
REMARK    8  A    between atoms: C18_18  and  C20_20 
REMARK    9  A    between atoms: C22_22  and  C24_24 
REMARK   10  A    between atoms: C31_31  and  O32_32 
REMARK   11  A    between atoms: C33_33  and  O34_34 
ROOT
ATOM      1  C14 MOL d          -4.351  13.894  13.624  0.00  0.00    -0.075 C 
ATOM      2  C15 MOL d          -3.171  14.439  13.467  0.00  0.00    -0.087 C 
ATOM      3  H11 MOL d          -4.937  14.083  14.522  0.00  0.00     0.080 H 
ATOM      4  H12 MOL d          -2.623  14.267  12.542  0.00  0.00     0.079 H 
ENDROOT
BRANCH   2   5
ATOM      5  C16 MOL d          -2.569  15.284  14.521  0.00  0.00     0.010 C 
ATOM      6  H13 MOL d          -1.641  15.760  14.173  0.00  0.00     0.070 H 
ATOM      7  H14 MOL d          -2.365  14.704  15.434  0.00  0.00     0.070 H 
BRANCH   5   8
ATOM      8  N17 MOL d          -3.625  16.272  14.743  0.00  0.00    -0.353 N 
ATOM      9  C18 MOL d          -3.235  17.558  14.497  0.00  0.00     0.254 C 
ATOM     10  O19 MOL d          -2.064  17.814  14.202  0.00  0.00    -0.268 OA
ATOM     11  H15 MOL d          -4.545  16.029  15.048  0.00  0.00     0.163 HD
BRANCH   9  12
ATOM     12  C20 MOL d          -4.206  18.616  14.782  0.00  0.00     0.068 A 
ATOM     13  C21 MOL d          -4.570  19.460  13.715  0.00  0.00    -0.054 A 
ATOM     14  C22 MOL d          -5.518  20.468  13.895  0.00  0.00    -0.022 A 
ATOM     15  H16 MOL d          -4.109  19.326  12.743  0.00  0.00     0.086 H 
ATOM     16  C23 MOL d          -6.132  20.691  15.144  0.00  0.00    -0.037 A 
ATOM     17  C33 MOL d          -5.749  19.838  16.185  0.00  0.00     0.100 A 
ATOM     18  H17 MOL d          -6.861  21.480  15.289  0.00  0.00     0.089 H 
ATOM     19  C31 MOL d          -4.849  18.788  16.006  0.00  0.00     0.114 A 
BRANCH  14  20
ATOM     20  C24 MOL d          -5.844  21.331  12.720  0.00  0.00    -0.026 A 
ATOM     21  C25 MOL d          -6.723  20.842  11.775  0.00  0.00    -0.069 A 
ATOM     22  C26 MOL d          -6.990  21.659  10.681  0.00  0.00    -0.045 A 
ATOM     23  H18 MOL d          -7.184  19.866  11.880  0.00  0.00     0.085 H 
ATOM     24  C29 MOL d          -6.364  22.904  10.650  0.00  0.00     0.116 A 
ATOM     25  H19 MOL d          -7.656  21.342   9.887  0.00  0.00     0.088 H 
ATOM     26  C28 MOL d          -5.462  23.392  11.560  0.00  0.00    -0.045 A 
ATOM     27  F30 MOL d          -6.553  23.781   9.579  0.00  0.00    -0.206 F 
ATOM     28  C27 MOL d          -5.229  22.562  12.665  0.00  0.00    -0.069 A 
ATOM     29  H21 MOL d          -4.967  24.348  11.435  0.00  0.00     0.088 H 
ATOM     30  H20 MOL d          -4.573  22.884  13.465  0.00  0.00     0.085 H 
ENDBRANCH  14  20
BRANCH  17  31
ATOM     31  O34 MOL d          -6.347  20.042  17.433  0.00  0.00    -0.358 OA
ATOM     32  H23 MOL d          -7.113  20.594  17.329  0.00  0.00     0.217 HD
ENDBRANCH  17  31
BRANCH  19  33
ATOM     33  O32 MOL d          -4.546  18.047  17.104  0.00  0.00    -0.357 OA
ATOM     34  H22 MOL d          -5.162  18.247  17.799  0.00  0.00     0.217 HD
ENDBRANCH  19  33
ENDBRANCH   9  12
ENDBRANCH   5   8
ENDBRANCH   2   5
BRANCH   1  35
ATOM     35  C6  MOL d          -4.878  13.003  12.535  0.00  0.00     0.084 C 
ATOM     36  C4  MOL d          -6.381  12.886  12.739  0.00  0.00     0.092 C 
ATOM     37  C2  MOL d          -6.389  11.729  13.740  0.00  0.00     0.105 C 
ATOM     38  H4  MOL d          -6.853  13.797  13.137  0.00  0.00     0.091 H 
ATOM     39  C1  MOL d          -5.290  10.814  13.179  0.00  0.00     0.140 C 
ATOM     40  H2  MOL d          -6.152  12.084  14.754  0.00  0.00     0.093 H 
ATOM     41  O13 MOL d          -4.277  11.668  12.638  0.00  0.00    -0.352 OA
ATOM     42  H1  MOL d          -5.711  10.174  12.389  0.00  0.00     0.123 H 
ATOM     43  H6  MOL d          -4.657  13.436  11.549  0.00  0.00     0.093 H 
BRANCH  36  44
ATOM     44  O5  MOL d          -6.936  12.528  11.465  0.00  0.00    -0.390 OA
ATOM     45  H5  MOL d          -7.173  13.317  10.992  0.00  0.00     0.210 HD
ENDBRANCH  36  44
BRANCH  37  46
ATOM     46  O3  MOL d          -7.628  11.004  13.759  0.00  0.00    -0.388 OA
ATOM     47  H3  MOL d          -7.503  10.179  14.213  0.00  0.00     0.210 HD
ENDBRANCH  37  46
BRANCH  39  48
ATOM     48  N10 MOL d          -4.691   9.964  14.225  0.00  0.00    -0.294 N 
ATOM     49  C9  MOL d          -4.911   8.575  14.408  0.00  0.00     0.070 A 
ATOM     50  N8  MOL d          -4.322   8.139  15.474  0.00  0.00    -0.238 NA
ATOM     51  H10 MOL d          -5.502   7.953  13.736  0.00  0.00     0.144 H 
ATOM     52  C12 MOL d          -3.730   9.211  16.051  0.00  0.00     0.128 A 
ATOM     53  C11 MOL d          -3.912  10.356  15.296  0.00  0.00     0.165 A 
ATOM     54  C35 MOL d          -2.929   9.318  17.202  0.00  0.00     0.064 A 
ATOM     55  N40 MOL d          -3.461  11.584  15.609  0.00  0.00    -0.222 NA
ATOM     56  C39 MOL d          -2.720  11.628  16.717  0.00  0.00     0.089 A 
ATOM     57  N38 MOL d          -2.457  10.535  17.505  0.00  0.00    -0.244 NA
ATOM     58  H24 MOL d          -2.300  12.582  17.011  0.00  0.00     0.146 H 
BRANCH  54  59
ATOM     59  C7  MOL d          -2.553   8.139  18.077  0.00  0.00    -0.033 C 
ATOM     60  H7  MOL d          -3.367   7.399  18.065  0.00  0.00     0.035 H 
ATOM     61  H8  MOL d          -2.387   8.486  19.108  0.00  0.00     0.035 H 
ATOM     62  H9  MOL d          -1.632   7.677  17.692  0.00  0.00     0.035 H 
ENDBRANCH  54  59
ENDBRANCH  39  48
ENDBRANCH   1  35
TORSDOF 11
ENDMDL
MODEL 6
REMARK VINA RESULT:      -7.9      4.593     10.483
REMARK  11 active torsions:
REMARK  status: ('A' for Active; 'I' for Inactive)
REMARK    1  A    between atoms: N10_10  and  C1_1 
REMARK    2  A    between atoms: C2_2  and  O3_3 
REMARK    3  A    between atoms: C4_4  and  O5_5 
REMARK    4  A    between atoms: C6_6  and  C14_14 
REMARK    5  A    between atoms: C35_35  and  C7_7 
REMARK    6  A    between atoms: C15_15  and  C16_16 
REMARK    7  A    between atoms: C16_16  and  N17_17 
REMARK       I    between atoms: N17_17  and  C18_18 
REMARK    8  A    between atoms: C18_18  and  C20_20 
REMARK    9  A    between atoms: C22_22  and  C24_24 
REMARK   10  A    between atoms: C31_31  and  O32_32 
REMARK   11  A    between atoms: C33_33  and  O34_34 
ROOT
ATOM      1  C14 MOL d          -2.538  13.028  15.685  0.00  0.00    -0.075 C 
ATOM      2  C15 MOL d          -3.185  14.159  15.566  0.00  0.00    -0.087 C 
ATOM      3  H11 MOL d          -1.695  12.797  15.035  0.00  0.00     0.080 H 
ATOM      4  H12 MOL d          -4.000  14.383  16.254  0.00  0.00     0.079 H 
ENDROOT
BRANCH   2   5
ATOM      5  C16 MOL d          -2.832  15.139  14.516  0.00  0.00     0.010 C 
ATOM      6  H13 MOL d          -2.944  14.709  13.510  0.00  0.00     0.070 H 
ATOM      7  H14 MOL d          -1.804  15.511  14.643  0.00  0.00     0.070 H 
BRANCH   5   8
ATOM      8  N17 MOL d          -3.814  16.195  14.758  0.00  0.00    -0.353 N 
ATOM      9  C18 MOL d          -3.346  17.452  14.496  0.00  0.00     0.254 C 
ATOM     10  O19 MOL d          -2.168  17.629  14.173  0.00  0.00    -0.268 OA
ATOM     11  H15 MOL d          -4.741  16.014  15.085  0.00  0.00     0.163 HD
BRANCH   9  12
ATOM     12  C20 MOL d          -4.238  18.572  14.799  0.00  0.00     0.068 A 
ATOM     13  C21 MOL d          -4.597  19.416  13.730  0.00  0.00    -0.054 A 
ATOM     14  C22 MOL d          -5.473  20.483  13.929  0.00  0.00    -0.022 A 
ATOM     15  H16 MOL d          -4.188  19.235  12.743  0.00  0.00     0.086 H 
ATOM     16  C23 MOL d          -6.018  20.769  15.197  0.00  0.00    -0.037 A 
ATOM     17  C33 MOL d          -5.641  19.915  16.240  0.00  0.00     0.100 A 
ATOM     18  H17 MOL d          -6.691  21.604  15.356  0.00  0.00     0.089 H 
ATOM     19  C31 MOL d          -4.814  18.808  16.045  0.00  0.00     0.114 A 
BRANCH  14  20
ATOM     20  C24 MOL d          -5.799  21.342  12.749  0.00  0.00    -0.026 A 
ATOM     21  C25 MOL d          -6.664  20.842  11.797  0.00  0.00    -0.069 A 
ATOM     22  C26 MOL d          -6.931  21.655  10.700  0.00  0.00    -0.045 A 
ATOM     23  H18 MOL d          -7.115  19.861  11.900  0.00  0.00     0.085 H 
ATOM     24  C29 MOL d          -6.318  22.906  10.673  0.00  0.00     0.116 A 
ATOM     25  H19 MOL d          -7.587  21.329   9.901  0.00  0.00     0.088 H 
ATOM     26  C28 MOL d          -5.429  23.405  11.590  0.00  0.00    -0.045 A 
ATOM     27  F30 MOL d          -6.508  23.780   9.599  0.00  0.00    -0.206 F 
ATOM     28  C27 MOL d          -5.197  22.579  12.698  0.00  0.00    -0.069 A 
ATOM     29  H21 MOL d          -4.944  24.367  11.468  0.00  0.00     0.088 H 
ATOM     30  H20 MOL d          -4.552  22.910  13.503  0.00  0.00     0.085 H 
ENDBRANCH  14  20
BRANCH  17  31
ATOM     31  O34 MOL d          -6.170  20.179  17.508  0.00  0.00    -0.358 OA
ATOM     32  H23 MOL d          -5.924  21.057  17.775  0.00  0.00     0.217 HD
ENDBRANCH  17  31
BRANCH  19  33
ATOM     33  O32 MOL d          -4.508  18.071  17.146  0.00  0.00    -0.357 OA
ATOM     34  H22 MOL d          -5.310  17.763  17.552  0.00  0.00     0.217 HD
ENDBRANCH  19  33
ENDBRANCH   9  12
ENDBRANCH   5   8
ENDBRANCH   2   5
BRANCH   1  35
ATOM     35  C6  MOL d          -2.986  12.054  16.739  0.00  0.00     0.084 C 
ATOM     36  C4  MOL d          -2.661  10.659  16.227  0.00  0.00     0.092 C 
ATOM     37  C2  MOL d          -3.929  10.412  15.408  0.00  0.00     0.105 C 
ATOM     38  H4  MOL d          -1.745  10.604  15.620  0.00  0.00     0.091 H 
ATOM     39  C1  MOL d          -5.015  11.017  16.312  0.00  0.00     0.140 C 
ATOM     40  H2  MOL d          -3.875  10.919  14.434  0.00  0.00     0.093 H 
ATOM     41  O13 MOL d          -4.434  12.161  16.945  0.00  0.00    -0.352 OA
ATOM     42  H1  MOL d          -5.321  10.278  17.067  0.00  0.00     0.123 H 
ATOM     43  H6  MOL d          -2.459  12.249  17.684  0.00  0.00     0.093 H 
BRANCH  36  44
ATOM     44  O5  MOL d          -2.567   9.815  17.384  0.00  0.00    -0.390 OA
ATOM     45  H5  MOL d          -1.655   9.717  17.630  0.00  0.00     0.210 HD
ENDBRANCH  36  44
BRANCH  37  46
ATOM     46  O3  MOL d          -4.217   9.019  15.214  0.00  0.00    -0.388 OA
ATOM     47  H3  MOL d          -3.662   8.676  14.523  0.00  0.00     0.210 HD
ENDBRANCH  37  46
BRANCH  39  48
ATOM     48  N10 MOL d          -6.199  11.445  15.543  0.00  0.00    -0.294 N 
ATOM     49  C9  MOL d          -7.554  11.289  15.930  0.00  0.00     0.070 A 
ATOM     50  N8  MOL d          -8.361  11.674  14.995  0.00  0.00    -0.238 NA
ATOM     51  H10 MOL d          -7.876  10.896  16.894  0.00  0.00     0.144 H 
ATOM     52  C12 MOL d          -7.585  12.057  13.954  0.00  0.00     0.128 A 
ATOM     53  C11 MOL d          -6.240  11.956  14.260  0.00  0.00     0.165 A 
ATOM     54  C35 MOL d          -7.921  12.592  12.696  0.00  0.00     0.064 A 
ATOM     55  N40 MOL d          -5.221  12.245  13.432  0.00  0.00    -0.222 NA
ATOM     56  C39 MOL d          -5.598  12.736  12.251  0.00  0.00     0.089 A 
ATOM     57  N38 MOL d          -6.908  12.906  11.877  0.00  0.00    -0.244 NA
ATOM     58  H24 MOL d          -4.826  13.018  11.545  0.00  0.00     0.146 H 
BRANCH  54  59
ATOM     59  C7  MOL d          -9.344  12.861  12.251  0.00  0.00    -0.033 C 
ATOM     60  H7  MOL d          -9.606  13.907  12.469  0.00  0.00     0.035 H 
ATOM     61  H8  MOL d         -10.030  12.191  12.791  0.00  0.00     0.035 H 
ATOM     62  H9  MOL d          -9.430  12.680  11.169  0.00  0.00     0.035 H 
ENDBRANCH  54  59
ENDBRANCH  39  48
ENDBRANCH   1  35
TORSDOF 11
ENDMDL
MODEL 7
REMARK VINA RESULT:      -7.4      5.636      8.159
REMARK  11 active torsions:
REMARK  status: ('A' for Active; 'I' for Inactive)
REMARK    1  A    between atoms: N10_10  and  C1_1 
REMARK    2  A    between atoms: C2_2  and  O3_3 
REMARK    3  A    between atoms: C4_4  and  O5_5 
REMARK    4  A    between atoms: C6_6  and  C14_14 
REMARK    5  A    between atoms: C35_35  and  C7_7 
REMARK    6  A    between atoms: C15_15  and  C16_16 
REMARK    7  A    between atoms: C16_16  and  N17_17 
REMARK       I    between atoms: N17_17  and  C18_18 
REMARK    8  A    between atoms: C18_18  and  C20_20 
REMARK    9  A    between atoms: C22_22  and  C24_24 
REMARK   10  A    between atoms: C31_31  and  O32_32 
REMARK   11  A    between atoms: C33_33  and  O34_34 
ROOT
ATOM      1  C14 MOL d          -5.092  12.816  15.815  0.00  0.00    -0.075 C 
ATOM      2  C15 MOL d          -5.385  13.529  14.758  0.00  0.00    -0.087 C 
ATOM      3  H11 MOL d          -4.098  12.858  16.258  0.00  0.00     0.080 H 
ATOM      4  H12 MOL d          -6.398  13.500  14.359  0.00  0.00     0.079 H 
ENDROOT
BRANCH   2   5
ATOM      5  C16 MOL d          -4.368  14.376  14.097  0.00  0.00     0.010 C 
ATOM      6  H13 MOL d          -4.437  15.422  14.431  0.00  0.00     0.070 H 
ATOM      7  H14 MOL d          -4.461  14.335  13.001  0.00  0.00     0.070 H 
BRANCH   5   8
ATOM      8  N17 MOL d          -3.126  13.751  14.550  0.00  0.00    -0.353 N 
ATOM      9  C18 MOL d          -2.006  14.474  14.250  0.00  0.00     0.254 C 
ATOM     10  O19 MOL d          -2.085  15.507  13.580  0.00  0.00    -0.268 OA
ATOM     11  H15 MOL d          -3.099  12.877  15.034  0.00  0.00     0.163 HD
BRANCH   9  12
ATOM     12  C20 MOL d          -0.714  13.873  14.590  0.00  0.00     0.068 A 
ATOM     13  C21 MOL d          -0.734  12.720  15.398  0.00  0.00    -0.054 A 
ATOM     14  C22 MOL d           0.451  12.066  15.735  0.00  0.00    -0.022 A 
ATOM     15  H16 MOL d          -1.680  12.336  15.762  0.00  0.00     0.086 H 
ATOM     16  C23 MOL d           1.706  12.537  15.300  0.00  0.00    -0.037 A 
ATOM     17  C33 MOL d           1.694  13.686  14.501  0.00  0.00     0.100 A 
ATOM     18  H17 MOL d           2.630  12.036  15.569  0.00  0.00     0.089 H 
ATOM     19  C31 MOL d           0.514  14.315  14.105  0.00  0.00     0.114 A 
BRANCH  14  20
ATOM     20  C24 MOL d           0.352  10.855  16.605  0.00  0.00    -0.026 A 
ATOM     21  C25 MOL d           1.074   9.734  16.248  0.00  0.00    -0.069 A 
ATOM     22  C26 MOL d           0.944   8.615  17.065  0.00  0.00    -0.045 A 
ATOM     23  H18 MOL d           1.713   9.726  15.372  0.00  0.00     0.085 H 
ATOM     24  C29 MOL d           0.115   8.734  18.179  0.00  0.00     0.116 A 
ATOM     25  H19 MOL d           1.465   7.690  16.845  0.00  0.00     0.088 H 
ATOM     26  C28 MOL d          -0.636   9.827  18.530  0.00  0.00    -0.045 A 
ATOM     27  F30 MOL d          -0.095   7.656  19.041  0.00  0.00    -0.206 F 
ATOM     28  C27 MOL d          -0.469  10.948  17.707  0.00  0.00    -0.069 A 
ATOM     29  H21 MOL d          -1.309   9.822  19.380  0.00  0.00     0.088 H 
ATOM     30  H20 MOL d          -0.979  11.877  17.934  0.00  0.00     0.085 H 
ENDBRANCH  14  20
BRANCH  17  31
ATOM     31  O34 MOL d           2.929  14.170  14.056  0.00  0.00    -0.358 OA
ATOM     32  H23 MOL d           2.806  14.652  13.247  0.00  0.00     0.217 HD
ENDBRANCH  17  31
BRANCH  19  33
ATOM     33  O32 MOL d           0.642  15.435  13.346  0.00  0.00    -0.357 OA
ATOM     34  H22 MOL d           1.484  15.840  13.521  0.00  0.00     0.217 HD
ENDBRANCH  19  33
ENDBRANCH   9  12
ENDBRANCH   5   8
ENDBRANCH   2   5
BRANCH   1  35
ATOM     35  C6  MOL d          -6.159  11.936  16.403  0.00  0.00     0.084 C 
ATOM     36  C4  MOL d          -5.456  10.764  17.071  0.00  0.00     0.092 C 
ATOM     37  C2  MOL d          -5.323   9.849  15.851  0.00  0.00     0.105 C 
ATOM     38  H4  MOL d          -4.484  11.018  17.520  0.00  0.00     0.091 H 
ATOM     39  C1  MOL d          -6.675  10.055  15.150  0.00  0.00     0.140 C 
ATOM     40  H2  MOL d          -4.479  10.157  15.218  0.00  0.00     0.093 H 
ATOM     41  O13 MOL d          -7.036  11.426  15.344  0.00  0.00    -0.352 OA
ATOM     42  H1  MOL d          -7.430   9.395  15.602  0.00  0.00     0.123 H 
ATOM     43  H6  MOL d          -6.751  12.498  17.140  0.00  0.00     0.093 H 
BRANCH  36  44
ATOM     44  O5  MOL d          -6.366  10.254  18.057  0.00  0.00    -0.390 OA
ATOM     45  H5  MOL d          -6.474   9.319  17.932  0.00  0.00     0.210 HD
ENDBRANCH  36  44
BRANCH  37  46
ATOM     46  O3  MOL d          -5.190   8.462  16.194  0.00  0.00    -0.388 OA
ATOM     47  H3  MOL d          -5.177   8.370  17.140  0.00  0.00     0.210 HD
ENDBRANCH  37  46
BRANCH  39  48
ATOM     48  N10 MOL d          -6.594   9.781  13.703  0.00  0.00    -0.294 N 
ATOM     49  C9  MOL d          -5.901   8.708  13.087  0.00  0.00     0.070 A 
ATOM     50  N8  MOL d          -5.935   8.800  11.798  0.00  0.00    -0.238 NA
ATOM     51  H10 MOL d          -5.402   7.907  13.632  0.00  0.00     0.144 H 
ATOM     52  C12 MOL d          -6.609   9.939  11.512  0.00  0.00     0.128 A 
ATOM     53  C11 MOL d          -7.057  10.563  12.662  0.00  0.00     0.165 A 
ATOM     54  C35 MOL d          -6.974  10.515  10.282  0.00  0.00     0.064 A 
ATOM     55  N40 MOL d          -7.741  11.721  12.714  0.00  0.00    -0.222 NA
ATOM     56  C39 MOL d          -8.048  12.227  11.520  0.00  0.00     0.089 A 
ATOM     57  N38 MOL d          -7.678  11.655  10.328  0.00  0.00    -0.244 NA
ATOM     58  H24 MOL d          -8.625  13.144  11.488  0.00  0.00     0.146 H 
BRANCH  54  59
ATOM     59  C7  MOL d          -6.649   9.899   8.936  0.00  0.00    -0.033 C 
ATOM     60  H7  MOL d          -5.833   9.172   9.054  0.00  0.00     0.035 H 
ATOM     61  H8  MOL d          -6.338  10.690   8.237  0.00  0.00     0.035 H 
ATOM     62  H9  MOL d          -7.541   9.390   8.542  0.00  0.00     0.035 H 
ENDBRANCH  54  59
ENDBRANCH  39  48
ENDBRANCH   1  35
TORSDOF 11
ENDMDL
MODEL 8
REMARK VINA RESULT:      -7.1      2.393      3.394
REMARK  11 active torsions:
REMARK  status: ('A' for Active; 'I' for Inactive)
REMARK    1  A    between atoms: N10_10  and  C1_1 
REMARK    2  A    between atoms: C2_2  and  O3_3 
REMARK    3  A    between atoms: C4_4  and  O5_5 
REMARK    4  A    between atoms: C6_6  and  C14_14 
REMARK    5  A    between atoms: C35_35  and  C7_7 
REMARK    6  A    between atoms: C15_15  and  C16_16 
REMARK    7  A    between atoms: C16_16  and  N17_17 
REMARK       I    between atoms: N17_17  and  C18_18 
REMARK    8  A    between atoms: C18_18  and  C20_20 
REMARK    9  A    between atoms: C22_22  and  C24_24 
REMARK   10  A    between atoms: C31_31  and  O32_32 
REMARK   11  A    between atoms: C33_33  and  O34_34 
ROOT
ATOM      1  C14 MOL d          -3.459  18.035  14.155  0.00  0.00    -0.075 C 
ATOM      2  C15 MOL d          -3.183  16.787  14.437  0.00  0.00    -0.087 C 
ATOM      3  H11 MOL d          -3.713  18.334  13.139  0.00  0.00     0.080 H 
ATOM      4  H12 MOL d          -2.972  16.507  15.468  0.00  0.00     0.079 H 
ENDROOT
BRANCH   2   5
ATOM      5  C16 MOL d          -3.155  15.750  13.382  0.00  0.00     0.010 C 
ATOM      6  H13 MOL d          -2.567  16.077  12.513  0.00  0.00     0.070 H 
ATOM      7  H14 MOL d          -4.171  15.479  13.058  0.00  0.00     0.070 H 
BRANCH   5   8
ATOM      8  N17 MOL d          -2.505  14.641  14.080  0.00  0.00    -0.353 N 
ATOM      9  C18 MOL d          -1.143  14.737  14.115  0.00  0.00     0.254 C 
ATOM     10  O19 MOL d          -0.561  15.649  13.522  0.00  0.00    -0.268 OA
ATOM     11  H15 MOL d          -3.011  13.883  14.491  0.00  0.00     0.163 HD
BRANCH   9  12
ATOM     12  C20 MOL d          -0.411  13.620  14.717  0.00  0.00     0.068 A 
ATOM     13  C21 MOL d          -1.134  12.759  15.564  0.00  0.00    -0.054 A 
ATOM     14  C22 MOL d          -0.520  11.650  16.146  0.00  0.00    -0.022 A 
ATOM     15  H16 MOL d          -2.180  12.959  15.767  0.00  0.00     0.086 H 
ATOM     16  C23 MOL d           0.841  11.357  15.925  0.00  0.00    -0.037 A 
ATOM     17  C33 MOL d           1.534  12.232  15.081  0.00  0.00     0.100 A 
ATOM     18  H17 MOL d           1.324  10.502  16.384  0.00  0.00     0.089 H 
ATOM     19  C31 MOL d           0.919  13.309  14.444  0.00  0.00     0.114 A 
BRANCH  14  20
ATOM     20  C24 MOL d          -1.349  10.788  17.043  0.00  0.00    -0.026 A 
ATOM     21  C25 MOL d          -0.848  10.472  18.289  0.00  0.00    -0.069 A 
ATOM     22  C26 MOL d          -1.633   9.649  19.093  0.00  0.00    -0.045 A 
ATOM     23  H18 MOL d           0.112  10.846  18.627  0.00  0.00     0.085 H 
ATOM     24  C29 MOL d          -2.860   9.239  18.575  0.00  0.00     0.116 A 
ATOM     25  H19 MOL d          -1.303   9.342  20.078  0.00  0.00     0.088 H 
ATOM     26  C28 MOL d          -3.358   9.514  17.327  0.00  0.00    -0.045 A 
ATOM     27  F30 MOL d          -3.702   8.393  19.300  0.00  0.00    -0.206 F 
ATOM     28  C27 MOL d          -2.562  10.364  16.547  0.00  0.00    -0.069 A 
ATOM     29  H21 MOL d          -4.296   9.106  16.971  0.00  0.00     0.088 H 
ATOM     30  H20 MOL d          -2.896  10.682  15.567  0.00  0.00     0.085 H 
ENDBRANCH  14  20
BRANCH  17  31
ATOM     31  O34 MOL d           2.887  11.960  14.847  0.00  0.00    -0.358 OA
ATOM     32  H23 MOL d           3.407  12.715  15.095  0.00  0.00     0.217 HD
ENDBRANCH  17  31
BRANCH  19  33
ATOM     33  O32 MOL d           1.710  14.094  13.666  0.00  0.00    -0.357 OA
ATOM     34  H22 MOL d           2.210  13.546  13.071  0.00  0.00     0.217 HD
ENDBRANCH  19  33
ENDBRANCH   9  12
ENDBRANCH   5   8
ENDBRANCH   2   5
BRANCH   1  35
ATOM     35  C6  MOL d          -3.416  19.046  15.266  0.00  0.00     0.084 C 
ATOM     36  C4  MOL d          -4.741  18.954  16.007  0.00  0.00     0.092 C 
ATOM     37  C2  MOL d          -5.563  19.900  15.128  0.00  0.00     0.105 C 
ATOM     38  H4  MOL d          -5.164  17.939  16.050  0.00  0.00     0.091 H 
ATOM     39  C1  MOL d          -4.553  21.020  14.834  0.00  0.00     0.140 C 
ATOM     40  H2  MOL d          -5.897  19.395  14.210  0.00  0.00     0.093 H 
ATOM     41  O13 MOL d          -3.270  20.398  14.715  0.00  0.00    -0.352 OA
ATOM     42  H1  MOL d          -4.551  21.742  15.663  0.00  0.00     0.123 H 
ATOM     43  H6  MOL d          -2.580  18.828  15.946  0.00  0.00     0.093 H 
BRANCH  36  44
ATOM     44  O5  MOL d          -4.507  19.475  17.323  0.00  0.00    -0.390 OA
ATOM     45  H5  MOL d          -3.786  20.092  17.294  0.00  0.00     0.210 HD
ENDBRANCH  36  44
BRANCH  37  46
ATOM     46  O3  MOL d          -6.694  20.467  15.807  0.00  0.00    -0.388 OA
ATOM     47  H3  MOL d          -6.710  20.158  16.705  0.00  0.00     0.210 HD
ENDBRANCH  37  46
BRANCH  39  48
ATOM     48  N10 MOL d          -4.862  21.726  13.576  0.00  0.00    -0.294 N 
ATOM     49  C9  MOL d          -4.417  23.020  13.207  0.00  0.00     0.070 A 
ATOM     50  N8  MOL d          -4.942  23.400  12.087  0.00  0.00    -0.238 NA
ATOM     51  H10 MOL d          -3.721  23.620  13.793  0.00  0.00     0.144 H 
ATOM     52  C12 MOL d          -5.771  22.405  11.695  0.00  0.00     0.128 A 
ATOM     53  C11 MOL d          -5.731  21.338  12.574  0.00  0.00     0.165 A 
ATOM     54  C35 MOL d          -6.567  22.262  10.544  0.00  0.00     0.064 A 
ATOM     55  N40 MOL d          -6.453  20.207  12.473  0.00  0.00    -0.222 NA
ATOM     56  C39 MOL d          -7.198  20.132  11.369  0.00  0.00     0.089 A 
ATOM     57  N38 MOL d          -7.268  21.126  10.425  0.00  0.00    -0.244 NA
ATOM     58  H24 MOL d          -7.783  19.234  11.209  0.00  0.00     0.146 H 
BRANCH  54  59
ATOM     59  C7  MOL d          -6.637  23.295   9.438  0.00  0.00    -0.033 C 
ATOM     60  H7  MOL d          -7.679  23.623   9.308  0.00  0.00     0.035 H 
ATOM     61  H8  MOL d          -6.272  22.853   8.499  0.00  0.00     0.035 H 
ATOM     62  H9  MOL d          -6.011  24.160   9.704  0.00  0.00     0.035 H 
ENDBRANCH  54  59
ENDBRANCH  39  48
ENDBRANCH   1  35
TORSDOF 11
ENDMDL
MODEL 9
REMARK VINA RESULT:      -7.1      5.856      8.951
REMARK  11 active torsions:
REMARK  status: ('A' for Active; 'I' for Inactive)
REMARK    1  A    between atoms: N10_10  and  C1_1 
REMARK    2  A    between atoms: C2_2  and  O3_3 
REMARK    3  A    between atoms: C4_4  and  O5_5 
REMARK    4  A    between atoms: C6_6  and  C14_14 
REMARK    5  A    between atoms: C35_35  and  C7_7 
REMARK    6  A    between atoms: C15_15  and  C16_16 
REMARK    7  A    between atoms: C16_16  and  N17_17 
REMARK       I    between atoms: N17_17  and  C18_18 
REMARK    8  A    between atoms: C18_18  and  C20_20 
REMARK    9  A    between atoms: C22_22  and  C24_24 
REMARK   10  A    between atoms: C31_31  and  O32_32 
REMARK   11  A    between atoms: C33_33  and  O34_34 
ROOT
ATOM      1  C14 MOL d          -5.185  11.710  16.684  0.00  0.00    -0.075 C 
ATOM      2  C15 MOL d          -6.037  12.615  16.277  0.00  0.00    -0.087 C 
ATOM      3  H11 MOL d          -4.147  11.971  16.886  0.00  0.00     0.080 H 
ATOM      4  H12 MOL d          -7.078  12.337  16.120  0.00  0.00     0.079 H 
ENDROOT
BRANCH   2   5
ATOM      5  C16 MOL d          -5.613  14.011  16.026  0.00  0.00     0.010 C 
ATOM      6  H13 MOL d          -5.980  14.689  16.811  0.00  0.00     0.070 H 
ATOM      7  H14 MOL d          -5.960  14.366  15.044  0.00  0.00     0.070 H 
BRANCH   5   8
ATOM      8  N17 MOL d          -4.157  13.887  16.064  0.00  0.00    -0.353 N 
ATOM      9  C18 MOL d          -3.555  14.105  14.857  0.00  0.00     0.254 C 
ATOM     10  O19 MOL d          -4.232  14.297  13.843  0.00  0.00    -0.268 OA
ATOM     11  H15 MOL d          -3.649  13.663  16.896  0.00  0.00     0.163 HD
BRANCH   9  12
ATOM     12  C20 MOL d          -2.105  13.911  14.791  0.00  0.00     0.068 A 
ATOM     13  C21 MOL d          -1.577  12.779  15.442  0.00  0.00    -0.054 A 
ATOM     14  C22 MOL d          -0.210  12.502  15.393  0.00  0.00    -0.022 A 
ATOM     15  H16 MOL d          -2.239  12.116  15.987  0.00  0.00     0.086 H 
ATOM     16  C23 MOL d           0.691  13.344  14.712  0.00  0.00    -0.037 A 
ATOM     17  C33 MOL d           0.138  14.461  14.076  0.00  0.00     0.100 A 
ATOM     18  H17 MOL d           1.755  13.137  14.681  0.00  0.00     0.089 H 
ATOM     19  C31 MOL d          -1.233  14.718  14.064  0.00  0.00     0.114 A 
BRANCH  14  20
ATOM     20  C24 MOL d           0.278  11.290  16.118  0.00  0.00    -0.026 A 
ATOM     21  C25 MOL d          -0.428  10.863  17.224  0.00  0.00    -0.069 A 
ATOM     22  C26 MOL d           0.064   9.744  17.891  0.00  0.00    -0.045 A 
ATOM     23  H18 MOL d          -1.323  11.374  17.559  0.00  0.00     0.085 H 
ATOM     24  C29 MOL d           1.210   9.146  17.369  0.00  0.00     0.116 A 
ATOM     25  H19 MOL d          -0.422   9.355  18.778  0.00  0.00     0.088 H 
ATOM     26  C28 MOL d           1.943   9.576  16.292  0.00  0.00    -0.045 A 
ATOM     27  F30 MOL d           1.788   8.034  17.986  0.00  0.00    -0.206 F 
ATOM     28  C27 MOL d           1.414  10.688  15.623  0.00  0.00    -0.069 A 
ATOM     29  H21 MOL d           2.862   9.093  15.983  0.00  0.00     0.088 H 
ATOM     30  H20 MOL d           1.893  11.070  14.729  0.00  0.00     0.085 H 
ENDBRANCH  14  20
BRANCH  17  31
ATOM     31  O34 MOL d           1.015  15.310  13.392  0.00  0.00    -0.358 OA
ATOM     32  H23 MOL d           1.717  14.796  13.010  0.00  0.00     0.217 HD
ENDBRANCH  17  31
BRANCH  19  33
ATOM     33  O32 MOL d          -1.639  15.849  13.429  0.00  0.00    -0.357 OA
ATOM     34  H22 MOL d          -1.075  16.571  13.680  0.00  0.00     0.217 HD
ENDBRANCH  19  33
ENDBRANCH   9  12
ENDBRANCH   5   8
ENDBRANCH   2   5
BRANCH   1  35
ATOM     35  C6  MOL d          -5.671  10.300  16.866  0.00  0.00     0.084 C 
ATOM     36  C4  MOL d          -4.441   9.412  16.980  0.00  0.00     0.092 C 
ATOM     37  C2  MOL d          -4.191   9.172  15.490  0.00  0.00     0.105 C 
ATOM     38  H4  MOL d          -3.587   9.889  17.484  0.00  0.00     0.091 H 
ATOM     39  C1  MOL d          -5.619   8.993  14.952  0.00  0.00     0.140 C 
ATOM     40  H2  MOL d          -3.682  10.032  15.032  0.00  0.00     0.093 H 
ATOM     41  O13 MOL d          -6.457   9.880  15.700  0.00  0.00    -0.352 OA
ATOM     42  H1  MOL d          -5.941   7.951  15.097  0.00  0.00     0.123 H 
ATOM     43  H6  MOL d          -6.285  10.224  17.775  0.00  0.00     0.093 H 
BRANCH  36  44
ATOM     44  O5  MOL d          -4.859   8.229  17.676  0.00  0.00    -0.390 OA
ATOM     45  H5  MOL d          -4.184   7.970  18.292  0.00  0.00     0.210 HD
ENDBRANCH  36  44
BRANCH  37  46
ATOM     46  O3  MOL d          -3.446   7.973  15.226  0.00  0.00    -0.388 OA
ATOM     47  H3  MOL d          -3.459   7.417  15.996  0.00  0.00     0.210 HD
ENDBRANCH  37  46
BRANCH  39  48
ATOM     48  N10 MOL d          -5.716   9.336  13.520  0.00  0.00    -0.294 N 
ATOM     49  C9  MOL d          -4.983  10.343  12.844  0.00  0.00     0.070 A 
ATOM     50  N8  MOL d          -5.368  10.466  11.615  0.00  0.00    -0.238 NA
ATOM     51  H10 MOL d          -4.193  10.938  13.301  0.00  0.00     0.144 H 
ATOM     52  C12 MOL d          -6.382   9.586  11.442  0.00  0.00     0.128 A 
ATOM     53  C11 MOL d          -6.613   8.848  12.588  0.00  0.00     0.165 A 
ATOM     54  C35 MOL d          -7.147   9.267  10.305  0.00  0.00     0.064 A 
ATOM     55  N40 MOL d          -7.563   7.907  12.741  0.00  0.00    -0.222 NA
ATOM     56  C39 MOL d          -8.265   7.656  11.636  0.00  0.00     0.089 A 
ATOM     57  N38 MOL d          -8.078   8.313  10.445  0.00  0.00    -0.244 NA
ATOM     58  H24 MOL d          -9.027   6.887  11.680  0.00  0.00     0.146 H 
BRANCH  54  59
ATOM     59  C7  MOL d          -6.946   9.912   8.949  0.00  0.00    -0.033 C 
ATOM     60  H7  MOL d          -6.807  10.996   9.075  0.00  0.00     0.035 H 
ATOM     61  H8  MOL d          -7.829   9.726   8.320  0.00  0.00     0.035 H 
ATOM     62  H9  MOL d          -6.055   9.481   8.467  0.00  0.00     0.035 H 
ENDBRANCH  54  59
ENDBRANCH  39  48
ENDBRANCH   1  35
TORSDOF 11
ENDMDL
MODEL 10
REMARK VINA RESULT:      -7.1      3.164      4.564
REMARK  11 active torsions:
REMARK  status: ('A' for Active; 'I' for Inactive)
REMARK    1  A    between atoms: N10_10  and  C1_1 
REMARK    2  A    between atoms: C2_2  and  O3_3 
REMARK    3  A    between atoms: C4_4  and  O5_5 
REMARK    4  A    between atoms: C6_6  and  C14_14 
REMARK    5  A    between atoms: C35_35  and  C7_7 
REMARK    6  A    between atoms: C15_15  and  C16_16 
REMARK    7  A    between atoms: C16_16  and  N17_17 
REMARK       I    between atoms: N17_17  and  C18_18 
REMARK    8  A    between atoms: C18_18  and  C20_20 
REMARK    9  A    between atoms: C22_22  and  C24_24 
REMARK   10  A    between atoms: C31_31  and  O32_32 
REMARK   11  A    between atoms: C33_33  and  O34_34 
ROOT
ATOM      1  C14 MOL d          -2.429  20.400  15.681  0.00  0.00    -0.075 C 
ATOM      2  C15 MOL d          -1.837  19.640  14.795  0.00  0.00    -0.087 C 
ATOM      3  H11 MOL d          -1.880  21.186  16.197  0.00  0.00     0.080 H 
ATOM      4  H12 MOL d          -2.418  18.887  14.264  0.00  0.00     0.079 H 
ENDROOT
BRANCH   2   5
ATOM      5  C16 MOL d          -0.394  19.784  14.501  0.00  0.00     0.010 C 
ATOM      6  H13 MOL d           0.104  20.427  15.241  0.00  0.00     0.070 H 
ATOM      7  H14 MOL d          -0.228  20.191  13.492  0.00  0.00     0.070 H 
BRANCH   5   8
ATOM      8  N17 MOL d           0.066  18.400  14.600  0.00  0.00    -0.353 N 
ATOM      9  C18 MOL d          -0.722  17.510  13.927  0.00  0.00     0.254 C 
ATOM     10  O19 MOL d          -1.763  17.882  13.377  0.00  0.00    -0.268 OA
ATOM     11  H15 MOL d           0.880  18.130  15.113  0.00  0.00     0.163 HD
BRANCH   9  12
ATOM     12  C20 MOL d          -0.382  16.091  14.050  0.00  0.00     0.068 A 
ATOM     13  C21 MOL d          -1.450  15.180  14.158  0.00  0.00    -0.054 A 
ATOM     14  C22 MOL d          -1.211  13.808  14.242  0.00  0.00    -0.022 A 
ATOM     15  H16 MOL d          -2.469  15.548  14.177  0.00  0.00     0.086 H 
ATOM     16  C23 MOL d           0.097  13.283  14.238  0.00  0.00    -0.037 A 
ATOM     17  C33 MOL d           1.138  14.212  14.132  0.00  0.00     0.100 A 
ATOM     18  H17 MOL d           0.286  12.218  14.313  0.00  0.00     0.089 H 
ATOM     19  C31 MOL d           0.913  15.582  13.987  0.00  0.00     0.114 A 
BRANCH  14  20
ATOM     20  C24 MOL d          -2.394  12.904  14.365  0.00  0.00    -0.026 A 
ATOM     21  C25 MOL d          -2.449  12.044  15.444  0.00  0.00    -0.069 A 
ATOM     22  C26 MOL d          -3.552  11.199  15.520  0.00  0.00    -0.045 A 
ATOM     23  H18 MOL d          -1.670  12.029  16.197  0.00  0.00     0.085 H 
ATOM     24  C29 MOL d          -4.510  11.312  14.513  0.00  0.00     0.116 A 
ATOM     25  H19 MOL d          -3.662  10.484  16.327  0.00  0.00     0.088 H 
ATOM     26  C28 MOL d          -4.455  12.134  13.417  0.00  0.00    -0.045 A 
ATOM     27  F30 MOL d          -5.637  10.488  14.494  0.00  0.00    -0.206 F 
ATOM     28  C27 MOL d          -3.349  12.993  13.376  0.00  0.00    -0.069 A 
ATOM     29  H21 MOL d          -5.211  12.121  12.640  0.00  0.00     0.088 H 
ATOM     30  H20 MOL d          -3.245  13.717  12.577  0.00  0.00     0.085 H 
ENDBRANCH  14  20
BRANCH  17  31
ATOM     31  O34 MOL d           2.445  13.713  14.126  0.00  0.00    -0.358 OA
ATOM     32  H23 MOL d           3.050  14.412  14.345  0.00  0.00     0.217 HD
ENDBRANCH  17  31
BRANCH  19  33
ATOM     33  O32 MOL d           2.012  16.378  13.915  0.00  0.00    -0.357 OA
ATOM     34  H22 MOL d           2.794  15.838  13.915  0.00  0.00     0.217 HD
ENDBRANCH  19  33
ENDBRANCH   9  12
ENDBRANCH   5   8
ENDBRANCH   2   5
BRANCH   1  35
ATOM     35  C6  MOL d          -3.885  20.162  15.969  0.00  0.00     0.084 C 
ATOM     36  C4  MOL d          -4.265  18.848  15.304  0.00  0.00     0.092 C 
ATOM     37  C2  MOL d          -4.591  19.382  13.907  0.00  0.00     0.105 C 
ATOM     38  H4  MOL d          -3.460  18.098  15.295  0.00  0.00     0.091 H 
ATOM     39  C1  MOL d          -5.324  20.693  14.231  0.00  0.00     0.140 C 
ATOM     40  H2  MOL d          -3.673  19.556  13.327  0.00  0.00     0.093 H 
ATOM     41  O13 MOL d          -4.698  21.241  15.395  0.00  0.00    -0.352 OA
ATOM     42  H1  MOL d          -6.385  20.484  14.433  0.00  0.00     0.123 H 
ATOM     43  H6  MOL d          -4.053  20.105  17.054  0.00  0.00     0.093 H 
BRANCH  36  44
ATOM     44  O5  MOL d          -5.420  18.360  16.001  0.00  0.00    -0.390 OA
ATOM     45  H5  MOL d          -5.239  17.493  16.342  0.00  0.00     0.210 HD
ENDBRANCH  36  44
BRANCH  37  46
ATOM     46  O3  MOL d          -5.478  18.530  13.166  0.00  0.00    -0.388 OA
ATOM     47  H3  MOL d          -6.177  18.232  13.735  0.00  0.00     0.210 HD
ENDBRANCH  37  46
BRANCH  39  48
ATOM     48  N10 MOL d          -5.223  21.670  13.130  0.00  0.00    -0.294 N 
ATOM     49  C9  MOL d          -4.410  22.831  13.106  0.00  0.00     0.070 A 
ATOM     50  N8  MOL d          -4.621  23.535  12.042  0.00  0.00    -0.238 NA
ATOM     51  H10 MOL d          -3.697  23.096  13.886  0.00  0.00     0.144 H 
ATOM     52  C12 MOL d          -5.593  22.899  11.348  0.00  0.00     0.128 A 
ATOM     53  C11 MOL d          -5.976  21.726  11.972  0.00  0.00     0.165 A 
ATOM     54  C35 MOL d          -6.189  23.193  10.108  0.00  0.00     0.064 A 
ATOM     55  N40 MOL d          -6.930  20.881  11.542  0.00  0.00    -0.222 NA
ATOM     56  C39 MOL d          -7.468  21.216  10.369  0.00  0.00     0.089 A 
ATOM     57  N38 MOL d          -7.122  22.341   9.662  0.00  0.00    -0.244 NA
ATOM     58  H24 MOL d          -8.223  20.562   9.950  0.00  0.00     0.146 H 
BRANCH  54  59
ATOM     59  C7  MOL d          -5.805  24.384   9.252  0.00  0.00    -0.033 C 
ATOM     60  H7  MOL d          -6.212  24.253   8.238  0.00  0.00     0.035 H 
ATOM     61  H8  MOL d          -4.708  24.459   9.200  0.00  0.00     0.035 H 
ATOM     62  H9  MOL d          -6.216  25.302   9.697  0.00  0.00     0.035 H 
ENDBRANCH  54  59
ENDBRANCH  39  48
ENDBRANCH   1  35
TORSDOF 11
ENDMDL
