MODEL 1
REMARK VINA RESULT:      -6.5      0.000      0.000
REMARK  16 active torsions:
REMARK  status: ('A' for Active; 'I' for Inactive)
REMARK    1  A    between atoms: PA_1  and  O5_4 
REMARK    2  A    between atoms: O3A_8  and  PA_1 
REMARK    3  A    between atoms: O5_4  and  C5_23 
REMARK    4  A    between atoms: PB_5  and  O3A_8 
REMARK    5  A    between atoms: O3_38  and  PB_5 
REMARK    6  A    between atoms: O3_30  and  PG_9 
REMARK    7  A    between atoms: C1_26  and  N9A_13 
REMARK    8  A    between atoms: C5_23  and  C4_24 
REMARK    9  A    between atoms: C2_27  and  O2_28 
REMARK   10  A    between atoms: C3_29  and  O3_30 
REMARK   11  A    between atoms: C5_32  and  O5_31 
REMARK   12  A    between atoms: O5_31  and  PD_39 
REMARK   13  A    between atoms: C4_33  and  C5_32 
REMARK   14  A    between atoms: C1_35  and  N1T_43 
REMARK   15  A    between atoms: C3_37  and  O3_38 
REMARK   16  A    between atoms: C5T_50  and  CM5_51 
ROOT
ATOM      1  PA  PAX d         -30.764 -34.156  14.503  0.00  0.00     0.417 P 
ATOM      2  O1A PAX d         -30.600 -35.305  15.502  0.00  0.00    -0.624 OA
ATOM      3  O2A PAX d         -31.172 -34.547  13.079  0.00  0.00    -0.624 OA
ENDROOT
BRANCH   1   4
ATOM      4  O5  PAX d         -31.810 -33.078  15.037  0.00  0.00    -0.287 OA
BRANCH   4   5
ATOM      5  C5  PAX d         -31.905 -31.801  14.445  0.00  0.00     0.058 C 
ATOM      6  H5  PAX d         -32.874 -31.706  13.934  0.00  0.00     0.079 H 
ATOM      7  H6  PAX d         -31.091 -31.674  13.716  0.00  0.00     0.079 H 
BRANCH   5   8
ATOM      8  C4  PAX d         -31.794 -30.750  15.504  0.00  0.00     0.090 C 
ATOM      9  O4  PAX d         -30.720 -29.808  15.177  0.00  0.00    -0.353 OA
ATOM     10  C1  PAX d         -31.098 -28.534  15.648  0.00  0.00     0.140 C 
ATOM     11  C2  PAX d         -32.598 -28.493  15.299  0.00  0.00     0.106 C 
ATOM     12  H8  PAX d         -31.003 -28.499  16.743  0.00  0.00     0.122 H 
ATOM     13  C3  PAX d         -33.061 -29.909  15.672  0.00  0.00     0.107 C 
ATOM     14  H9  PAX d         -32.720 -28.344  14.216  0.00  0.00     0.093 H 
ATOM     15  H11 PAX d         -33.880 -30.250  15.021  0.00  0.00     0.092 H 
ATOM     16  H7  PAX d         -31.569 -31.250  16.459  0.00  0.00     0.090 H 
BRANCH  10  17
ATOM     17  N9A PAX d         -30.187 -27.476  15.112  0.00  0.00    -0.294 N 
ATOM     18  C4A PAX d         -29.994 -26.154  15.499  0.00  0.00     0.167 A 
ATOM     19  N3A PAX d         -30.620 -25.473  16.510  0.00  0.00    -0.222 NA
ATOM     20  C5A PAX d         -29.003 -25.645  14.630  0.00  0.00     0.149 A 
ATOM     21  C2A PAX d         -30.178 -24.181  16.608  0.00  0.00     0.091 A 
ATOM     22  N1A PAX d         -29.231 -23.555  15.839  0.00  0.00    -0.222 NA
ATOM     23  H1  PAX d         -30.632 -23.580  17.388  0.00  0.00     0.146 H 
ATOM     24  C6A PAX d         -28.619 -24.269  14.831  0.00  0.00     0.155 A 
ATOM     25  N6A PAX d         -27.700 -23.649  14.096  0.00  0.00    -0.382 N 
ATOM     26  H2  PAX d         -27.223 -24.153  13.335  0.00  0.00     0.157 HD
ATOM     27  H3  PAX d         -27.464 -22.665  14.288  0.00  0.00     0.157 HD
ATOM     28  N7A PAX d         -28.595 -26.617  13.729  0.00  0.00    -0.236 NA
ATOM     29  C8A PAX d         -29.316 -27.672  14.052  0.00  0.00     0.071 A 
ATOM     30  H4  PAX d         -29.234 -28.622  13.527  0.00  0.00     0.144 H 
ENDBRANCH  10  17
BRANCH  11  31
ATOM     31  O2  PAX d         -33.306 -27.444  15.947  0.00  0.00    -0.388 OA
ATOM     32  H10 PAX d         -33.994 -27.126  15.374  0.00  0.00     0.210 HD
ENDBRANCH  11  31
BRANCH  13  33
ATOM     33  O3  PAX d         -33.442 -29.991  17.048  0.00  0.00    -0.272 OA
BRANCH  33  34
ATOM     34  PG  PAX d         -34.065 -31.354  17.705  0.00  0.00     0.422 P 
ATOM     35  O1G PAX d         -34.847 -32.054  16.596  0.00  0.00    -0.617 OA
ATOM     36  O2G PAX d         -32.863 -32.150  18.195  0.00  0.00    -0.617 OA
ATOM     37  O3G PAX d         -34.988 -30.959  18.873  0.00  0.00    -0.617 OA
ENDBRANCH  33  34
ENDBRANCH  13  33
ENDBRANCH   5   8
ENDBRANCH   4   5
ENDBRANCH   1   4
BRANCH   1  38
ATOM     38  O3A PAX d         -29.437 -33.290  14.446  0.00  0.00    -0.180 OA
BRANCH  38  39
ATOM     39  PB  PAX d         -28.547 -32.580  15.539  0.00  0.00     0.418 P 
ATOM     40  O1B PAX d         -28.151 -31.249  15.040  0.00  0.00    -0.624 OA
ATOM     41  O2B PAX d         -29.260 -32.672  16.833  0.00  0.00    -0.624 OA
BRANCH  39  42
ATOM     42  O3  PAX d         -27.285 -33.595  15.693  0.00  0.00    -0.281 OA
BRANCH  42  43
ATOM     43  C3  PAX d         -26.507 -33.644  16.890  0.00  0.00     0.081 C 
ATOM     44  C4  PAX d         -25.882 -32.267  17.144  0.00  0.00     0.087 C 
ATOM     45  O4  PAX d         -24.468 -32.389  16.824  0.00  0.00    -0.356 OA
ATOM     46  H14 PAX d         -26.349 -31.536  16.469  0.00  0.00     0.090 H 
ATOM     47  C1  PAX d         -24.236 -33.626  16.181  0.00  0.00     0.116 C 
ATOM     48  C2  PAX d         -25.316 -34.569  16.695  0.00  0.00     0.003 C 
ATOM     49  H15 PAX d         -24.333 -33.512  15.091  0.00  0.00     0.118 H 
ATOM     50  H16 PAX d         -25.016 -35.033  17.646  0.00  0.00     0.043 H 
ATOM     51  H17 PAX d         -25.541 -35.354  15.958  0.00  0.00     0.043 H 
ATOM     52  H18 PAX d         -27.129 -33.967  17.738  0.00  0.00     0.088 H 
BRANCH  44  53
ATOM     53  C5  PAX d         -26.057 -31.773  18.571  0.00  0.00     0.059 C 
ATOM     54  H12 PAX d         -26.731 -32.457  19.109  0.00  0.00     0.079 H 
ATOM     55  H13 PAX d         -25.078 -31.757  19.071  0.00  0.00     0.079 H 
BRANCH  53  56
ATOM     56  O5  PAX d         -26.622 -30.439  18.588  0.00  0.00    -0.280 OA
BRANCH  56  57
ATOM     57  PD  PAX d         -28.113 -30.123  19.209  0.00  0.00     0.422 P 
ATOM     58  O1D PAX d         -28.598 -31.464  19.794  0.00  0.00    -0.617 OA
ATOM     59  O2D PAX d         -28.984 -29.635  18.029  0.00  0.00    -0.617 OA
ATOM     60  O3D PAX d         -27.908 -29.047  20.290  0.00  0.00    -0.617 OA
ENDBRANCH  56  57
ENDBRANCH  53  56
ENDBRANCH  44  53
BRANCH  47  61
ATOM     61  N1T PAX d         -22.851 -34.110  16.498  0.00  0.00    -0.282 N 
ATOM     62  C6T PAX d         -21.874 -34.302  15.488  0.00  0.00    -0.002 A 
ATOM     63  C5T PAX d         -20.618 -34.735  15.748  0.00  0.00     0.022 A 
ATOM     64  H19 PAX d         -22.146 -34.091  14.455  0.00  0.00     0.113 H 
ATOM     65  C4T PAX d         -20.239 -35.020  17.137  0.00  0.00     0.256 A 
ATOM     66  N3T PAX d         -21.252 -34.815  18.093  0.00  0.00    -0.275 N 
ATOM     67  O4T PAX d         -19.132 -35.404  17.523  0.00  0.00    -0.267 OA
ATOM     68  C2T PAX d         -22.552 -34.372  17.857  0.00  0.00     0.331 A 
ATOM     69  H20 PAX d         -21.013 -35.008  19.045  0.00  0.00     0.173 HD
ATOM     70  O2T PAX d         -23.352 -34.225  18.753  0.00  0.00    -0.246 OA
BRANCH  63  71
ATOM     71  CM5 PAX d         -19.640 -34.908  14.630  0.00  0.00    -0.045 C 
ATOM     72  H21 PAX d         -20.178 -35.187  13.712  0.00  0.00     0.033 H 
ATOM     73  H22 PAX d         -18.923 -35.701  14.889  0.00  0.00     0.033 H 
ATOM     74  H23 PAX d         -19.099 -33.965  14.466  0.00  0.00     0.033 H 
ENDBRANCH  63  71
ENDBRANCH  47  61
ENDBRANCH  42  43
ENDBRANCH  39  42
ENDBRANCH  38  39
ENDBRANCH   1  38
TORSDOF 16
ENDMDL
MODEL 2
REMARK VINA RESULT:      -6.4      2.060      3.814
REMARK  16 active torsions:
REMARK  status: ('A' for Active; 'I' for Inactive)
REMARK    1  A    between atoms: PA_1  and  O5_4 
REMARK    2  A    between atoms: O3A_8  and  PA_1 
REMARK    3  A    between atoms: O5_4  and  C5_23 
REMARK    4  A    between atoms: PB_5  and  O3A_8 
REMARK    5  A    between atoms: O3_38  and  PB_5 
REMARK    6  A    between atoms: O3_30  and  PG_9 
REMARK    7  A    between atoms: C1_26  and  N9A_13 
REMARK    8  A    between atoms: C5_23  and  C4_24 
REMARK    9  A    between atoms: C2_27  and  O2_28 
REMARK   10  A    between atoms: C3_29  and  O3_30 
REMARK   11  A    between atoms: C5_32  and  O5_31 
REMARK   12  A    between atoms: O5_31  and  PD_39 
REMARK   13  A    between atoms: C4_33  and  C5_32 
REMARK   14  A    between atoms: C1_35  and  N1T_43 
REMARK   15  A    between atoms: C3_37  and  O3_38 
REMARK   16  A    between atoms: C5T_50  and  CM5_51 
ROOT
ATOM      1  PA  PAX d         -29.542 -32.227  18.254  0.00  0.00     0.417 P 
ATOM      2  O1A PAX d         -28.947 -31.134  17.361  0.00  0.00    -0.624 OA
ATOM      3  O2A PAX d         -28.716 -32.624  19.482  0.00  0.00    -0.624 OA
ENDROOT
BRANCH   1   4
ATOM      4  O5  PAX d         -31.003 -31.829  18.751  0.00  0.00    -0.287 OA
BRANCH   4   5
ATOM      5  C5  PAX d         -32.149 -32.459  18.222  0.00  0.00     0.058 C 
ATOM      6  H5  PAX d         -32.846 -32.697  19.039  0.00  0.00     0.079 H 
ATOM      7  H6  PAX d         -31.853 -33.386  17.709  0.00  0.00     0.079 H 
BRANCH   5   8
ATOM      8  C4  PAX d         -32.817 -31.542  17.247  0.00  0.00     0.090 C 
ATOM      9  O4  PAX d         -32.286 -30.182  17.380  0.00  0.00    -0.353 OA
ATOM     10  C1  PAX d         -32.290 -29.584  16.103  0.00  0.00     0.140 C 
ATOM     11  C2  PAX d         -31.833 -30.747  15.201  0.00  0.00     0.106 C 
ATOM     12  H8  PAX d         -33.319 -29.319  15.819  0.00  0.00     0.122 H 
ATOM     13  C3  PAX d         -32.607 -31.939  15.784  0.00  0.00     0.107 C 
ATOM     14  H9  PAX d         -30.754 -30.914  15.334  0.00  0.00     0.093 H 
ATOM     15  H11 PAX d         -32.041 -32.876  15.682  0.00  0.00     0.092 H 
ATOM     16  H7  PAX d         -33.896 -31.540  17.464  0.00  0.00     0.090 H 
BRANCH  10  17
ATOM     17  N9A PAX d         -31.512 -28.307  16.109  0.00  0.00    -0.294 N 
ATOM     18  C4A PAX d         -30.515 -27.840  15.261  0.00  0.00     0.167 A 
ATOM     19  N3A PAX d         -29.981 -28.465  14.165  0.00  0.00    -0.222 NA
ATOM     20  C5A PAX d         -30.157 -26.567  15.760  0.00  0.00     0.149 A 
ATOM     21  C2A PAX d         -29.013 -27.707  13.563  0.00  0.00     0.091 A 
ATOM     22  N1A PAX d         -28.566 -26.465  13.933  0.00  0.00    -0.222 NA
ATOM     23  H1  PAX d         -28.544 -28.141  12.687  0.00  0.00     0.146 H 
ATOM     24  C6A PAX d         -29.125 -25.862  15.040  0.00  0.00     0.155 A 
ATOM     25  N6A PAX d         -28.683 -24.656  15.384  0.00  0.00    -0.382 N 
ATOM     26  H2  PAX d         -29.079 -24.177  16.205  0.00  0.00     0.157 HD
ATOM     27  H3  PAX d         -27.944 -24.200  14.830  0.00  0.00     0.157 HD
ATOM     28  N7A PAX d         -30.906 -26.253  16.884  0.00  0.00    -0.236 NA
ATOM     29  C8A PAX d         -31.686 -27.302  17.049  0.00  0.00     0.071 A 
ATOM     30  H4  PAX d         -32.410 -27.375  17.859  0.00  0.00     0.144 H 
ENDBRANCH  10  17
BRANCH  11  31
ATOM     31  O2  PAX d         -32.052 -30.515  13.816  0.00  0.00    -0.388 OA
ATOM     32  H10 PAX d         -32.218 -29.590  13.673  0.00  0.00     0.210 HD
ENDBRANCH  11  31
BRANCH  13  33
ATOM     33  O3  PAX d         -33.903 -32.064  15.191  0.00  0.00    -0.272 OA
BRANCH  33  34
ATOM     34  PG  PAX d         -34.631 -33.513  14.974  0.00  0.00     0.422 P 
ATOM     35  O1G PAX d         -35.447 -33.784  16.236  0.00  0.00    -0.617 OA
ATOM     36  O2G PAX d         -35.483 -33.352  13.722  0.00  0.00    -0.617 OA
ATOM     37  O3G PAX d         -33.542 -34.584  14.775  0.00  0.00    -0.617 OA
ENDBRANCH  33  34
ENDBRANCH  13  33
ENDBRANCH   5   8
ENDBRANCH   4   5
ENDBRANCH   1   4
BRANCH   1  38
ATOM     38  O3A PAX d         -29.856 -33.522  17.395  0.00  0.00    -0.180 OA
BRANCH  38  39
ATOM     39  PB  PAX d         -29.157 -34.210  16.158  0.00  0.00     0.418 P 
ATOM     40  O1B PAX d         -29.722 -35.561  15.981  0.00  0.00    -0.624 OA
ATOM     41  O2B PAX d         -29.210 -33.261  15.023  0.00  0.00    -0.624 OA
BRANCH  39  42
ATOM     42  O3  PAX d         -27.590 -34.236  16.596  0.00  0.00    -0.281 OA
BRANCH  42  43
ATOM     43  C3  PAX d         -26.593 -33.536  15.850  0.00  0.00     0.081 C 
ATOM     44  C4  PAX d         -26.066 -34.444  14.733  0.00  0.00     0.087 C 
ATOM     45  O4  PAX d         -24.737 -34.873  15.139  0.00  0.00    -0.356 OA
ATOM     46  H14 PAX d         -26.725 -35.321  14.649  0.00  0.00     0.090 H 
ATOM     47  C1  PAX d         -24.516 -34.507  16.486  0.00  0.00     0.116 C 
ATOM     48  C2  PAX d         -25.379 -33.275  16.727  0.00  0.00     0.003 C 
ATOM     49  H15 PAX d         -24.833 -35.319  17.157  0.00  0.00     0.118 H 
ATOM     50  H16 PAX d         -24.855 -32.359  16.417  0.00  0.00     0.043 H 
ATOM     51  H17 PAX d         -25.665 -33.194  17.786  0.00  0.00     0.043 H 
ATOM     52  H18 PAX d         -27.004 -32.598  15.448  0.00  0.00     0.088 H 
BRANCH  44  53
ATOM     53  C5  PAX d         -26.008 -33.765  13.374  0.00  0.00     0.059 C 
ATOM     54  H12 PAX d         -26.345 -34.473  12.602  0.00  0.00     0.079 H 
ATOM     55  H13 PAX d         -26.671 -32.887  13.380  0.00  0.00     0.079 H 
BRANCH  53  56
ATOM     56  O5  PAX d         -24.657 -33.338  13.069  0.00  0.00    -0.280 OA
BRANCH  56  57
ATOM     57  PD  PAX d         -24.220 -31.751  13.056  0.00  0.00     0.422 P 
ATOM     58  O1D PAX d         -25.347 -31.029  12.294  0.00  0.00    -0.617 OA
ATOM     59  O2D PAX d         -22.861 -31.678  12.323  0.00  0.00    -0.617 OA
ATOM     60  O3D PAX d         -24.132 -31.318  14.530  0.00  0.00    -0.617 OA
ENDBRANCH  56  57
ENDBRANCH  53  56
ENDBRANCH  44  53
BRANCH  47  61
ATOM     61  N1T PAX d         -23.055 -34.238  16.705  0.00  0.00    -0.282 N 
ATOM     62  C6T PAX d         -22.168 -33.991  15.626  0.00  0.00    -0.002 A 
ATOM     63  C5T PAX d         -20.849 -33.743  15.798  0.00  0.00     0.022 A 
ATOM     64  H19 PAX d         -22.568 -34.000  14.613  0.00  0.00     0.113 H 
ATOM     65  C4T PAX d         -20.300 -33.725  17.159  0.00  0.00     0.256 A 
ATOM     66  N3T PAX d         -21.229 -33.982  18.187  0.00  0.00    -0.275 N 
ATOM     67  O4T PAX d         -19.128 -33.500  17.466  0.00  0.00    -0.267 OA
ATOM     68  C2T PAX d         -22.590 -34.241  18.043  0.00  0.00     0.331 A 
ATOM     69  H20 PAX d         -20.872 -33.977  19.121  0.00  0.00     0.173 HD
ATOM     70  O2T PAX d         -23.308 -34.449  18.994  0.00  0.00    -0.246 OA
BRANCH  63  71
ATOM     71  CM5 PAX d         -19.976 -33.485  14.611  0.00  0.00    -0.045 C 
ATOM     72  H21 PAX d         -19.043 -34.057  14.711  0.00  0.00     0.033 H 
ATOM     73  H22 PAX d         -19.743 -32.411  14.554  0.00  0.00     0.033 H 
ATOM     74  H23 PAX d         -20.500 -33.796  13.695  0.00  0.00     0.033 H 
ENDBRANCH  63  71
ENDBRANCH  47  61
ENDBRANCH  42  43
ENDBRANCH  39  42
ENDBRANCH  38  39
ENDBRANCH   1  38
TORSDOF 16
ENDMDL
MODEL 3
REMARK VINA RESULT:      -6.2      2.708     10.253
REMARK  16 active torsions:
REMARK  status: ('A' for Active; 'I' for Inactive)
REMARK    1  A    between atoms: PA_1  and  O5_4 
REMARK    2  A    between atoms: O3A_8  and  PA_1 
REMARK    3  A    between atoms: O5_4  and  C5_23 
REMARK    4  A    between atoms: PB_5  and  O3A_8 
REMARK    5  A    between atoms: O3_38  and  PB_5 
REMARK    6  A    between atoms: O3_30  and  PG_9 
REMARK    7  A    between atoms: C1_26  and  N9A_13 
REMARK    8  A    between atoms: C5_23  and  C4_24 
REMARK    9  A    between atoms: C2_27  and  O2_28 
REMARK   10  A    between atoms: C3_29  and  O3_30 
REMARK   11  A    between atoms: C5_32  and  O5_31 
REMARK   12  A    between atoms: O5_31  and  PD_39 
REMARK   13  A    between atoms: C4_33  and  C5_32 
REMARK   14  A    between atoms: C1_35  and  N1T_43 
REMARK   15  A    between atoms: C3_37  and  O3_38 
REMARK   16  A    between atoms: C5T_50  and  CM5_51 
ROOT
ATOM      1  PA  PAX d         -30.251 -32.254  17.966  0.00  0.00     0.417 P 
ATOM      2  O1A PAX d         -30.894 -32.625  16.626  0.00  0.00    -0.624 OA
ATOM      3  O2A PAX d         -31.150 -32.360  19.202  0.00  0.00    -0.624 OA
ENDROOT
BRANCH   1   4
ATOM      4  O5  PAX d         -28.941 -33.123  18.233  0.00  0.00    -0.287 OA
BRANCH   4   5
ATOM      5  C5  PAX d         -27.822 -32.569  18.888  0.00  0.00     0.058 C 
ATOM      6  H5  PAX d         -27.364 -33.330  19.537  0.00  0.00     0.079 H 
ATOM      7  H6  PAX d         -28.142 -31.711  19.498  0.00  0.00     0.079 H 
BRANCH   5   8
ATOM      8  C4  PAX d         -26.824 -32.113  17.871  0.00  0.00     0.090 C 
ATOM      9  O4  PAX d         -25.471 -32.508  18.274  0.00  0.00    -0.353 OA
ATOM     10  C1  PAX d         -24.732 -32.791  17.106  0.00  0.00     0.140 C 
ATOM     11  C2  PAX d         -25.769 -33.533  16.241  0.00  0.00     0.106 C 
ATOM     12  H8  PAX d         -24.472 -31.853  16.594  0.00  0.00     0.122 H 
ATOM     13  C3  PAX d         -27.045 -32.712  16.480  0.00  0.00     0.107 C 
ATOM     14  H9  PAX d         -25.913 -34.551  16.632  0.00  0.00     0.093 H 
ATOM     15  H11 PAX d         -27.944 -33.343  16.434  0.00  0.00     0.092 H 
ATOM     16  H7  PAX d         -26.883 -31.017  17.800  0.00  0.00     0.090 H 
BRANCH  10  17
ATOM     17  N9A PAX d         -23.437 -33.460  17.443  0.00  0.00    -0.294 N 
ATOM     18  C4A PAX d         -22.316 -33.725  16.665  0.00  0.00     0.167 A 
ATOM     19  N3A PAX d         -22.118 -33.423  15.344  0.00  0.00    -0.222 NA
ATOM     20  C5A PAX d         -21.403 -34.376  17.525  0.00  0.00     0.149 A 
ATOM     21  C2A PAX d         -20.888 -33.833  14.902  0.00  0.00     0.091 A 
ATOM     22  N1A PAX d         -19.909 -34.472  15.617  0.00  0.00    -0.222 NA
ATOM     23  H1  PAX d         -20.663 -33.627  13.862  0.00  0.00     0.146 H 
ATOM     24  C6A PAX d         -20.139 -34.760  16.946  0.00  0.00     0.155 A 
ATOM     25  N6A PAX d         -19.177 -35.377  17.627  0.00  0.00    -0.382 N 
ATOM     26  H2  PAX d         -19.316 -35.607  18.621  0.00  0.00     0.157 HD
ATOM     27  H3  PAX d         -18.293 -35.625  17.160  0.00  0.00     0.157 HD
ATOM     28  N7A PAX d         -21.940 -34.514  18.796  0.00  0.00    -0.236 NA
ATOM     29  C8A PAX d         -23.132 -33.962  18.699  0.00  0.00     0.071 A 
ATOM     30  H4  PAX d         -23.823 -33.904  19.538  0.00  0.00     0.144 H 
ENDBRANCH  10  17
BRANCH  11  31
ATOM     31  O2  PAX d         -25.388 -33.659  14.877  0.00  0.00    -0.388 OA
ATOM     32  H10 PAX d         -26.104 -33.373  14.322  0.00  0.00     0.210 HD
ENDBRANCH  11  31
BRANCH  13  33
ATOM     33  O3  PAX d         -27.146 -31.619  15.563  0.00  0.00    -0.272 OA
BRANCH  33  34
ATOM     34  PG  PAX d         -27.984 -31.727  14.162  0.00  0.00     0.422 P 
ATOM     35  O1G PAX d         -29.083 -30.668  14.230  0.00  0.00    -0.617 OA
ATOM     36  O2G PAX d         -26.963 -31.473  13.061  0.00  0.00    -0.617 OA
ATOM     37  O3G PAX d         -28.581 -33.142  14.055  0.00  0.00    -0.617 OA
ENDBRANCH  33  34
ENDBRANCH  13  33
ENDBRANCH   5   8
ENDBRANCH   4   5
ENDBRANCH   1   4
BRANCH   1  38
ATOM     38  O3A PAX d         -29.637 -30.794  17.890  0.00  0.00    -0.180 OA
BRANCH  38  39
ATOM     39  PB  PAX d         -29.962 -29.433  18.620  0.00  0.00     0.418 P 
ATOM     40  O1B PAX d         -29.760 -29.610  20.071  0.00  0.00    -0.624 OA
ATOM     41  O2B PAX d         -29.221 -28.357  17.923  0.00  0.00    -0.624 OA
BRANCH  39  42
ATOM     42  O3  PAX d         -31.520 -29.177  18.230  0.00  0.00    -0.281 OA
BRANCH  42  43
ATOM     43  C3  PAX d         -32.087 -27.864  18.234  0.00  0.00     0.081 C 
ATOM     44  C4  PAX d         -33.499 -27.921  17.640  0.00  0.00     0.087 C 
ATOM     45  O4  PAX d         -33.413 -27.329  16.314  0.00  0.00    -0.356 OA
ATOM     46  H14 PAX d         -33.804 -28.973  17.552  0.00  0.00     0.090 H 
ATOM     47  C1  PAX d         -32.056 -27.145  15.967  0.00  0.00     0.116 C 
ATOM     48  C2  PAX d         -31.313 -26.964  17.285  0.00  0.00     0.003 C 
ATOM     49  H15 PAX d         -31.673 -28.034  15.445  0.00  0.00     0.118 H 
ATOM     50  H16 PAX d         -31.346 -25.916  17.618  0.00  0.00     0.043 H 
ATOM     51  H17 PAX d         -30.266 -27.288  17.197  0.00  0.00     0.043 H 
ATOM     52  H18 PAX d         -32.095 -27.455  19.255  0.00  0.00     0.088 H 
BRANCH  44  53
ATOM     53  C5  PAX d         -34.540 -27.193  18.475  0.00  0.00     0.059 C 
ATOM     54  H12 PAX d         -35.282 -26.732  17.806  0.00  0.00     0.079 H 
ATOM     55  H13 PAX d         -35.042 -27.916  19.135  0.00  0.00     0.079 H 
BRANCH  53  56
ATOM     56  O5  PAX d         -33.922 -26.161  19.283  0.00  0.00    -0.280 OA
BRANCH  56  57
ATOM     57  PD  PAX d         -34.244 -24.562  19.063  0.00  0.00     0.422 P 
ATOM     58  O1D PAX d         -35.041 -24.489  17.746  0.00  0.00    -0.617 OA
ATOM     59  O2D PAX d         -32.876 -23.849  18.974  0.00  0.00    -0.617 OA
ATOM     60  O3D PAX d         -35.075 -24.120  20.281  0.00  0.00    -0.617 OA
ENDBRANCH  56  57
ENDBRANCH  53  56
ENDBRANCH  44  53
BRANCH  47  61
ATOM     61  N1T PAX d         -31.920 -25.953  15.063  0.00  0.00    -0.282 N 
ATOM     62  C6T PAX d         -32.868 -24.898  15.067  0.00  0.00    -0.002 A 
ATOM     63  C5T PAX d         -32.767 -23.813  14.264  0.00  0.00     0.022 A 
ATOM     64  H19 PAX d         -33.716 -24.964  15.747  0.00  0.00     0.113 H 
ATOM     65  C4T PAX d         -31.627 -23.712  13.345  0.00  0.00     0.256 A 
ATOM     66  N3T PAX d         -30.723 -24.793  13.385  0.00  0.00    -0.275 N 
ATOM     67  O4T PAX d         -31.399 -22.780  12.571  0.00  0.00    -0.267 OA
ATOM     68  C2T PAX d         -30.800 -25.922  14.197  0.00  0.00     0.331 A 
ATOM     69  H20 PAX d         -29.942 -24.743  12.763  0.00  0.00     0.173 HD
ATOM     70  O2T PAX d         -29.967 -26.799  14.158  0.00  0.00    -0.246 OA
BRANCH  63  71
ATOM     71  CM5 PAX d         -33.804 -22.736  14.328  0.00  0.00    -0.045 C 
ATOM     72  H21 PAX d         -33.833 -22.198  13.369  0.00  0.00     0.033 H 
ATOM     73  H22 PAX d         -33.552 -22.033  15.135  0.00  0.00     0.033 H 
ATOM     74  H23 PAX d         -34.788 -23.186  14.526  0.00  0.00     0.033 H 
ENDBRANCH  63  71
ENDBRANCH  47  61
ENDBRANCH  42  43
ENDBRANCH  39  42
ENDBRANCH  38  39
ENDBRANCH   1  38
TORSDOF 16
ENDMDL
MODEL 4
REMARK VINA RESULT:      -6.2      2.513      4.252
REMARK  16 active torsions:
REMARK  status: ('A' for Active; 'I' for Inactive)
REMARK    1  A    between atoms: PA_1  and  O5_4 
REMARK    2  A    between atoms: O3A_8  and  PA_1 
REMARK    3  A    between atoms: O5_4  and  C5_23 
REMARK    4  A    between atoms: PB_5  and  O3A_8 
REMARK    5  A    between atoms: O3_38  and  PB_5 
REMARK    6  A    between atoms: O3_30  and  PG_9 
REMARK    7  A    between atoms: C1_26  and  N9A_13 
REMARK    8  A    between atoms: C5_23  and  C4_24 
REMARK    9  A    between atoms: C2_27  and  O2_28 
REMARK   10  A    between atoms: C3_29  and  O3_30 
REMARK   11  A    between atoms: C5_32  and  O5_31 
REMARK   12  A    between atoms: O5_31  and  PD_39 
REMARK   13  A    between atoms: C4_33  and  C5_32 
REMARK   14  A    between atoms: C1_35  and  N1T_43 
REMARK   15  A    between atoms: C3_37  and  O3_38 
REMARK   16  A    between atoms: C5T_50  and  CM5_51 
ROOT
ATOM      1  PA  PAX d         -29.917 -31.985  18.294  0.00  0.00     0.417 P 
ATOM      2  O1A PAX d         -29.880 -31.054  17.079  0.00  0.00    -0.624 OA
ATOM      3  O2A PAX d         -28.911 -31.685  19.411  0.00  0.00    -0.624 OA
ENDROOT
BRANCH   1   4
ATOM      4  O5  PAX d         -31.374 -32.024  18.941  0.00  0.00    -0.287 OA
BRANCH   4   5
ATOM      5  C5  PAX d         -32.263 -33.084  18.669  0.00  0.00     0.058 C 
ATOM      6  H5  PAX d         -32.762 -33.392  19.601  0.00  0.00     0.079 H 
ATOM      7  H6  PAX d         -31.702 -33.935  18.255  0.00  0.00     0.079 H 
BRANCH   5   8
ATOM      8  C4  PAX d         -33.290 -32.633  17.679  0.00  0.00     0.090 C 
ATOM      9  O4  PAX d         -33.421 -31.174  17.711  0.00  0.00    -0.353 OA
ATOM     10  C1  PAX d         -33.716 -30.733  16.404  0.00  0.00     0.140 C 
ATOM     11  C2  PAX d         -32.804 -31.632  15.547  0.00  0.00     0.106 C 
ATOM     12  H8  PAX d         -34.760 -30.975  16.157  0.00  0.00     0.122 H 
ATOM     13  C3  PAX d         -32.952 -32.999  16.232  0.00  0.00     0.107 C 
ATOM     14  H9  PAX d         -31.762 -31.291  15.636  0.00  0.00     0.093 H 
ATOM     15  H11 PAX d         -32.028 -33.591  16.154  0.00  0.00     0.092 H 
ATOM     16  H7  PAX d         -34.251 -33.096  17.948  0.00  0.00     0.090 H 
BRANCH  10  17
ATOM     17  N9A PAX d         -33.593 -29.246  16.302  0.00  0.00    -0.294 N 
ATOM     18  C4A PAX d         -32.840 -28.339  17.038  0.00  0.00     0.167 A 
ATOM     19  N3A PAX d         -31.992 -28.601  18.082  0.00  0.00    -0.222 NA
ATOM     20  C5A PAX d         -33.125 -27.071  16.485  0.00  0.00     0.149 A 
ATOM     21  C2A PAX d         -31.413 -27.460  18.572  0.00  0.00     0.091 A 
ATOM     22  N1A PAX d         -31.595 -26.172  18.138  0.00  0.00    -0.222 NA
ATOM     23  H1  PAX d         -30.729 -27.592  19.402  0.00  0.00     0.146 H 
ATOM     24  C6A PAX d         -32.454 -25.943  17.084  0.00  0.00     0.155 A 
ATOM     25  N6A PAX d         -32.617 -24.689  16.673  0.00  0.00    -0.382 N 
ATOM     26  H2  PAX d         -33.251 -24.482  15.888  0.00  0.00     0.157 HD
ATOM     27  H3  PAX d         -32.109 -23.923  17.139  0.00  0.00     0.157 HD
ATOM     28  N7A PAX d         -34.028 -27.184  15.438  0.00  0.00    -0.236 NA
ATOM     29  C8A PAX d         -34.272 -28.478  15.369  0.00  0.00     0.071 A 
ATOM     30  H4  PAX d         -34.953 -28.909  14.637  0.00  0.00     0.144 H 
ENDBRANCH  10  17
BRANCH  11  31
ATOM     31  O2  PAX d         -33.131 -31.621  14.163  0.00  0.00    -0.388 OA
ATOM     32  H10 PAX d         -32.717 -32.362  13.735  0.00  0.00     0.210 HD
ENDBRANCH  11  31
BRANCH  13  33
ATOM     33  O3  PAX d         -34.066 -33.730  15.712  0.00  0.00    -0.272 OA
BRANCH  33  34
ATOM     34  PG  PAX d         -33.882 -35.076  14.801  0.00  0.00     0.422 P 
ATOM     35  O1G PAX d         -33.048 -34.669  13.587  0.00  0.00    -0.617 OA
ATOM     36  O2G PAX d         -33.185 -36.083  15.706  0.00  0.00    -0.617 OA
ATOM     37  O3G PAX d         -35.275 -35.576  14.376  0.00  0.00    -0.617 OA
ENDBRANCH  33  34
ENDBRANCH  13  33
ENDBRANCH   5   8
ENDBRANCH   4   5
ENDBRANCH   1   4
BRANCH   1  38
ATOM     38  O3A PAX d         -29.750 -33.492  17.833  0.00  0.00    -0.180 OA
BRANCH  38  39
ATOM     39  PB  PAX d         -29.252 -34.179  16.502  0.00  0.00     0.418 P 
ATOM     40  O1B PAX d         -29.910 -35.493  16.368  0.00  0.00    -0.624 OA
ATOM     41  O2B PAX d         -29.393 -33.196  15.404  0.00  0.00    -0.624 OA
BRANCH  39  42
ATOM     42  O3  PAX d         -27.647 -34.302  16.737  0.00  0.00    -0.281 OA
BRANCH  42  43
ATOM     43  C3  PAX d         -26.722 -33.465  16.038  0.00  0.00     0.081 C 
ATOM     44  C4  PAX d         -26.251 -34.183  14.768  0.00  0.00     0.087 C 
ATOM     45  O4  PAX d         -24.886 -34.617  15.020  0.00  0.00    -0.356 OA
ATOM     46  H14 PAX d         -26.890 -35.062  14.601  0.00  0.00     0.090 H 
ATOM     47  C1  PAX d         -24.581 -34.442  16.389  0.00  0.00     0.116 C 
ATOM     48  C2  PAX d         -25.458 -33.290  16.863  0.00  0.00     0.003 C 
ATOM     49  H15 PAX d         -24.830 -35.353  16.954  0.00  0.00     0.118 H 
ATOM     50  H16 PAX d         -24.982 -32.319  16.657  0.00  0.00     0.043 H 
ATOM     51  H17 PAX d         -25.672 -33.372  17.939  0.00  0.00     0.043 H 
ATOM     52  H18 PAX d         -27.185 -32.495  15.805  0.00  0.00     0.088 H 
BRANCH  44  53
ATOM     53  C5  PAX d         -26.305 -33.314  13.522  0.00  0.00     0.059 C 
ATOM     54  H12 PAX d         -25.631 -33.733  12.760  0.00  0.00     0.079 H 
ATOM     55  H13 PAX d         -27.334 -33.303  13.135  0.00  0.00     0.079 H 
BRANCH  53  56
ATOM     56  O5  PAX d         -25.897 -31.956  13.823  0.00  0.00    -0.280 OA
BRANCH  56  57
ATOM     57  PD  PAX d         -24.570 -31.265  13.136  0.00  0.00     0.422 P 
ATOM     58  O1D PAX d         -23.932 -32.378  12.284  0.00  0.00    -0.617 OA
ATOM     59  O2D PAX d         -23.662 -30.808  14.301  0.00  0.00    -0.617 OA
ATOM     60  O3D PAX d         -25.091 -30.094  12.284  0.00  0.00    -0.617 OA
ENDBRANCH  56  57
ENDBRANCH  53  56
ENDBRANCH  44  53
BRANCH  47  61
ATOM     61  N1T PAX d         -23.116 -34.154  16.550  0.00  0.00    -0.282 N 
ATOM     62  C6T PAX d         -22.282 -33.871  15.439  0.00  0.00    -0.002 A 
ATOM     63  C5T PAX d         -20.960 -33.606  15.558  0.00  0.00     0.022 A 
ATOM     64  H19 PAX d         -22.725 -33.867  14.444  0.00  0.00     0.113 H 
ATOM     65  C4T PAX d         -20.352 -33.606  16.894  0.00  0.00     0.256 A 
ATOM     66  N3T PAX d         -21.231 -33.898  17.956  0.00  0.00    -0.275 N 
ATOM     67  O4T PAX d         -19.171 -33.369  17.154  0.00  0.00    -0.267 OA
ATOM     68  C2T PAX d         -22.593 -34.176  17.866  0.00  0.00     0.331 A 
ATOM     69  H20 PAX d         -20.833 -33.907  18.873  0.00  0.00     0.173 HD
ATOM     70  O2T PAX d         -23.266 -34.414  18.843  0.00  0.00    -0.246 OA
BRANCH  63  71
ATOM     71  CM5 PAX d         -20.144 -33.311  14.339  0.00  0.00    -0.045 C 
ATOM     72  H21 PAX d         -20.769 -32.797  13.595  0.00  0.00     0.033 H 
ATOM     73  H22 PAX d         -19.767 -34.253  13.913  0.00  0.00     0.033 H 
ATOM     74  H23 PAX d         -19.295 -32.667  14.613  0.00  0.00     0.033 H 
ENDBRANCH  63  71
ENDBRANCH  47  61
ENDBRANCH  42  43
ENDBRANCH  39  42
ENDBRANCH  38  39
ENDBRANCH   1  38
TORSDOF 16
ENDMDL
MODEL 5
REMARK VINA RESULT:      -5.2      3.858      7.018
REMARK  16 active torsions:
REMARK  status: ('A' for Active; 'I' for Inactive)
REMARK    1  A    between atoms: PA_1  and  O5_4 
REMARK    2  A    between atoms: O3A_8  and  PA_1 
REMARK    3  A    between atoms: O5_4  and  C5_23 
REMARK    4  A    between atoms: PB_5  and  O3A_8 
REMARK    5  A    between atoms: O3_38  and  PB_5 
REMARK    6  A    between atoms: O3_30  and  PG_9 
REMARK    7  A    between atoms: C1_26  and  N9A_13 
REMARK    8  A    between atoms: C5_23  and  C4_24 
REMARK    9  A    between atoms: C2_27  and  O2_28 
REMARK   10  A    between atoms: C3_29  and  O3_30 
REMARK   11  A    between atoms: C5_32  and  O5_31 
REMARK   12  A    between atoms: O5_31  and  PD_39 
REMARK   13  A    between atoms: C4_33  and  C5_32 
REMARK   14  A    between atoms: C1_35  and  N1T_43 
REMARK   15  A    between atoms: C3_37  and  O3_38 
REMARK   16  A    between atoms: C5T_50  and  CM5_51 
ROOT
ATOM      1  PA  PAX d         -28.383 -30.389  19.170  0.00  0.00     0.417 P 
ATOM      2  O1A PAX d         -27.438 -29.349  19.779  0.00  0.00    -0.624 OA
ATOM      3  O2A PAX d         -28.493 -31.724  19.914  0.00  0.00    -0.624 OA
ENDROOT
BRANCH   1   4
ATOM      4  O5  PAX d         -29.853 -29.797  18.999  0.00  0.00    -0.287 OA
BRANCH   4   5
ATOM      5  C5  PAX d         -30.358 -29.460  17.726  0.00  0.00     0.058 C 
ATOM      6  H5  PAX d         -31.098 -30.212  17.414  0.00  0.00     0.079 H 
ATOM      7  H6  PAX d         -29.533 -29.434  17.000  0.00  0.00     0.079 H 
BRANCH   5   8
ATOM      8  C4  PAX d         -31.010 -28.114  17.789  0.00  0.00     0.090 C 
ATOM      9  O4  PAX d         -30.051 -27.067  17.426  0.00  0.00    -0.353 OA
ATOM     10  C1  PAX d         -30.755 -26.041  16.760  0.00  0.00     0.140 C 
ATOM     11  C2  PAX d         -31.735 -26.842  15.881  0.00  0.00     0.106 C 
ATOM     12  H8  PAX d         -31.345 -25.463  17.487  0.00  0.00     0.122 H 
ATOM     13  C3  PAX d         -32.193 -27.958  16.832  0.00  0.00     0.107 C 
ATOM     14  H9  PAX d         -31.191 -27.286  15.034  0.00  0.00     0.093 H 
ATOM     15  H11 PAX d         -32.415 -28.887  16.285  0.00  0.00     0.092 H 
ATOM     16  H7  PAX d         -31.361 -27.952  18.819  0.00  0.00     0.090 H 
BRANCH  10  17
ATOM     17  N9A PAX d         -29.810 -25.075  16.120  0.00  0.00    -0.294 N 
ATOM     18  C4A PAX d         -28.953 -25.217  15.035  0.00  0.00     0.167 A 
ATOM     19  N3A PAX d         -28.759 -26.328  14.256  0.00  0.00    -0.222 NA
ATOM     20  C5A PAX d         -28.313 -23.966  14.890  0.00  0.00     0.149 A 
ATOM     21  C2A PAX d         -27.835 -26.107  13.270  0.00  0.00     0.091 A 
ATOM     22  N1A PAX d         -27.140 -24.954  13.012  0.00  0.00    -0.222 NA
ATOM     23  H1  PAX d         -27.629 -26.945  12.614  0.00  0.00     0.146 H 
ATOM     24  C6A PAX d         -27.359 -23.854  13.813  0.00  0.00     0.155 A 
ATOM     25  N6A PAX d         -26.680 -22.742  13.548  0.00  0.00    -0.382 N 
ATOM     26  H2  PAX d         -26.820 -21.902  14.127  0.00  0.00     0.157 HD
ATOM     27  H3  PAX d         -26.013 -22.721  12.763  0.00  0.00     0.157 HD
ATOM     28  N7A PAX d         -28.756 -23.074  15.855  0.00  0.00    -0.236 NA
ATOM     29  C8A PAX d         -29.633 -23.769  16.551  0.00  0.00     0.071 A 
ATOM     30  H4  PAX d         -30.175 -23.352  17.398  0.00  0.00     0.144 H 
ENDBRANCH  10  17
BRANCH  11  31
ATOM     31  O2  PAX d         -32.786 -26.055  15.336  0.00  0.00    -0.388 OA
ATOM     32  H10 PAX d         -33.482 -25.970  15.978  0.00  0.00     0.210 HD
ENDBRANCH  11  31
BRANCH  13  33
ATOM     33  O3  PAX d         -33.319 -27.551  17.616  0.00  0.00    -0.272 OA
BRANCH  33  34
ATOM     34  PG  PAX d         -34.801 -28.219  17.433  0.00  0.00     0.422 P 
ATOM     35  O1G PAX d         -34.892 -29.361  18.442  0.00  0.00    -0.617 OA
ATOM     36  O2G PAX d         -35.786 -27.090  17.702  0.00  0.00    -0.617 OA
ATOM     37  O3G PAX d         -34.929 -28.741  15.990  0.00  0.00    -0.617 OA
ENDBRANCH  33  34
ENDBRANCH  13  33
ENDBRANCH   5   8
ENDBRANCH   4   5
ENDBRANCH   1   4
BRANCH   1  38
ATOM     38  O3A PAX d         -27.989 -30.665  17.659  0.00  0.00    -0.180 OA
BRANCH  38  39
ATOM     39  PB  PAX d         -27.562 -31.958  16.860  0.00  0.00     0.418 P 
ATOM     40  O1B PAX d         -27.469 -31.622  15.426  0.00  0.00    -0.624 OA
ATOM     41  O2B PAX d         -26.379 -32.538  17.534  0.00  0.00    -0.624 OA
BRANCH  39  42
ATOM     42  O3  PAX d         -28.770 -32.998  17.184  0.00  0.00    -0.281 OA
BRANCH  42  43
ATOM     43  C3  PAX d         -29.052 -34.106  16.326  0.00  0.00     0.081 C 
ATOM     44  C4  PAX d         -28.713 -33.726  14.880  0.00  0.00     0.087 C 
ATOM     45  O4  PAX d         -29.982 -33.526  14.196  0.00  0.00    -0.356 OA
ATOM     46  H14 PAX d         -28.147 -32.783  14.885  0.00  0.00     0.090 H 
ATOM     47  C1  PAX d         -31.030 -33.515  15.144  0.00  0.00     0.116 C 
ATOM     48  C2  PAX d         -30.548 -34.376  16.304  0.00  0.00     0.003 C 
ATOM     49  H15 PAX d         -31.214 -32.489  15.495  0.00  0.00     0.118 H 
ATOM     50  H16 PAX d         -30.756 -35.440  16.121  0.00  0.00     0.043 H 
ATOM     51  H17 PAX d         -31.020 -34.067  17.249  0.00  0.00     0.043 H 
ATOM     52  H18 PAX d         -28.491 -34.995  16.651  0.00  0.00     0.088 H 
BRANCH  44  53
ATOM     53  C5  PAX d         -27.883 -34.772  14.154  0.00  0.00     0.059 C 
ATOM     54  H12 PAX d         -28.481 -35.689  14.036  0.00  0.00     0.079 H 
ATOM     55  H13 PAX d         -27.604 -34.387  13.162  0.00  0.00     0.079 H 
BRANCH  53  56
ATOM     56  O5  PAX d         -26.680 -35.082  14.899  0.00  0.00    -0.280 OA
BRANCH  56  57
ATOM     57  PD  PAX d         -25.187 -34.603  14.396  0.00  0.00     0.422 P 
ATOM     58  O1D PAX d         -24.664 -35.761  13.525  0.00  0.00    -0.617 OA
ATOM     59  O2D PAX d         -24.344 -34.387  15.673  0.00  0.00    -0.617 OA
ATOM     60  O3D PAX d         -25.402 -33.309  13.591  0.00  0.00    -0.617 OA
ENDBRANCH  56  57
ENDBRANCH  53  56
ENDBRANCH  44  53
BRANCH  47  61
ATOM     61  N1T PAX d         -32.286 -34.047  14.516  0.00  0.00    -0.282 N 
ATOM     62  C6T PAX d         -33.554 -33.458  14.760  0.00  0.00    -0.002 A 
ATOM     63  C5T PAX d         -34.699 -33.917  14.205  0.00  0.00     0.022 A 
ATOM     64  H19 PAX d         -33.607 -32.597  15.425  0.00  0.00     0.113 H 
ATOM     65  C4T PAX d         -34.639 -35.075  13.305  0.00  0.00     0.256 A 
ATOM     66  N3T PAX d         -33.354 -35.617  13.106  0.00  0.00    -0.275 N 
ATOM     67  O4T PAX d         -35.594 -35.590  12.719  0.00  0.00    -0.267 OA
ATOM     68  C2T PAX d         -32.158 -35.170  13.663  0.00  0.00     0.331 A 
ATOM     69  H20 PAX d         -33.294 -36.410  12.499  0.00  0.00     0.173 HD
ATOM     70  O2T PAX d         -31.100 -35.706  13.426  0.00  0.00    -0.246 OA
BRANCH  63  71
ATOM     71  CM5 PAX d         -35.999 -33.241  14.505  0.00  0.00    -0.045 C 
ATOM     72  H21 PAX d         -35.911 -32.166  14.292  0.00  0.00     0.033 H 
ATOM     73  H22 PAX d         -36.250 -33.384  15.567  0.00  0.00     0.033 H 
ATOM     74  H23 PAX d         -36.792 -33.675  13.879  0.00  0.00     0.033 H 
ENDBRANCH  63  71
ENDBRANCH  47  61
ENDBRANCH  42  43
ENDBRANCH  39  42
ENDBRANCH  38  39
ENDBRANCH   1  38
TORSDOF 16
ENDMDL
MODEL 6
REMARK VINA RESULT:      -4.9      1.690      1.978
REMARK  16 active torsions:
REMARK  status: ('A' for Active; 'I' for Inactive)
REMARK    1  A    between atoms: PA_1  and  O5_4 
REMARK    2  A    between atoms: O3A_8  and  PA_1 
REMARK    3  A    between atoms: O5_4  and  C5_23 
REMARK    4  A    between atoms: PB_5  and  O3A_8 
REMARK    5  A    between atoms: O3_38  and  PB_5 
REMARK    6  A    between atoms: O3_30  and  PG_9 
REMARK    7  A    between atoms: C1_26  and  N9A_13 
REMARK    8  A    between atoms: C5_23  and  C4_24 
REMARK    9  A    between atoms: C2_27  and  O2_28 
REMARK   10  A    between atoms: C3_29  and  O3_30 
REMARK   11  A    between atoms: C5_32  and  O5_31 
REMARK   12  A    between atoms: O5_31  and  PD_39 
REMARK   13  A    between atoms: C4_33  and  C5_32 
REMARK   14  A    between atoms: C1_35  and  N1T_43 
REMARK   15  A    between atoms: C3_37  and  O3_38 
REMARK   16  A    between atoms: C5T_50  and  CM5_51 
ROOT
ATOM      1  PA  PAX d         -30.663 -34.539  13.948  0.00  0.00     0.417 P 
ATOM      2  O1A PAX d         -31.448 -34.751  15.246  0.00  0.00    -0.624 OA
ATOM      3  O2A PAX d         -30.494 -35.768  13.048  0.00  0.00    -0.624 OA
ENDROOT
BRANCH   1   4
ATOM      4  O5  PAX d         -31.308 -33.372  13.073  0.00  0.00    -0.287 OA
BRANCH   4   5
ATOM      5  C5  PAX d         -30.551 -32.244  12.694  0.00  0.00     0.058 C 
ATOM      6  H5  PAX d         -30.719 -32.033  11.627  0.00  0.00     0.079 H 
ATOM      7  H6  PAX d         -29.483 -32.445  12.864  0.00  0.00     0.079 H 
BRANCH   5   8
ATOM      8  C4  PAX d         -30.973 -31.063  13.509  0.00  0.00     0.090 C 
ATOM      9  O4  PAX d         -29.899 -30.066  13.555  0.00  0.00    -0.353 OA
ATOM     10  C1  PAX d         -30.491 -28.787  13.598  0.00  0.00     0.140 C 
ATOM     11  C2  PAX d         -31.665 -28.942  12.611  0.00  0.00     0.106 C 
ATOM     12  H8  PAX d         -30.911 -28.605  14.599  0.00  0.00     0.122 H 
ATOM     13  C3  PAX d         -32.202 -30.339  12.956  0.00  0.00     0.107 C 
ATOM     14  H9  PAX d         -31.281 -28.944  11.581  0.00  0.00     0.093 H 
ATOM     15  H11 PAX d         -32.619 -30.840  12.069  0.00  0.00     0.092 H 
ATOM     16  H7  PAX d         -31.195 -31.413  14.528  0.00  0.00     0.090 H 
BRANCH  10  17
ATOM     17  N9A PAX d         -29.471 -27.718  13.369  0.00  0.00    -0.294 N 
ATOM     18  C4A PAX d         -29.187 -26.558  14.080  0.00  0.00     0.167 A 
ATOM     19  N3A PAX d         -29.801 -26.094  15.214  0.00  0.00    -0.222 NA
ATOM     20  C5A PAX d         -28.117 -25.943  13.392  0.00  0.00     0.149 A 
ATOM     21  C2A PAX d         -29.258 -24.913  15.645  0.00  0.00     0.091 A 
ATOM     22  N1A PAX d         -28.227 -24.207  15.081  0.00  0.00    -0.222 NA
ATOM     23  H1  PAX d         -29.697 -24.486  16.539  0.00  0.00     0.146 H 
ATOM     24  C6A PAX d         -27.629 -24.702  13.942  0.00  0.00     0.155 A 
ATOM     25  N6A PAX d         -26.628 -24.007  13.410  0.00  0.00    -0.382 N 
ATOM     26  H2  PAX d         -26.159 -24.348  12.559  0.00  0.00     0.157 HD
ATOM     27  H3  PAX d         -26.320 -23.127  13.849  0.00  0.00     0.157 HD
ATOM     28  N7A PAX d         -27.749 -26.695  12.287  0.00  0.00    -0.236 NA
ATOM     29  C8A PAX d         -28.570 -27.725  12.316  0.00  0.00     0.071 A 
ATOM     30  H4  PAX d         -28.543 -28.519  11.571  0.00  0.00     0.144 H 
ENDBRANCH  10  17
BRANCH  11  31
ATOM     31  O2  PAX d         -32.625 -27.897  12.698  0.00  0.00    -0.388 OA
ATOM     32  H10 PAX d         -33.377 -28.200  13.195  0.00  0.00     0.210 HD
ENDBRANCH  11  31
BRANCH  13  33
ATOM     33  O3  PAX d         -33.169 -30.286  14.008  0.00  0.00    -0.272 OA
BRANCH  33  34
ATOM     34  PG  PAX d         -34.275 -31.468  14.242  0.00  0.00     0.422 P 
ATOM     35  O1G PAX d         -34.414 -32.204  12.911  0.00  0.00    -0.617 OA
ATOM     36  O2G PAX d         -33.709 -32.334  15.359  0.00  0.00    -0.617 OA
ATOM     37  O3G PAX d         -35.607 -30.818  14.659  0.00  0.00    -0.617 OA
ENDBRANCH  33  34
ENDBRANCH  13  33
ENDBRANCH   5   8
ENDBRANCH   4   5
ENDBRANCH   1   4
BRANCH   1  38
ATOM     38  O3A PAX d         -29.237 -33.926  14.268  0.00  0.00    -0.180 OA
BRANCH  38  39
ATOM     39  PB  PAX d         -28.607 -33.223  15.534  0.00  0.00     0.418 P 
ATOM     40  O1B PAX d         -27.783 -32.084  15.086  0.00  0.00    -0.624 OA
ATOM     41  O2B PAX d         -29.698 -32.975  16.504  0.00  0.00    -0.624 OA
BRANCH  39  42
ATOM     42  O3  PAX d         -27.723 -34.412  16.205  0.00  0.00    -0.281 OA
BRANCH  42  43
ATOM     43  C3  PAX d         -26.603 -34.127  17.046  0.00  0.00     0.081 C 
ATOM     44  C4  PAX d         -26.254 -32.639  16.937  0.00  0.00     0.087 C 
ATOM     45  O4  PAX d         -25.036 -32.557  16.147  0.00  0.00    -0.356 OA
ATOM     46  H14 PAX d         -27.069 -32.122  16.409  0.00  0.00     0.090 H 
ATOM     47  C1  PAX d         -24.758 -33.820  15.577  0.00  0.00     0.116 C 
ATOM     48  C2  PAX d         -25.369 -34.844  16.525  0.00  0.00     0.003 C 
ATOM     49  H15 PAX d         -25.232 -33.902  14.587  0.00  0.00     0.118 H 
ATOM     50  H16 PAX d         -24.676 -35.088  17.344  0.00  0.00     0.043 H 
ATOM     51  H17 PAX d         -25.643 -35.765  15.989  0.00  0.00     0.043 H 
ATOM     52  H18 PAX d         -26.823 -34.414  18.086  0.00  0.00     0.088 H 
BRANCH  44  53
ATOM     53  C5  PAX d         -26.055 -31.959  18.283  0.00  0.00     0.059 C 
ATOM     54  H12 PAX d         -26.442 -32.615  19.078  0.00  0.00     0.079 H 
ATOM     55  H13 PAX d         -24.982 -31.783  18.443  0.00  0.00     0.079 H 
BRANCH  53  56
ATOM     56  O5  PAX d         -26.756 -30.692  18.328  0.00  0.00    -0.280 OA
BRANCH  56  57
ATOM     57  PD  PAX d         -28.297 -30.560  18.892  0.00  0.00     0.422 P 
ATOM     58  O1D PAX d         -28.228 -29.500  20.008  0.00  0.00    -0.617 OA
ATOM     59  O2D PAX d         -28.692 -31.959  19.419  0.00  0.00    -0.617 OA
ATOM     60  O3D PAX d         -29.153 -30.104  17.697  0.00  0.00    -0.617 OA
ENDBRANCH  56  57
ENDBRANCH  53  56
ENDBRANCH  44  53
BRANCH  47  61
ATOM     61  N1T PAX d         -23.275 -33.992  15.422  0.00  0.00    -0.282 N 
ATOM     62  C6T PAX d         -22.686 -34.341  14.180  0.00  0.00    -0.002 A 
ATOM     63  C5T PAX d         -21.352 -34.500  14.015  0.00  0.00     0.022 A 
ATOM     64  H19 PAX d         -23.337 -34.488  13.320  0.00  0.00     0.113 H 
ATOM     65  C4T PAX d         -20.465 -34.301  15.166  0.00  0.00     0.256 A 
ATOM     66  N3T PAX d         -21.108 -33.960  16.372  0.00  0.00    -0.275 N 
ATOM     67  O4T PAX d         -19.235 -34.396  15.160  0.00  0.00    -0.267 OA
ATOM     68  C2T PAX d         -22.477 -33.791  16.575  0.00  0.00     0.331 A 
ATOM     69  H20 PAX d         -20.519 -33.825  17.169  0.00  0.00     0.173 HD
ATOM     70  O2T PAX d         -22.933 -33.494  17.655  0.00  0.00    -0.246 OA
BRANCH  63  71
ATOM     71  CM5 PAX d         -20.803 -34.863  12.671  0.00  0.00    -0.045 C 
ATOM     72  H21 PAX d         -19.730 -35.087  12.762  0.00  0.00     0.033 H 
ATOM     73  H22 PAX d         -20.944 -34.021  11.977  0.00  0.00     0.033 H 
ATOM     74  H23 PAX d         -21.331 -35.748  12.287  0.00  0.00     0.033 H 
ENDBRANCH  63  71
ENDBRANCH  47  61
ENDBRANCH  42  43
ENDBRANCH  39  42
ENDBRANCH  38  39
ENDBRANCH   1  38
TORSDOF 16
ENDMDL
MODEL 7
REMARK VINA RESULT:      -4.6      4.406      8.357
REMARK  16 active torsions:
REMARK  status: ('A' for Active; 'I' for Inactive)
REMARK    1  A    between atoms: PA_1  and  O5_4 
REMARK    2  A    between atoms: O3A_8  and  PA_1 
REMARK    3  A    between atoms: O5_4  and  C5_23 
REMARK    4  A    between atoms: PB_5  and  O3A_8 
REMARK    5  A    between atoms: O3_38  and  PB_5 
REMARK    6  A    between atoms: O3_30  and  PG_9 
REMARK    7  A    between atoms: C1_26  and  N9A_13 
REMARK    8  A    between atoms: C5_23  and  C4_24 
REMARK    9  A    between atoms: C2_27  and  O2_28 
REMARK   10  A    between atoms: C3_29  and  O3_30 
REMARK   11  A    between atoms: C5_32  and  O5_31 
REMARK   12  A    between atoms: O5_31  and  PD_39 
REMARK   13  A    between atoms: C4_33  and  C5_32 
REMARK   14  A    between atoms: C1_35  and  N1T_43 
REMARK   15  A    between atoms: C3_37  and  O3_38 
REMARK   16  A    between atoms: C5T_50  and  CM5_51 
ROOT
ATOM      1  PA  PAX d         -26.772 -32.279  14.532  0.00  0.00     0.417 P 
ATOM      2  O1A PAX d         -26.655 -33.787  14.291  0.00  0.00    -0.624 OA
ATOM      3  O2A PAX d         -25.483 -31.465  14.375  0.00  0.00    -0.624 OA
ENDROOT
BRANCH   1   4
ATOM      4  O5  PAX d         -27.882 -31.632  13.588  0.00  0.00    -0.287 OA
BRANCH   4   5
ATOM      5  C5  PAX d         -27.752 -30.311  13.112  0.00  0.00     0.058 C 
ATOM      6  H5  PAX d         -27.057 -30.296  12.259  0.00  0.00     0.079 H 
ATOM      7  H6  PAX d         -27.361 -29.669  13.915  0.00  0.00     0.079 H 
BRANCH   5   8
ATOM      8  C4  PAX d         -29.090 -29.805  12.674  0.00  0.00     0.090 C 
ATOM      9  O4  PAX d         -30.033 -30.918  12.531  0.00  0.00    -0.353 OA
ATOM     10  C1  PAX d         -31.316 -30.452  12.887  0.00  0.00     0.140 C 
ATOM     11  C2  PAX d         -31.008 -29.558  14.105  0.00  0.00     0.106 C 
ATOM     12  H8  PAX d         -31.714 -29.810  12.088  0.00  0.00     0.122 H 
ATOM     13  C3  PAX d         -29.731 -28.828  13.661  0.00  0.00     0.107 C 
ATOM     14  H9  PAX d         -30.781 -30.190  14.977  0.00  0.00     0.093 H 
ATOM     15  H11 PAX d         -29.076 -28.606  14.517  0.00  0.00     0.092 H 
ATOM     16  H7  PAX d         -28.964 -29.301  11.705  0.00  0.00     0.090 H 
BRANCH  10  17
ATOM     17  N9A PAX d         -32.276 -31.590  13.032  0.00  0.00    -0.294 N 
ATOM     18  C4A PAX d         -32.164 -32.798  13.709  0.00  0.00     0.167 A 
ATOM     19  N3A PAX d         -31.101 -33.259  14.440  0.00  0.00    -0.222 NA
ATOM     20  C5A PAX d         -33.389 -33.469  13.493  0.00  0.00     0.149 A 
ATOM     21  C2A PAX d         -31.342 -34.498  14.972  0.00  0.00     0.091 A 
ATOM     22  N1A PAX d         -32.474 -35.261  14.846  0.00  0.00    -0.222 NA
ATOM     23  H1  PAX d         -30.541 -34.926  15.563  0.00  0.00     0.146 H 
ATOM     24  C6A PAX d         -33.526 -34.768  14.105  0.00  0.00     0.155 A 
ATOM     25  N6A PAX d         -34.618 -35.519  13.995  0.00  0.00    -0.382 N 
ATOM     26  H2  PAX d         -35.424 -35.181  13.449  0.00  0.00     0.157 HD
ATOM     27  H3  PAX d         -34.660 -36.439  14.457  0.00  0.00     0.157 HD
ATOM     28  N7A PAX d         -34.235 -32.703  12.705  0.00  0.00    -0.236 NA
ATOM     29  C8A PAX d         -33.538 -31.611  12.461  0.00  0.00     0.071 A 
ATOM     30  H4  PAX d         -33.924 -30.791  11.858  0.00  0.00     0.144 H 
ENDBRANCH  10  17
BRANCH  11  31
ATOM     31  O2  PAX d         -32.084 -28.707  14.474  0.00  0.00    -0.388 OA
ATOM     32  H10 PAX d         -31.960 -28.410  15.369  0.00  0.00     0.210 HD
ENDBRANCH  11  31
BRANCH  13  33
ATOM     33  O3  PAX d         -30.035 -27.634  12.935  0.00  0.00    -0.272 OA
BRANCH  33  34
ATOM     34  PG  PAX d         -29.708 -26.143  13.522  0.00  0.00     0.422 P 
ATOM     35  O1G PAX d         -28.754 -26.339  14.699  0.00  0.00    -0.617 OA
ATOM     36  O2G PAX d         -29.089 -25.379  12.360  0.00  0.00    -0.617 OA
ATOM     37  O3G PAX d         -31.028 -25.494  13.978  0.00  0.00    -0.617 OA
ENDBRANCH  33  34
ENDBRANCH  13  33
ENDBRANCH   5   8
ENDBRANCH   4   5
ENDBRANCH   1   4
BRANCH   1  38
ATOM     38  O3A PAX d         -27.393 -32.002  15.964  0.00  0.00    -0.180 OA
BRANCH  38  39
ATOM     39  PB  PAX d         -26.894 -32.258  17.440  0.00  0.00     0.418 P 
ATOM     40  O1B PAX d         -27.550 -33.472  17.962  0.00  0.00    -0.624 OA
ATOM     41  O2B PAX d         -25.415 -32.192  17.437  0.00  0.00    -0.624 OA
BRANCH  39  42
ATOM     42  O3  PAX d         -27.363 -30.908  18.218  0.00  0.00    -0.281 OA
BRANCH  42  43
ATOM     43  C3  PAX d         -28.660 -30.796  18.807  0.00  0.00     0.081 C 
ATOM     44  C4  PAX d         -29.702 -31.388  17.851  0.00  0.00     0.087 C 
ATOM     45  O4  PAX d         -30.423 -30.263  17.276  0.00  0.00    -0.356 OA
ATOM     46  H14 PAX d         -29.180 -31.935  17.052  0.00  0.00     0.090 H 
ATOM     47  C1  PAX d         -29.761 -29.060  17.610  0.00  0.00     0.116 C 
ATOM     48  C2  PAX d         -29.049 -29.332  18.929  0.00  0.00     0.003 C 
ATOM     49  H15 PAX d         -29.023 -28.805  16.836  0.00  0.00     0.118 H 
ATOM     50  H16 PAX d         -29.723 -29.171  19.783  0.00  0.00     0.043 H 
ATOM     51  H17 PAX d         -28.160 -28.694  19.037  0.00  0.00     0.043 H 
ATOM     52  H18 PAX d         -28.680 -31.298  19.786  0.00  0.00     0.088 H 
BRANCH  44  53
ATOM     53  C5  PAX d         -30.672 -32.346  18.525  0.00  0.00     0.059 C 
ATOM     54  H12 PAX d         -30.495 -33.364  18.146  0.00  0.00     0.079 H 
ATOM     55  H13 PAX d         -30.503 -32.325  19.611  0.00  0.00     0.079 H 
BRANCH  53  56
ATOM     56  O5  PAX d         -32.043 -31.969  18.249  0.00  0.00    -0.280 OA
BRANCH  56  57
ATOM     57  PD  PAX d         -33.280 -33.053  18.301  0.00  0.00     0.422 P 
ATOM     58  O1D PAX d         -34.109 -32.780  17.031  0.00  0.00    -0.617 OA
ATOM     59  O2D PAX d         -34.065 -32.762  19.600  0.00  0.00    -0.617 OA
ATOM     60  O3D PAX d         -32.628 -34.447  18.292  0.00  0.00    -0.617 OA
ENDBRANCH  56  57
ENDBRANCH  53  56
ENDBRANCH  44  53
BRANCH  47  61
ATOM     61  N1T PAX d         -30.760 -27.944  17.715  0.00  0.00    -0.282 N 
ATOM     62  C6T PAX d         -30.372 -26.581  17.644  0.00  0.00    -0.002 A 
ATOM     63  C5T PAX d         -31.253 -25.558  17.733  0.00  0.00     0.022 A 
ATOM     64  H19 PAX d         -29.317 -26.348  17.510  0.00  0.00     0.113 H 
ATOM     65  C4T PAX d         -32.678 -25.860  17.910  0.00  0.00     0.256 A 
ATOM     66  N3T PAX d         -33.000 -27.230  17.979  0.00  0.00    -0.275 N 
ATOM     67  O4T PAX d         -33.591 -25.035  17.992  0.00  0.00    -0.267 OA
ATOM     68  C2T PAX d         -32.118 -28.305  17.891  0.00  0.00     0.331 A 
ATOM     69  H20 PAX d         -33.967 -27.455  18.104  0.00  0.00     0.173 HD
ATOM     70  O2T PAX d         -32.496 -29.452  17.960  0.00  0.00    -0.246 OA
BRANCH  63  71
ATOM     71  CM5 PAX d         -30.770 -24.145  17.643  0.00  0.00    -0.045 C 
ATOM     72  H21 PAX d         -30.994 -23.744  16.644  0.00  0.00     0.033 H 
ATOM     73  H22 PAX d         -29.683 -24.118  17.813  0.00  0.00     0.033 H 
ATOM     74  H23 PAX d         -31.275 -23.535  18.405  0.00  0.00     0.033 H 
ENDBRANCH  63  71
ENDBRANCH  47  61
ENDBRANCH  42  43
ENDBRANCH  39  42
ENDBRANCH  38  39
ENDBRANCH   1  38
TORSDOF 16
ENDMDL
MODEL 8
REMARK VINA RESULT:      -4.5      3.274      6.523
REMARK  16 active torsions:
REMARK  status: ('A' for Active; 'I' for Inactive)
REMARK    1  A    between atoms: PA_1  and  O5_4 
REMARK    2  A    between atoms: O3A_8  and  PA_1 
REMARK    3  A    between atoms: O5_4  and  C5_23 
REMARK    4  A    between atoms: PB_5  and  O3A_8 
REMARK    5  A    between atoms: O3_38  and  PB_5 
REMARK    6  A    between atoms: O3_30  and  PG_9 
REMARK    7  A    between atoms: C1_26  and  N9A_13 
REMARK    8  A    between atoms: C5_23  and  C4_24 
REMARK    9  A    between atoms: C2_27  and  O2_28 
REMARK   10  A    between atoms: C3_29  and  O3_30 
REMARK   11  A    between atoms: C5_32  and  O5_31 
REMARK   12  A    between atoms: O5_31  and  PD_39 
REMARK   13  A    between atoms: C4_33  and  C5_32 
REMARK   14  A    between atoms: C1_35  and  N1T_43 
REMARK   15  A    between atoms: C3_37  and  O3_38 
REMARK   16  A    between atoms: C5T_50  and  CM5_51 
ROOT
ATOM      1  PA  PAX d         -28.076 -30.684  19.045  0.00  0.00     0.417 P 
ATOM      2  O1A PAX d         -27.593 -29.468  19.841  0.00  0.00    -0.624 OA
ATOM      3  O2A PAX d         -28.284 -31.977  19.841  0.00  0.00    -0.624 OA
ENDROOT
BRANCH   1   4
ATOM      4  O5  PAX d         -29.431 -30.360  18.270  0.00  0.00    -0.287 OA
BRANCH   4   5
ATOM      5  C5  PAX d         -29.492 -30.407  16.862  0.00  0.00     0.058 C 
ATOM      6  H5  PAX d         -29.810 -31.411  16.542  0.00  0.00     0.079 H 
ATOM      7  H6  PAX d         -28.499 -30.187  16.444  0.00  0.00     0.079 H 
BRANCH   5   8
ATOM      8  C4  PAX d         -30.476 -29.392  16.371  0.00  0.00     0.090 C 
ATOM      9  O4  PAX d         -29.874 -28.056  16.376  0.00  0.00    -0.353 OA
ATOM     10  C1  PAX d         -30.411 -27.331  15.292  0.00  0.00     0.140 C 
ATOM     11  C2  PAX d         -30.456 -28.398  14.181  0.00  0.00     0.106 C 
ATOM     12  H8  PAX d         -31.445 -27.033  15.519  0.00  0.00     0.122 H 
ATOM     13  C3  PAX d         -30.952 -29.639  14.938  0.00  0.00     0.107 C 
ATOM     14  H9  PAX d         -29.439 -28.583  13.806  0.00  0.00     0.093 H 
ATOM     15  H11 PAX d         -30.536 -30.564  14.512  0.00  0.00     0.092 H 
ATOM     16  H7  PAX d         -31.346 -29.407  17.043  0.00  0.00     0.090 H 
BRANCH  10  17
ATOM     17  N9A PAX d         -29.647 -26.064  15.067  0.00  0.00    -0.294 N 
ATOM     18  C4A PAX d         -28.563 -25.785  14.243  0.00  0.00     0.167 A 
ATOM     19  N3A PAX d         -27.903 -26.641  13.401  0.00  0.00    -0.222 NA
ATOM     20  C5A PAX d         -28.273 -24.417  14.447  0.00  0.00     0.149 A 
ATOM     21  C2A PAX d         -26.877 -26.021  12.739  0.00  0.00     0.091 A 
ATOM     22  N1A PAX d         -26.484 -24.711  12.837  0.00  0.00    -0.222 NA
ATOM     23  H1  PAX d         -26.309 -26.640  12.054  0.00  0.00     0.146 H 
ATOM     24  C6A PAX d         -27.170 -23.875  13.692  0.00  0.00     0.155 A 
ATOM     25  N6A PAX d         -26.778 -22.607  13.773  0.00  0.00    -0.382 N 
ATOM     26  H2  PAX d         -27.269 -21.955  14.402  0.00  0.00     0.157 HD
ATOM     27  H3  PAX d         -25.984 -22.275  13.207  0.00  0.00     0.157 HD
ATOM     28  N7A PAX d         -29.148 -23.864  15.370  0.00  0.00    -0.236 NA
ATOM     29  C8A PAX d         -29.934 -24.867  15.703  0.00  0.00     0.071 A 
ATOM     30  H4  PAX d         -30.745 -24.764  16.423  0.00  0.00     0.144 H 
ENDBRANCH  10  17
BRANCH  11  31
ATOM     31  O2  PAX d         -31.252 -28.024  13.064  0.00  0.00    -0.388 OA
ATOM     32  H10 PAX d         -30.689 -27.866  12.314  0.00  0.00     0.210 HD
ENDBRANCH  11  31
BRANCH  13  33
ATOM     33  O3  PAX d         -32.381 -29.697  14.973  0.00  0.00    -0.272 OA
BRANCH  33  34
ATOM     34  PG  PAX d         -33.194 -31.082  15.283  0.00  0.00     0.422 P 
ATOM     35  O1G PAX d         -33.418 -31.766  13.936  0.00  0.00    -0.617 OA
ATOM     36  O2G PAX d         -32.298 -31.873  16.225  0.00  0.00    -0.617 OA
ATOM     37  O3G PAX d         -34.534 -30.725  15.954  0.00  0.00    -0.617 OA
ENDBRANCH  33  34
ENDBRANCH  13  33
ENDBRANCH   5   8
ENDBRANCH   4   5
ENDBRANCH   1   4
BRANCH   1  38
ATOM     38  O3A PAX d         -27.094 -30.969  17.834  0.00  0.00    -0.180 OA
BRANCH  38  39
ATOM     39  PB  PAX d         -26.454 -32.280  17.231  0.00  0.00     0.418 P 
ATOM     40  O1B PAX d         -26.200 -32.068  15.793  0.00  0.00    -0.624 OA
ATOM     41  O2B PAX d         -25.326 -32.677  18.103  0.00  0.00    -0.624 OA
BRANCH  39  42
ATOM     42  O3  PAX d         -27.600 -33.401  17.507  0.00  0.00    -0.281 OA
BRANCH  42  43
ATOM     43  C3  PAX d         -27.834 -34.473  16.591  0.00  0.00     0.081 C 
ATOM     44  C4  PAX d         -27.347 -34.061  15.197  0.00  0.00     0.087 C 
ATOM     45  O4  PAX d         -28.537 -33.798  14.403  0.00  0.00    -0.356 OA
ATOM     46  H14 PAX d         -26.754 -33.140  15.286  0.00  0.00     0.090 H 
ATOM     47  C1  PAX d         -29.670 -33.778  15.247  0.00  0.00     0.116 C 
ATOM     48  C2  PAX d         -29.329 -34.689  16.419  0.00  0.00     0.003 C 
ATOM     49  H15 PAX d         -29.855 -32.757  15.613  0.00  0.00     0.118 H 
ATOM     50  H16 PAX d         -29.552 -35.740  16.182  0.00  0.00     0.043 H 
ATOM     51  H17 PAX d         -29.879 -34.393  17.324  0.00  0.00     0.043 H 
ATOM     52  H18 PAX d         -27.335 -35.389  16.938  0.00  0.00     0.088 H 
BRANCH  44  53
ATOM     53  C5  PAX d         -26.485 -35.114  14.518  0.00  0.00     0.059 C 
ATOM     54  H12 PAX d         -26.881 -36.113  14.757  0.00  0.00     0.079 H 
ATOM     55  H13 PAX d         -26.514 -34.959  13.430  0.00  0.00     0.079 H 
BRANCH  53  56
ATOM     56  O5  PAX d         -25.112 -35.027  14.974  0.00  0.00    -0.280 OA
BRANCH  56  57
ATOM     57  PD  PAX d         -23.903 -34.454  14.014  0.00  0.00     0.422 P 
ATOM     58  O1D PAX d         -23.602 -35.593  13.021  0.00  0.00    -0.617 OA
ATOM     59  O2D PAX d         -22.711 -34.145  14.949  0.00  0.00    -0.617 OA
ATOM     60  O3D PAX d         -24.464 -33.199  13.321  0.00  0.00    -0.617 OA
ENDBRANCH  56  57
ENDBRANCH  53  56
ENDBRANCH  44  53
BRANCH  47  61
ATOM     61  N1T PAX d         -30.877 -34.248  14.486  0.00  0.00    -0.282 N 
ATOM     62  C6T PAX d         -31.960 -34.902  15.128  0.00  0.00    -0.002 A 
ATOM     63  C5T PAX d         -33.059 -35.332  14.465  0.00  0.00     0.022 A 
ATOM     64  H19 PAX d         -31.904 -35.066  16.203  0.00  0.00     0.113 H 
ATOM     65  C4T PAX d         -33.146 -35.114  13.017  0.00  0.00     0.256 A 
ATOM     66  N3T PAX d         -32.039 -34.464  12.437  0.00  0.00    -0.275 N 
ATOM     67  O4T PAX d         -34.088 -35.437  12.289  0.00  0.00    -0.267 OA
ATOM     68  C2T PAX d         -30.894 -34.011  13.090  0.00  0.00     0.331 A 
ATOM     69  H20 PAX d         -32.079 -34.311  11.449  0.00  0.00     0.173 HD
ATOM     70  O2T PAX d         -29.994 -33.460  12.499  0.00  0.00    -0.246 OA
BRANCH  63  71
ATOM     71  CM5 PAX d         -34.164 -36.009  15.211  0.00  0.00    -0.045 C 
ATOM     72  H21 PAX d         -33.849 -37.025  15.491  0.00  0.00     0.033 H 
ATOM     73  H22 PAX d         -35.057 -36.067  14.572  0.00  0.00     0.033 H 
ATOM     74  H23 PAX d         -34.399 -35.435  16.119  0.00  0.00     0.033 H 
ENDBRANCH  63  71
ENDBRANCH  47  61
ENDBRANCH  42  43
ENDBRANCH  39  42
ENDBRANCH  38  39
ENDBRANCH   1  38
TORSDOF 16
ENDMDL
MODEL 9
REMARK VINA RESULT:      -4.4      2.963      5.999
REMARK  16 active torsions:
REMARK  status: ('A' for Active; 'I' for Inactive)
REMARK    1  A    between atoms: PA_1  and  O5_4 
REMARK    2  A    between atoms: O3A_8  and  PA_1 
REMARK    3  A    between atoms: O5_4  and  C5_23 
REMARK    4  A    between atoms: PB_5  and  O3A_8 
REMARK    5  A    between atoms: O3_38  and  PB_5 
REMARK    6  A    between atoms: O3_30  and  PG_9 
REMARK    7  A    between atoms: C1_26  and  N9A_13 
REMARK    8  A    between atoms: C5_23  and  C4_24 
REMARK    9  A    between atoms: C2_27  and  O2_28 
REMARK   10  A    between atoms: C3_29  and  O3_30 
REMARK   11  A    between atoms: C5_32  and  O5_31 
REMARK   12  A    between atoms: O5_31  and  PD_39 
REMARK   13  A    between atoms: C4_33  and  C5_32 
REMARK   14  A    between atoms: C1_35  and  N1T_43 
REMARK   15  A    between atoms: C3_37  and  O3_38 
REMARK   16  A    between atoms: C5T_50  and  CM5_51 
ROOT
ATOM      1  PA  PAX d         -28.671 -32.195  18.739  0.00  0.00     0.417 P 
ATOM      2  O1A PAX d         -28.422 -31.672  20.157  0.00  0.00    -0.624 OA
ATOM      3  O2A PAX d         -29.869 -33.134  18.562  0.00  0.00    -0.624 OA
ENDROOT
BRANCH   1   4
ATOM      4  O5  PAX d         -28.830 -30.992  17.705  0.00  0.00    -0.287 OA
BRANCH   4   5
ATOM      5  C5  PAX d         -28.803 -29.651  18.138  0.00  0.00     0.058 C 
ATOM      6  H5  PAX d         -28.145 -29.065  17.479  0.00  0.00     0.079 H 
ATOM      7  H6  PAX d         -28.422 -29.607  19.169  0.00  0.00     0.079 H 
BRANCH   5   8
ATOM      8  C4  PAX d         -30.187 -29.084  18.093  0.00  0.00     0.090 C 
ATOM      9  O4  PAX d         -30.154 -27.696  17.623  0.00  0.00    -0.353 OA
ATOM     10  C1  PAX d         -31.330 -27.457  16.882  0.00  0.00     0.140 C 
ATOM     11  C2  PAX d         -31.487 -28.772  16.093  0.00  0.00     0.106 C 
ATOM     12  H8  PAX d         -32.188 -27.367  17.564  0.00  0.00     0.122 H 
ATOM     13  C3  PAX d         -31.129 -29.831  17.147  0.00  0.00     0.107 C 
ATOM     14  H9  PAX d         -30.747 -28.804  15.280  0.00  0.00     0.093 H 
ATOM     15  H11 PAX d         -30.651 -30.710  16.688  0.00  0.00     0.092 H 
ATOM     16  H7  PAX d         -30.604 -29.119  19.111  0.00  0.00     0.090 H 
BRANCH  10  17
ATOM     17  N9A PAX d         -31.241 -26.160  16.143  0.00  0.00    -0.294 N 
ATOM     18  C4A PAX d         -31.106 -25.889  14.786  0.00  0.00     0.167 A 
ATOM     19  N3A PAX d         -31.021 -26.786  13.753  0.00  0.00    -0.222 NA
ATOM     20  C5A PAX d         -31.080 -24.481  14.680  0.00  0.00     0.149 A 
ATOM     21  C2A PAX d         -30.897 -26.161  12.540  0.00  0.00     0.091 A 
ATOM     22  N1A PAX d         -30.857 -24.814  12.289  0.00  0.00    -0.222 NA
ATOM     23  H1  PAX d         -30.823 -26.810  11.676  0.00  0.00     0.146 H 
ATOM     24  C6A PAX d         -30.947 -23.939  13.350  0.00  0.00     0.155 A 
ATOM     25  N6A PAX d         -30.910 -22.635  13.089  0.00  0.00    -0.382 N 
ATOM     26  H2  PAX d         -30.975 -21.954  13.859  0.00  0.00     0.157 HD
ATOM     27  H3  PAX d         -30.816 -22.306  12.117  0.00  0.00     0.157 HD
ATOM     28  N7A PAX d         -31.191 -23.894  15.932  0.00  0.00    -0.236 NA
ATOM     29  C8A PAX d         -31.283 -24.918  16.756  0.00  0.00     0.071 A 
ATOM     30  H4  PAX d         -31.385 -24.798  17.833  0.00  0.00     0.144 H 
ENDBRANCH  10  17
BRANCH  11  31
ATOM     31  O2  PAX d         -32.768 -28.932  15.500  0.00  0.00    -0.388 OA
ATOM     32  H10 PAX d         -33.229 -28.101  15.515  0.00  0.00     0.210 HD
ENDBRANCH  11  31
BRANCH  13  33
ATOM     33  O3  PAX d         -32.273 -30.220  17.911  0.00  0.00    -0.272 OA
BRANCH  33  34
ATOM     34  PG  PAX d         -33.081 -31.615  17.631  0.00  0.00     0.422 P 
ATOM     35  O1G PAX d         -32.316 -32.348  16.532  0.00  0.00    -0.617 OA
ATOM     36  O2G PAX d         -33.085 -32.352  18.963  0.00  0.00    -0.617 OA
ATOM     37  O3G PAX d         -34.512 -31.270  17.179  0.00  0.00    -0.617 OA
ENDBRANCH  33  34
ENDBRANCH  13  33
ENDBRANCH   5   8
ENDBRANCH   4   5
ENDBRANCH   1   4
BRANCH   1  38
ATOM     38  O3A PAX d         -27.367 -32.904  18.182  0.00  0.00    -0.180 OA
BRANCH  38  39
ATOM     39  PB  PAX d         -25.867 -32.446  18.001  0.00  0.00     0.418 P 
ATOM     40  O1B PAX d         -25.708 -31.096  18.573  0.00  0.00    -0.624 OA
ATOM     41  O2B PAX d         -24.997 -33.537  18.495  0.00  0.00    -0.624 OA
BRANCH  39  42
ATOM     42  O3  PAX d         -25.675 -32.470  16.385  0.00  0.00    -0.281 OA
BRANCH  42  43
ATOM     43  C3  PAX d         -25.867 -33.666  15.627  0.00  0.00     0.081 C 
ATOM     44  C4  PAX d         -25.595 -33.375  14.146  0.00  0.00     0.087 C 
ATOM     45  O4  PAX d         -26.890 -33.352  13.484  0.00  0.00    -0.356 OA
ATOM     46  H14 PAX d         -25.122 -32.387  14.061  0.00  0.00     0.090 H 
ATOM     47  C1  PAX d         -27.916 -33.362  14.456  0.00  0.00     0.116 C 
ATOM     48  C2  PAX d         -27.330 -34.075  15.668  0.00  0.00     0.003 C 
ATOM     49  H15 PAX d         -28.191 -32.332  14.729  0.00  0.00     0.118 H 
ATOM     50  H16 PAX d         -27.439 -35.166  15.576  0.00  0.00     0.043 H 
ATOM     51  H17 PAX d         -27.811 -33.736  16.598  0.00  0.00     0.043 H 
ATOM     52  H18 PAX d         -25.217 -34.468  16.006  0.00  0.00     0.088 H 
BRANCH  44  53
ATOM     53  C5  PAX d         -24.683 -34.396  13.483  0.00  0.00     0.059 C 
ATOM     54  H12 PAX d         -25.223 -35.349  13.381  0.00  0.00     0.079 H 
ATOM     55  H13 PAX d         -24.396 -34.029  12.487  0.00  0.00     0.079 H 
BRANCH  53  56
ATOM     56  O5  PAX d         -23.488 -34.608  14.275  0.00  0.00    -0.280 OA
BRANCH  56  57
ATOM     57  PD  PAX d         -22.223 -33.555  14.256  0.00  0.00     0.422 P 
ATOM     58  O1D PAX d         -20.963 -34.439  14.197  0.00  0.00    -0.617 OA
ATOM     59  O2D PAX d         -22.317 -32.735  15.562  0.00  0.00    -0.617 OA
ATOM     60  O3D PAX d         -22.401 -32.695  12.992  0.00  0.00    -0.617 OA
ENDBRANCH  56  57
ENDBRANCH  53  56
ENDBRANCH  44  53
BRANCH  47  61
ATOM     61  N1T PAX d         -29.127 -34.059  13.908  0.00  0.00    -0.282 N 
ATOM     62  C6T PAX d         -30.386 -33.412  13.813  0.00  0.00    -0.002 A 
ATOM     63  C5T PAX d         -31.492 -34.017  13.320  0.00  0.00     0.022 A 
ATOM     64  H19 PAX d         -30.466 -32.380  14.152  0.00  0.00     0.113 H 
ATOM     65  C4T PAX d         -31.395 -35.406  12.858  0.00  0.00     0.256 A 
ATOM     66  N3T PAX d         -30.121 -35.996  12.982  0.00  0.00    -0.275 N 
ATOM     67  O4T PAX d         -32.310 -36.077  12.375  0.00  0.00    -0.267 OA
ATOM     68  C2T PAX d         -28.966 -35.401  13.485  0.00  0.00     0.331 A 
ATOM     69  H20 PAX d         -30.037 -36.944  12.676  0.00  0.00     0.173 HD
ATOM     70  O2T PAX d         -27.914 -35.994  13.548  0.00  0.00    -0.246 OA
BRANCH  63  71
ATOM     71  CM5 PAX d         -32.784 -33.268  13.246  0.00  0.00    -0.045 C 
ATOM     72  H21 PAX d         -32.586 -32.222  12.971  0.00  0.00     0.033 H 
ATOM     73  H22 PAX d         -33.284 -33.301  14.226  0.00  0.00     0.033 H 
ATOM     74  H23 PAX d         -33.433 -33.730  12.487  0.00  0.00     0.033 H 
ENDBRANCH  63  71
ENDBRANCH  47  61
ENDBRANCH  42  43
ENDBRANCH  39  42
ENDBRANCH  38  39
ENDBRANCH   1  38
TORSDOF 16
ENDMDL
MODEL 10
REMARK VINA RESULT:      -4.3      3.362     10.233
REMARK  16 active torsions:
REMARK  status: ('A' for Active; 'I' for Inactive)
REMARK    1  A    between atoms: PA_1  and  O5_4 
REMARK    2  A    between atoms: O3A_8  and  PA_1 
REMARK    3  A    between atoms: O5_4  and  C5_23 
REMARK    4  A    between atoms: PB_5  and  O3A_8 
REMARK    5  A    between atoms: O3_38  and  PB_5 
REMARK    6  A    between atoms: O3_30  and  PG_9 
REMARK    7  A    between atoms: C1_26  and  N9A_13 
REMARK    8  A    between atoms: C5_23  and  C4_24 
REMARK    9  A    between atoms: C2_27  and  O2_28 
REMARK   10  A    between atoms: C3_29  and  O3_30 
REMARK   11  A    between atoms: C5_32  and  O5_31 
REMARK   12  A    between atoms: O5_31  and  PD_39 
REMARK   13  A    between atoms: C4_33  and  C5_32 
REMARK   14  A    between atoms: C1_35  and  N1T_43 
REMARK   15  A    between atoms: C3_37  and  O3_38 
REMARK   16  A    between atoms: C5T_50  and  CM5_51 
ROOT
ATOM      1  PA  PAX d         -30.066 -29.279  13.768  0.00  0.00     0.417 P 
ATOM      2  O1A PAX d         -29.521 -29.342  12.338  0.00  0.00    -0.624 OA
ATOM      3  O2A PAX d         -31.547 -29.629  13.946  0.00  0.00    -0.624 OA
ENDROOT
BRANCH   1   4
ATOM      4  O5  PAX d         -29.218 -30.211  14.746  0.00  0.00    -0.287 OA
BRANCH   4   5
ATOM      5  C5  PAX d         -28.856 -31.521  14.370  0.00  0.00     0.058 C 
ATOM      6  H5  PAX d         -28.009 -31.480  13.669  0.00  0.00     0.079 H 
ATOM      7  H6  PAX d         -29.712 -32.012  13.883  0.00  0.00     0.079 H 
BRANCH   5   8
ATOM      8  C4  PAX d         -28.461 -32.298  15.586  0.00  0.00     0.090 C 
ATOM      9  O4  PAX d         -27.177 -32.970  15.366  0.00  0.00    -0.353 OA
ATOM     10  C1  PAX d         -26.487 -33.007  16.595  0.00  0.00     0.140 C 
ATOM     11  C2  PAX d         -26.794 -31.614  17.179  0.00  0.00     0.106 C 
ATOM     12  H8  PAX d         -26.942 -33.760  17.255  0.00  0.00     0.122 H 
ATOM     13  C3  PAX d         -28.281 -31.435  16.836  0.00  0.00     0.107 C 
ATOM     14  H9  PAX d         -26.204 -30.853  16.647  0.00  0.00     0.093 H 
ATOM     15  H11 PAX d         -28.528 -30.378  16.655  0.00  0.00     0.092 H 
ATOM     16  H7  PAX d         -29.242 -33.048  15.781  0.00  0.00     0.090 H 
BRANCH  10  17
ATOM     17  N9A PAX d         -25.065 -33.425  16.396  0.00  0.00    -0.294 N 
ATOM     18  C4A PAX d         -24.044 -33.656  17.311  0.00  0.00     0.167 A 
ATOM     19  N3A PAX d         -24.097 -33.552  18.676  0.00  0.00    -0.222 NA
ATOM     20  C5A PAX d         -22.921 -34.031  16.540  0.00  0.00     0.149 A 
ATOM     21  C2A PAX d         -22.897 -33.858  19.261  0.00  0.00     0.091 A 
ATOM     22  N1A PAX d         -21.732 -34.233  18.644  0.00  0.00    -0.222 NA
ATOM     23  H1  PAX d         -22.865 -33.795  20.343  0.00  0.00     0.146 H 
ATOM     24  C6A PAX d         -21.712 -34.330  17.269  0.00  0.00     0.155 A 
ATOM     25  N6A PAX d         -20.576 -34.699  16.685  0.00  0.00    -0.382 N 
ATOM     26  H2  PAX d         -20.526 -34.782  15.660  0.00  0.00     0.157 HD
ATOM     27  H3  PAX d         -19.744 -34.903  17.258  0.00  0.00     0.157 HD
ATOM     28  N7A PAX d         -23.232 -34.031  15.188  0.00  0.00    -0.236 NA
ATOM     29  C8A PAX d         -24.499 -33.670  15.155  0.00  0.00     0.071 A 
ATOM     30  H4  PAX d         -25.058 -33.572  14.225  0.00  0.00     0.144 H 
ENDBRANCH  10  17
BRANCH  11  31
ATOM     31  O2  PAX d         -26.483 -31.494  18.561  0.00  0.00    -0.388 OA
ATOM     32  H10 PAX d         -25.878 -30.772  18.687  0.00  0.00     0.210 HD
ENDBRANCH  11  31
BRANCH  13  33
ATOM     33  O3  PAX d         -29.125 -31.984  17.853  0.00  0.00    -0.272 OA
BRANCH  33  34
ATOM     34  PG  PAX d         -30.756 -31.992  17.728  0.00  0.00     0.422 P 
ATOM     35  O1G PAX d         -31.107 -33.045  16.679  0.00  0.00    -0.617 OA
ATOM     36  O2G PAX d         -31.264 -32.331  19.122  0.00  0.00    -0.617 OA
ATOM     37  O3G PAX d         -31.221 -30.592  17.288  0.00  0.00    -0.617 OA
ENDBRANCH  33  34
ENDBRANCH  13  33
ENDBRANCH   5   8
ENDBRANCH   4   5
ENDBRANCH   1   4
BRANCH   1  38
ATOM     38  O3A PAX d         -29.788 -27.850  14.395  0.00  0.00    -0.180 OA
BRANCH  38  39
ATOM     39  PB  PAX d         -29.037 -26.559  13.885  0.00  0.00     0.418 P 
ATOM     40  O1B PAX d         -28.759 -25.682  15.038  0.00  0.00    -0.624 OA
ATOM     41  O2B PAX d         -27.907 -26.998  13.035  0.00  0.00    -0.624 OA
BRANCH  39  42
ATOM     42  O3  PAX d         -30.104 -25.908  12.844  0.00  0.00    -0.281 OA
BRANCH  42  43
ATOM     43  C3  PAX d         -31.416 -25.522  13.261  0.00  0.00     0.081 C 
ATOM     44  C4  PAX d         -31.462 -24.000  13.440  0.00  0.00     0.087 C 
ATOM     45  O4  PAX d         -31.485 -23.752  14.873  0.00  0.00    -0.356 OA
ATOM     46  H14 PAX d         -30.550 -23.564  13.007  0.00  0.00     0.090 H 
ATOM     47  C1  PAX d         -31.216 -24.956  15.563  0.00  0.00     0.116 C 
ATOM     48  C2  PAX d         -31.701 -26.073  14.648  0.00  0.00     0.003 C 
ATOM     49  H15 PAX d         -30.135 -25.061  15.737  0.00  0.00     0.118 H 
ATOM     50  H16 PAX d         -32.776 -26.260  14.787  0.00  0.00     0.043 H 
ATOM     51  H17 PAX d         -31.140 -27.003  14.828  0.00  0.00     0.043 H 
ATOM     52  H18 PAX d         -32.165 -25.865  12.532  0.00  0.00     0.088 H 
BRANCH  44  53
ATOM     53  C5  PAX d         -32.662 -23.345  12.773  0.00  0.00     0.059 C 
ATOM     54  H12 PAX d         -32.345 -22.398  12.311  0.00  0.00     0.079 H 
ATOM     55  H13 PAX d         -33.055 -24.018  11.998  0.00  0.00     0.079 H 
BRANCH  53  56
ATOM     56  O5  PAX d         -33.705 -23.075  13.742  0.00  0.00    -0.280 OA
BRANCH  56  57
ATOM     57  PD  PAX d         -35.199 -23.758  13.637  0.00  0.00     0.422 P 
ATOM     58  O1D PAX d         -35.918 -22.984  12.515  0.00  0.00    -0.617 OA
ATOM     59  O2D PAX d         -35.866 -23.566  15.018  0.00  0.00    -0.617 OA
ATOM     60  O3D PAX d         -34.969 -25.238  13.281  0.00  0.00    -0.617 OA
ENDBRANCH  56  57
ENDBRANCH  53  56
ENDBRANCH  44  53
BRANCH  47  61
ATOM     61  N1T PAX d         -31.924 -24.949  16.887  0.00  0.00    -0.282 N 
ATOM     62  C6T PAX d         -33.088 -24.171  17.112  0.00  0.00    -0.002 A 
ATOM     63  C5T PAX d         -33.745 -24.150  18.295  0.00  0.00     0.022 A 
ATOM     64  H19 PAX d         -33.471 -23.561  16.294  0.00  0.00     0.113 H 
ATOM     65  C4T PAX d         -33.240 -24.969  19.402  0.00  0.00     0.256 A 
ATOM     66  N3T PAX d         -32.079 -25.716  19.120  0.00  0.00    -0.275 N 
ATOM     67  O4T PAX d         -33.741 -25.060  20.525  0.00  0.00    -0.267 OA
ATOM     68  C2T PAX d         -31.380 -25.758  17.915  0.00  0.00     0.331 A 
ATOM     69  H20 PAX d         -31.718 -26.278  19.865  0.00  0.00     0.173 HD
ATOM     70  O2T PAX d         -30.390 -26.437  17.771  0.00  0.00    -0.246 OA
BRANCH  63  71
ATOM     71  CM5 PAX d         -34.971 -23.307  18.455  0.00  0.00    -0.045 C 
ATOM     72  H21 PAX d         -35.415 -23.116  17.468  0.00  0.00     0.033 H 
ATOM     73  H22 PAX d         -34.699 -22.351  18.926  0.00  0.00     0.033 H 
ATOM     74  H23 PAX d         -35.698 -23.835  19.089  0.00  0.00     0.033 H 
ENDBRANCH  63  71
ENDBRANCH  47  61
ENDBRANCH  42  43
ENDBRANCH  39  42
ENDBRANCH  38  39
ENDBRANCH   1  38
TORSDOF 16
ENDMDL
