MODEL 1
REMARK VINA RESULT:      -7.0      0.000      0.000
REMARK  6 active torsions:
REMARK  status: ('A' for Active; 'I' for Inactive)
REMARK    1  A    between atoms: P_1  and  O5'_4 
REMARK    2  A    between atoms: O5'_4  and  C5'_6 
REMARK    3  A    between atoms: C5'_6  and  C4'_7 
REMARK    4  A    between atoms: C1'_9  and  N9_10 
REMARK    5  A    between atoms: C2'_21  and  O2'_22 
REMARK    6  A    between atoms: C3'_23  and  O3'_24 
ROOT
ATOM      1  C4' XMP d           2.802  44.852  46.438  0.00  0.00     0.089 C 
ATOM      2  O4' XMP d           2.477  43.534  45.886  0.00  0.00    -0.353 OA
ATOM      3  C1' XMP d           1.345  42.992  46.590  0.00  0.00     0.139 C 
ATOM      4  C2' XMP d           0.943  43.992  47.666  0.00  0.00     0.105 C 
ATOM      5  C3' XMP d           2.180  44.825  47.831  0.00  0.00     0.091 C 
ATOM      6  H3  XMP d           2.351  45.668  45.855  0.00  0.00     0.090 H 
ATOM      7  H4  XMP d           0.495  42.888  45.900  0.00  0.00     0.122 H 
ATOM      8  H8  XMP d           0.692  43.474  48.603  0.00  0.00     0.093 H 
ATOM      9  H10 XMP d           2.872  44.348  48.542  0.00  0.00     0.091 H 
ENDROOT
BRANCH   3  10
ATOM     10  N9  XMP d           1.731  41.633  47.038  0.00  0.00    -0.295 N 
ATOM     11  C4  XMP d           2.523  40.782  46.296  0.00  0.00     0.149 A 
ATOM     12  N3  XMP d           3.075  41.036  45.052  0.00  0.00    -0.292 N 
ATOM     13  C5  XMP d           2.643  39.639  47.060  0.00  0.00     0.170 A 
ATOM     14  C2  XMP d           3.812  39.984  44.597  0.00  0.00     0.328 A 
ATOM     15  H5  XMP d           2.949  41.890  44.547  0.00  0.00     0.172 HD
ATOM     16  N1  XMP d           3.987  38.788  45.303  0.00  0.00    -0.273 N 
ATOM     17  O2  XMP d           4.386  40.019  43.512  0.00  0.00    -0.247 OA
ATOM     18  C6  XMP d           3.410  38.536  46.589  0.00  0.00     0.282 A 
ATOM     19  H6  XMP d           4.545  38.070  44.886  0.00  0.00     0.173 HD
ATOM     20  O6  XMP d           3.598  37.468  47.158  0.00  0.00    -0.265 OA
ATOM     21  N7  XMP d           1.932  39.751  48.284  0.00  0.00    -0.234 NA
ATOM     22  C8  XMP d           1.423  40.954  48.195  0.00  0.00     0.071 A 
ATOM     23  H7  XMP d           0.803  41.387  48.980  0.00  0.00     0.144 H 
ENDBRANCH   3  10
BRANCH   4  24
ATOM     24  O2' XMP d          -0.173  44.795  47.261  0.00  0.00    -0.388 OA
ATOM     25  H9  XMP d           0.005  45.175  46.408  0.00  0.00     0.210 HD
ENDBRANCH   4  24
BRANCH   1  26
ATOM     26  C5' XMP d           4.302  44.942  46.337  0.00  0.00     0.059 C 
ATOM     27  H1  XMP d           4.695  45.483  47.210  0.00  0.00     0.079 H 
ATOM     28  H2  XMP d           4.728  43.928  46.312  0.00  0.00     0.079 H 
BRANCH  26  29
ATOM     29  O5' XMP d           4.666  45.640  45.142  0.00  0.00    -0.280 OA
BRANCH  29  30
ATOM     30  P   XMP d           4.767  44.926  43.706  0.00  0.00     0.422 P 
ATOM     31  O1P XMP d           5.827  45.543  42.905  0.00  0.00    -0.617 OA
ATOM     32  O2P XMP d           3.416  45.114  43.068  0.00  0.00    -0.617 OA
ATOM     33  O3P XMP d           5.059  43.436  44.007  0.00  0.00    -0.617 OA
ENDBRANCH  29  30
ENDBRANCH  26  29
ENDBRANCH   1  26
BRANCH   5  34
ATOM     34  O3' XMP d           1.854  46.118  48.314  0.00  0.00    -0.390 OA
ATOM     35  H11 XMP d           1.132  46.054  48.928  0.00  0.00     0.210 HD
ENDBRANCH   5  34
TORSDOF 6
ENDMDL
MODEL 2
REMARK VINA RESULT:      -6.7      1.868      2.219
REMARK  6 active torsions:
REMARK  status: ('A' for Active; 'I' for Inactive)
REMARK    1  A    between atoms: P_1  and  O5'_4 
REMARK    2  A    between atoms: O5'_4  and  C5'_6 
REMARK    3  A    between atoms: C5'_6  and  C4'_7 
REMARK    4  A    between atoms: C1'_9  and  N9_10 
REMARK    5  A    between atoms: C2'_21  and  O2'_22 
REMARK    6  A    between atoms: C3'_23  and  O3'_24 
ROOT
ATOM      1  C4' XMP d           2.280  44.511  46.880  0.00  0.00     0.089 C 
ATOM      2  O4' XMP d           1.594  43.320  46.370  0.00  0.00    -0.353 OA
ATOM      3  C1' XMP d           0.944  42.645  47.462  0.00  0.00     0.139 C 
ATOM      4  C2' XMP d           1.253  43.417  48.737  0.00  0.00     0.105 C 
ATOM      5  C3' XMP d           2.470  44.213  48.364  0.00  0.00     0.091 C 
ATOM      6  H3  XMP d           1.672  45.420  46.767  0.00  0.00     0.090 H 
ATOM      7  H4  XMP d          -0.146  42.669  47.316  0.00  0.00     0.122 H 
ATOM      8  H8  XMP d           1.475  42.727  49.565  0.00  0.00     0.093 H 
ATOM      9  H10 XMP d           3.380  43.613  48.513  0.00  0.00     0.091 H 
ENDROOT
BRANCH   3  10
ATOM     10  N9  XMP d           1.375  41.229  47.406  0.00  0.00    -0.295 N 
ATOM     11  C4  XMP d           1.211  40.425  46.297  0.00  0.00     0.149 A 
ATOM     12  N3  XMP d           0.636  40.785  45.090  0.00  0.00    -0.292 N 
ATOM     13  C5  XMP d           1.741  39.202  46.654  0.00  0.00     0.170 A 
ATOM     14  C2  XMP d           0.633  39.752  44.200  0.00  0.00     0.328 A 
ATOM     15  H5  XMP d           0.267  41.693  44.893  0.00  0.00     0.172 HD
ATOM     16  N1  XMP d           1.147  38.480  44.475  0.00  0.00    -0.273 N 
ATOM     17  O2  XMP d           0.170  39.877  43.070  0.00  0.00    -0.247 OA
ATOM     18  C6  XMP d           1.738  38.119  45.729  0.00  0.00     0.282 A 
ATOM     19  H6  XMP d           1.099  37.785  43.757  0.00  0.00     0.173 HD
ATOM     20  O6  XMP d           2.171  36.988  45.911  0.00  0.00    -0.265 OA
ATOM     21  N7  XMP d           2.240  39.215  47.983  0.00  0.00    -0.234 NA
ATOM     22  C8  XMP d           1.989  40.445  48.357  0.00  0.00     0.071 A 
ATOM     23  H7  XMP d           2.247  40.819  49.346  0.00  0.00     0.144 H 
ENDBRANCH   3  10
BRANCH   4  24
ATOM     24  O2' XMP d           0.171  44.275  49.120  0.00  0.00    -0.388 OA
ATOM     25  H9  XMP d           0.449  45.182  49.056  0.00  0.00     0.210 HD
ENDBRANCH   4  24
BRANCH   1  26
ATOM     26  C5' XMP d           3.512  44.629  46.021  0.00  0.00     0.059 C 
ATOM     27  H1  XMP d           3.709  45.690  45.809  0.00  0.00     0.079 H 
ATOM     28  H2  XMP d           4.372  44.196  46.553  0.00  0.00     0.079 H 
BRANCH  26  29
ATOM     29  O5' XMP d           3.314  43.927  44.789  0.00  0.00    -0.280 OA
BRANCH  29  30
ATOM     30  P   XMP d           4.099  42.578  44.412  0.00  0.00     0.422 P 
ATOM     31  O1P XMP d           3.270  41.730  43.553  0.00  0.00    -0.617 OA
ATOM     32  O2P XMP d           4.396  41.905  45.727  0.00  0.00    -0.617 OA
ATOM     33  O3P XMP d           5.393  43.041  43.698  0.00  0.00    -0.617 OA
ENDBRANCH  29  30
ENDBRANCH  26  29
ENDBRANCH   1  26
BRANCH   5  34
ATOM     34  O3' XMP d           2.565  45.387  49.153  0.00  0.00    -0.390 OA
ATOM     35  H11 XMP d           1.739  45.855  49.123  0.00  0.00     0.210 HD
ENDBRANCH   5  34
TORSDOF 6
ENDMDL
MODEL 3
REMARK VINA RESULT:      -6.3      2.736      6.254
REMARK  6 active torsions:
REMARK  status: ('A' for Active; 'I' for Inactive)
REMARK    1  A    between atoms: P_1  and  O5'_4 
REMARK    2  A    between atoms: O5'_4  and  C5'_6 
REMARK    3  A    between atoms: C5'_6  and  C4'_7 
REMARK    4  A    between atoms: C1'_9  and  N9_10 
REMARK    5  A    between atoms: C2'_21  and  O2'_22 
REMARK    6  A    between atoms: C3'_23  and  O3'_24 
ROOT
ATOM      1  C4' XMP d           3.413  40.918  44.443  0.00  0.00     0.089 C 
ATOM      2  O4' XMP d           2.648  42.168  44.461  0.00  0.00    -0.353 OA
ATOM      3  C1' XMP d           3.556  43.280  44.365  0.00  0.00     0.139 C 
ATOM      4  C2' XMP d           4.972  42.723  44.315  0.00  0.00     0.105 C 
ATOM      5  C3' XMP d           4.812  41.343  44.882  0.00  0.00     0.091 C 
ATOM      6  H3  XMP d           3.467  40.479  43.436  0.00  0.00     0.090 H 
ATOM      7  H4  XMP d           3.380  43.821  43.423  0.00  0.00     0.122 H 
ATOM      8  H8  XMP d           5.648  43.325  44.938  0.00  0.00     0.093 H 
ATOM      9  H10 XMP d           4.867  41.370  45.981  0.00  0.00     0.091 H 
ENDROOT
BRANCH   3  10
ATOM     10  N9  XMP d           3.227  44.198  45.480  0.00  0.00    -0.295 N 
ATOM     11  C4  XMP d           2.206  43.971  46.379  0.00  0.00     0.149 A 
ATOM     12  N3  XMP d           1.341  42.890  46.396  0.00  0.00    -0.292 N 
ATOM     13  C5  XMP d           2.239  45.045  47.245  0.00  0.00     0.170 A 
ATOM     14  C2  XMP d           0.447  42.969  47.422  0.00  0.00     0.328 A 
ATOM     15  H5  XMP d           1.368  42.140  45.735  0.00  0.00     0.172 HD
ATOM     16  N1  XMP d           0.407  44.019  48.346  0.00  0.00    -0.273 N 
ATOM     17  O2  XMP d          -0.400  42.100  47.607  0.00  0.00    -0.247 OA
ATOM     18  C6  XMP d           1.306  45.133  48.317  0.00  0.00     0.282 A 
ATOM     19  H6  XMP d          -0.288  43.990  49.064  0.00  0.00     0.173 HD
ATOM     20  O6  XMP d           1.222  46.024  49.153  0.00  0.00    -0.265 OA
ATOM     21  N7  XMP d           3.272  45.958  46.907  0.00  0.00    -0.234 NA
ATOM     22  C8  XMP d           3.809  45.387  45.858  0.00  0.00     0.071 A 
ATOM     23  H7  XMP d           4.654  45.821  45.324  0.00  0.00     0.144 H 
ENDBRANCH   3  10
BRANCH   4  24
ATOM     24  O2' XMP d           5.483  42.677  42.977  0.00  0.00    -0.388 OA
ATOM     25  H9  XMP d           5.691  41.778  42.749  0.00  0.00     0.210 HD
ENDBRANCH   4  24
BRANCH   1  26
ATOM     26  C5' XMP d           2.641  39.992  45.346  0.00  0.00     0.059 C 
ATOM     27  H1  XMP d           3.215  39.818  46.268  0.00  0.00     0.079 H 
ATOM     28  H2  XMP d           1.673  40.451  45.598  0.00  0.00     0.079 H 
BRANCH  26  29
ATOM     29  O5' XMP d           2.417  38.744  44.683  0.00  0.00    -0.280 OA
BRANCH  29  30
ATOM     30  P   XMP d           3.328  37.444  44.930  0.00  0.00     0.422 P 
ATOM     31  O1P XMP d           3.358  37.107  46.355  0.00  0.00    -0.617 OA
ATOM     32  O2P XMP d           4.698  37.811  44.424  0.00  0.00    -0.617 OA
ATOM     33  O3P XMP d           2.683  36.322  44.081  0.00  0.00    -0.617 OA
ENDBRANCH  29  30
ENDBRANCH  26  29
ENDBRANCH   1  26
BRANCH   5  34
ATOM     34  O3' XMP d           5.827  40.479  44.398  0.00  0.00    -0.390 OA
ATOM     35  H11 XMP d           5.471  39.928  43.710  0.00  0.00     0.210 HD
ENDBRANCH   5  34
TORSDOF 6
ENDMDL
MODEL 4
REMARK VINA RESULT:      -6.0      2.221      3.158
REMARK  6 active torsions:
REMARK  status: ('A' for Active; 'I' for Inactive)
REMARK    1  A    between atoms: P_1  and  O5'_4 
REMARK    2  A    between atoms: O5'_4  and  C5'_6 
REMARK    3  A    between atoms: C5'_6  and  C4'_7 
REMARK    4  A    between atoms: C1'_9  and  N9_10 
REMARK    5  A    between atoms: C2'_21  and  O2'_22 
REMARK    6  A    between atoms: C3'_23  and  O3'_24 
ROOT
ATOM      1  C4' XMP d           1.857  43.082  47.331  0.00  0.00     0.089 C 
ATOM      2  O4' XMP d           2.403  42.542  46.082  0.00  0.00    -0.353 OA
ATOM      3  C1' XMP d           1.775  41.279  45.798  0.00  0.00     0.139 C 
ATOM      4  C2' XMP d           0.804  40.976  46.931  0.00  0.00     0.105 C 
ATOM      5  C3' XMP d           1.299  41.853  48.043  0.00  0.00     0.091 C 
ATOM      6  H3  XMP d           1.042  43.798  47.152  0.00  0.00     0.090 H 
ATOM      7  H4  XMP d           1.188  41.359  44.871  0.00  0.00     0.122 H 
ATOM      8  H8  XMP d           0.858  39.915  47.215  0.00  0.00     0.093 H 
ATOM      9  H10 XMP d           2.101  41.347  48.602  0.00  0.00     0.091 H 
ENDROOT
BRANCH   3  10
ATOM     10  N9  XMP d           2.864  40.304  45.559  0.00  0.00    -0.295 N 
ATOM     11  C4  XMP d           2.650  39.012  45.125  0.00  0.00     0.149 A 
ATOM     12  N3  XMP d           1.428  38.422  44.849  0.00  0.00    -0.292 N 
ATOM     13  C5  XMP d           3.906  38.449  45.028  0.00  0.00     0.170 A 
ATOM     14  C2  XMP d           1.569  37.131  44.435  0.00  0.00     0.328 A 
ATOM     15  H5  XMP d           0.548  38.887  44.941  0.00  0.00     0.172 HD
ATOM     16  N1  XMP d           2.801  36.480  44.308  0.00  0.00    -0.273 N 
ATOM     17  O2  XMP d           0.598  36.441  44.138  0.00  0.00    -0.247 OA
ATOM     18  C6  XMP d           4.058  37.100  44.599  0.00  0.00     0.282 A 
ATOM     19  H6  XMP d           2.803  35.529  43.998  0.00  0.00     0.173 HD
ATOM     20  O6  XMP d           5.105  36.478  44.470  0.00  0.00    -0.265 OA
ATOM     21  N7  XMP d           4.922  39.369  45.399  0.00  0.00    -0.234 NA
ATOM     22  C8  XMP d           4.228  40.438  45.697  0.00  0.00     0.071 A 
ATOM     23  H7  XMP d           4.694  41.365  46.028  0.00  0.00     0.144 H 
ENDBRANCH   3  10
BRANCH   4  24
ATOM     24  O2' XMP d          -0.547  41.298  46.579  0.00  0.00    -0.388 OA
ATOM     25  H9  XMP d          -0.718  41.014  45.689  0.00  0.00     0.210 HD
ENDBRANCH   4  24
BRANCH   1  26
ATOM     26  C5' XMP d           3.018  43.800  47.968  0.00  0.00     0.059 C 
ATOM     27  H1  XMP d           2.810  43.953  49.038  0.00  0.00     0.079 H 
ATOM     28  H2  XMP d           3.929  43.194  47.855  0.00  0.00     0.079 H 
BRANCH  26  29
ATOM     29  O5' XMP d           3.209  45.069  47.334  0.00  0.00    -0.280 OA
BRANCH  29  30
ATOM     30  P   XMP d           4.315  45.324  46.199  0.00  0.00     0.422 P 
ATOM     31  O1P XMP d           3.724  46.032  45.061  0.00  0.00    -0.617 OA
ATOM     32  O2P XMP d           4.805  43.956  45.800  0.00  0.00    -0.617 OA
ATOM     33  O3P XMP d           5.427  46.154  46.886  0.00  0.00    -0.617 OA
ENDBRANCH  29  30
ENDBRANCH  26  29
ENDBRANCH   1  26
BRANCH   5  34
ATOM     34  O3' XMP d           0.248  42.168  48.942  0.00  0.00    -0.390 OA
ATOM     35  H11 XMP d          -0.165  41.365  49.238  0.00  0.00     0.210 HD
ENDBRANCH   5  34
TORSDOF 6
ENDMDL
MODEL 5
REMARK VINA RESULT:      -5.9      2.762      6.247
REMARK  6 active torsions:
REMARK  status: ('A' for Active; 'I' for Inactive)
REMARK    1  A    between atoms: P_1  and  O5'_4 
REMARK    2  A    between atoms: O5'_4  and  C5'_6 
REMARK    3  A    between atoms: C5'_6  and  C4'_7 
REMARK    4  A    between atoms: C1'_9  and  N9_10 
REMARK    5  A    between atoms: C2'_21  and  O2'_22 
REMARK    6  A    between atoms: C3'_23  and  O3'_24 
ROOT
ATOM      1  C4' XMP d           3.455  39.622  44.359  0.00  0.00     0.089 C 
ATOM      2  O4' XMP d           2.538  40.762  44.285  0.00  0.00    -0.353 OA
ATOM      3  C1' XMP d           3.264  41.972  44.572  0.00  0.00     0.139 C 
ATOM      4  C2' XMP d           4.705  41.589  44.877  0.00  0.00     0.105 C 
ATOM      5  C3' XMP d           4.601  40.133  45.226  0.00  0.00     0.091 C 
ATOM      6  H3  XMP d           3.846  39.339  43.371  0.00  0.00     0.090 H 
ATOM      7  H4  XMP d           3.274  42.617  43.682  0.00  0.00     0.122 H 
ATOM      8  H8  XMP d           5.089  42.169  45.729  0.00  0.00     0.093 H 
ATOM      9  H10 XMP d           4.350  40.011  46.291  0.00  0.00     0.091 H 
ENDROOT
BRANCH   3  10
ATOM     10  N9  XMP d           2.511  42.680  45.634  0.00  0.00    -0.295 N 
ATOM     11  C4  XMP d           2.994  43.784  46.304  0.00  0.00     0.149 A 
ATOM     12  N3  XMP d           4.219  44.401  46.111  0.00  0.00    -0.292 N 
ATOM     13  C5  XMP d           1.999  44.133  47.194  0.00  0.00     0.170 A 
ATOM     14  C2  XMP d           4.383  45.473  46.936  0.00  0.00     0.328 A 
ATOM     15  H5  XMP d           4.901  44.097  45.447  0.00  0.00     0.172 HD
ATOM     16  N1  XMP d           3.430  45.899  47.868  0.00  0.00    -0.273 N 
ATOM     17  O2  XMP d           5.405  46.154  46.911  0.00  0.00    -0.247 OA
ATOM     18  C6  XMP d           2.167  45.251  48.059  0.00  0.00     0.282 A 
ATOM     19  H6  XMP d           3.642  46.697  48.431  0.00  0.00     0.173 HD
ATOM     20  O6  XMP d           1.372  45.669  48.892  0.00  0.00    -0.265 OA
ATOM     21  N7  XMP d           0.884  43.259  47.101  0.00  0.00    -0.234 NA
ATOM     22  C8  XMP d           1.263  42.432  46.159  0.00  0.00     0.071 A 
ATOM     23  H7  XMP d           0.636  41.609  45.816  0.00  0.00     0.144 H 
ENDBRANCH   3  10
BRANCH   4  24
ATOM     24  O2' XMP d           5.564  41.790  43.748  0.00  0.00    -0.388 OA
ATOM     25  H9  XMP d           5.045  42.068  43.002  0.00  0.00     0.210 HD
ENDBRANCH   4  24
BRANCH   1  26
ATOM     26  C5' XMP d           2.610  38.497  44.898  0.00  0.00     0.059 C 
ATOM     27  H1  XMP d           2.070  38.015  44.069  0.00  0.00     0.079 H 
ATOM     28  H2  XMP d           3.258  37.757  45.392  0.00  0.00     0.079 H 
BRANCH  26  29
ATOM     29  O5' XMP d           1.667  39.010  45.845  0.00  0.00    -0.280 OA
BRANCH  29  30
ATOM     30  P   XMP d           1.864  38.884  47.434  0.00  0.00     0.422 P 
ATOM     31  O1P XMP d           2.746  39.946  47.923  0.00  0.00    -0.617 OA
ATOM     32  O2P XMP d           2.466  37.522  47.658  0.00  0.00    -0.617 OA
ATOM     33  O3P XMP d           0.440  38.989  48.034  0.00  0.00    -0.617 OA
ENDBRANCH  29  30
ENDBRANCH  26  29
ENDBRANCH   1  26
BRANCH   5  34
ATOM     34  O3' XMP d           5.826  39.465  44.970  0.00  0.00    -0.390 OA
ATOM     35  H11 XMP d           6.144  39.070  45.773  0.00  0.00     0.210 HD
ENDBRANCH   5  34
TORSDOF 6
ENDMDL
MODEL 6
REMARK VINA RESULT:      -5.9      2.809      4.770
REMARK  6 active torsions:
REMARK  status: ('A' for Active; 'I' for Inactive)
REMARK    1  A    between atoms: P_1  and  O5'_4 
REMARK    2  A    between atoms: O5'_4  and  C5'_6 
REMARK    3  A    between atoms: C5'_6  and  C4'_7 
REMARK    4  A    between atoms: C1'_9  and  N9_10 
REMARK    5  A    between atoms: C2'_21  and  O2'_22 
REMARK    6  A    between atoms: C3'_23  and  O3'_24 
ROOT
ATOM      1  C4' XMP d           3.475  43.183  45.491  0.00  0.00     0.089 C 
ATOM      2  O4' XMP d           3.939  41.895  46.014  0.00  0.00    -0.353 OA
ATOM      3  C1' XMP d           4.647  41.191  44.977  0.00  0.00     0.139 C 
ATOM      4  C2' XMP d           4.608  42.050  43.720  0.00  0.00     0.105 C 
ATOM      5  C3' XMP d           3.456  42.975  43.979  0.00  0.00     0.091 C 
ATOM      6  H3  XMP d           4.166  44.003  45.736  0.00  0.00     0.090 H 
ATOM      7  H4  XMP d           5.702  41.072  45.265  0.00  0.00     0.122 H 
ATOM      8  H8  XMP d           4.421  41.430  42.832  0.00  0.00     0.093 H 
ATOM      9  H10 XMP d           2.509  42.502  43.678  0.00  0.00     0.091 H 
ENDROOT
BRANCH   3  10
ATOM     10  N9  XMP d           4.047  39.839  44.892  0.00  0.00    -0.295 N 
ATOM     11  C4  XMP d           2.706  39.612  44.665  0.00  0.00     0.149 A 
ATOM     12  N3  XMP d           1.722  40.570  44.483  0.00  0.00    -0.292 N 
ATOM     13  C5  XMP d           2.566  38.240  44.655  0.00  0.00     0.170 A 
ATOM     14  C2  XMP d           0.498  40.008  44.275  0.00  0.00     0.328 A 
ATOM     15  H5  XMP d           1.889  41.556  44.502  0.00  0.00     0.172 HD
ATOM     16  N1  XMP d           0.263  38.629  44.251  0.00  0.00    -0.273 N 
ATOM     17  O2  XMP d          -0.503  40.695  44.089  0.00  0.00    -0.247 OA
ATOM     18  C6  XMP d           1.289  37.648  44.441  0.00  0.00     0.282 A 
ATOM     19  H6  XMP d          -0.672  38.312  44.092  0.00  0.00     0.173 HD
ATOM     20  O6  XMP d           1.022  36.453  44.409  0.00  0.00    -0.265 OA
ATOM     21  N7  XMP d           3.806  37.585  44.878  0.00  0.00    -0.234 NA
ATOM     22  C8  XMP d           4.629  38.596  45.007  0.00  0.00     0.071 A 
ATOM     23  H7  XMP d           5.694  38.463  45.190  0.00  0.00     0.144 H 
ENDBRANCH   3  10
BRANCH   4  24
ATOM     24  O2' XMP d           5.827  42.780  43.533  0.00  0.00    -0.388 OA
ATOM     25  H9  XMP d           5.702  43.681  43.811  0.00  0.00     0.210 HD
ENDBRANCH   4  24
BRANCH   1  26
ATOM     26  C5' XMP d           2.160  43.418  46.187  0.00  0.00     0.059 C 
ATOM     27  H1  XMP d           2.165  44.417  46.649  0.00  0.00     0.079 H 
ATOM     28  H2  XMP d           1.342  43.356  45.454  0.00  0.00     0.079 H 
BRANCH  26  29
ATOM     29  O5' XMP d           1.965  42.427  47.202  0.00  0.00    -0.280 OA
BRANCH  29  30
ATOM     30  P   XMP d           0.513  41.941  47.684  0.00  0.00     0.422 P 
ATOM     31  O1P XMP d          -0.531  42.570  46.872  0.00  0.00    -0.617 OA
ATOM     32  O2P XMP d           0.410  42.354  49.128  0.00  0.00    -0.617 OA
ATOM     33  O3P XMP d           0.522  40.400  47.527  0.00  0.00    -0.617 OA
ENDBRANCH  29  30
ENDBRANCH  26  29
ENDBRANCH   1  26
BRANCH   5  34
ATOM     34  O3' XMP d           3.610  44.185  43.255  0.00  0.00    -0.390 OA
ATOM     35  H11 XMP d           2.784  44.654  43.246  0.00  0.00     0.210 HD
ENDBRANCH   5  34
TORSDOF 6
ENDMDL
MODEL 7
REMARK VINA RESULT:      -5.8      1.862      5.220
REMARK  6 active torsions:
REMARK  status: ('A' for Active; 'I' for Inactive)
REMARK    1  A    between atoms: P_1  and  O5'_4 
REMARK    2  A    between atoms: O5'_4  and  C5'_6 
REMARK    3  A    between atoms: C5'_6  and  C4'_7 
REMARK    4  A    between atoms: C1'_9  and  N9_10 
REMARK    5  A    between atoms: C2'_21  and  O2'_22 
REMARK    6  A    between atoms: C3'_23  and  O3'_24 
ROOT
ATOM      1  C4' XMP d           4.287  39.003  45.699  0.00  0.00     0.089 C 
ATOM      2  O4' XMP d           3.817  40.057  46.603  0.00  0.00    -0.353 OA
ATOM      3  C1' XMP d           2.661  39.584  47.318  0.00  0.00     0.139 C 
ATOM      4  C2' XMP d           2.354  38.175  46.829  0.00  0.00     0.105 C 
ATOM      5  C3' XMP d           3.062  38.115  45.507  0.00  0.00     0.091 C 
ATOM      6  H3  XMP d           5.100  38.410  46.142  0.00  0.00     0.090 H 
ATOM      7  H4  XMP d           2.891  39.519  48.391  0.00  0.00     0.122 H 
ATOM      8  H8  XMP d           1.271  38.037  46.699  0.00  0.00     0.093 H 
ATOM      9  H10 XMP d           2.422  38.525  44.711  0.00  0.00     0.091 H 
ENDROOT
BRANCH   3  10
ATOM     10  N9  XMP d           1.603  40.607  47.145  0.00  0.00    -0.295 N 
ATOM     11  C4  XMP d           1.835  41.965  47.220  0.00  0.00     0.149 A 
ATOM     12  N3  XMP d           3.049  42.586  47.463  0.00  0.00    -0.292 N 
ATOM     13  C5  XMP d           0.608  42.556  47.002  0.00  0.00     0.170 A 
ATOM     14  C2  XMP d           2.933  43.944  47.468  0.00  0.00     0.328 A 
ATOM     15  H5  XMP d           3.908  42.098  47.615  0.00  0.00     0.172 HD
ATOM     16  N1  XMP d           1.731  44.628  47.257  0.00  0.00    -0.273 N 
ATOM     17  O2  XMP d           3.902  44.673  47.662  0.00  0.00    -0.247 OA
ATOM     18  C6  XMP d           0.481  43.974  47.009  0.00  0.00     0.282 A 
ATOM     19  H6  XMP d           1.745  45.628  47.281  0.00  0.00     0.173 HD
ATOM     20  O6  XMP d          -0.540  44.627  46.832  0.00  0.00    -0.265 OA
ATOM     21  N7  XMP d          -0.409  41.588  46.790  0.00  0.00    -0.234 NA
ATOM     22  C8  XMP d           0.258  40.465  46.888  0.00  0.00     0.071 A 
ATOM     23  H7  XMP d          -0.216  39.491  46.774  0.00  0.00     0.144 H 
ENDBRANCH   3  10
BRANCH   4  24
ATOM     24  O2' XMP d           2.850  37.176  47.728  0.00  0.00    -0.388 OA
ATOM     25  H9  XMP d           2.396  36.356  47.571  0.00  0.00     0.210 HD
ENDBRANCH   4  24
BRANCH   1  26
ATOM     26  C5' XMP d           4.814  39.747  44.499  0.00  0.00     0.059 C 
ATOM     27  H1  XMP d           5.861  39.461  44.322  0.00  0.00     0.079 H 
ATOM     28  H2  XMP d           4.210  39.491  43.616  0.00  0.00     0.079 H 
BRANCH  26  29
ATOM     29  O5' XMP d           4.740  41.157  44.732  0.00  0.00    -0.280 OA
BRANCH  29  30
ATOM     30  P   XMP d           4.180  42.197  43.644  0.00  0.00     0.422 P 
ATOM     31  O1P XMP d           5.279  42.725  42.832  0.00  0.00    -0.617 OA
ATOM     32  O2P XMP d           3.511  43.288  44.438  0.00  0.00    -0.617 OA
ATOM     33  O3P XMP d           3.162  41.397  42.795  0.00  0.00    -0.617 OA
ENDBRANCH  29  30
ENDBRANCH  26  29
ENDBRANCH   1  26
BRANCH   5  34
ATOM     34  O3' XMP d           3.397  36.777  45.177  0.00  0.00    -0.390 OA
ATOM     35  H11 XMP d           2.920  36.183  45.744  0.00  0.00     0.210 HD
ENDBRANCH   5  34
TORSDOF 6
ENDMDL
MODEL 8
REMARK VINA RESULT:      -5.5      2.795      6.557
REMARK  6 active torsions:
REMARK  status: ('A' for Active; 'I' for Inactive)
REMARK    1  A    between atoms: P_1  and  O5'_4 
REMARK    2  A    between atoms: O5'_4  and  C5'_6 
REMARK    3  A    between atoms: C5'_6  and  C4'_7 
REMARK    4  A    between atoms: C1'_9  and  N9_10 
REMARK    5  A    between atoms: C2'_21  and  O2'_22 
REMARK    6  A    between atoms: C3'_23  and  O3'_24 
ROOT
ATOM      1  C4' XMP d           3.631  38.975  45.786  0.00  0.00     0.089 C 
ATOM      2  O4' XMP d           3.217  40.131  44.985  0.00  0.00    -0.353 OA
ATOM      3  C1' XMP d           4.114  40.279  43.870  0.00  0.00     0.139 C 
ATOM      4  C2' XMP d           5.174  39.190  43.976  0.00  0.00     0.105 C 
ATOM      5  C3' XMP d           5.101  38.787  45.419  0.00  0.00     0.091 C 
ATOM      6  H3  XMP d           3.072  38.066  45.522  0.00  0.00     0.090 H 
ATOM      7  H4  XMP d           3.566  40.117  42.930  0.00  0.00     0.122 H 
ATOM      8  H8  XMP d           6.168  39.590  43.731  0.00  0.00     0.093 H 
ATOM      9  H10 XMP d           5.728  39.450  46.034  0.00  0.00     0.091 H 
ENDROOT
BRANCH   3  10
ATOM     10  N9  XMP d           4.583  41.684  43.882  0.00  0.00    -0.295 N 
ATOM     11  C4  XMP d           3.947  42.694  44.572  0.00  0.00     0.149 A 
ATOM     12  N3  XMP d           2.802  42.579  45.343  0.00  0.00    -0.292 N 
ATOM     13  C5  XMP d           4.695  43.828  44.328  0.00  0.00     0.170 A 
ATOM     14  C2  XMP d           2.437  43.771  45.893  0.00  0.00     0.328 A 
ATOM     15  H5  XMP d           2.303  41.724  45.480  0.00  0.00     0.172 HD
ATOM     16  N1  XMP d           3.134  44.969  45.700  0.00  0.00    -0.273 N 
ATOM     17  O2  XMP d           1.449  43.872  46.614  0.00  0.00    -0.247 OA
ATOM     18  C6  XMP d           4.316  45.076  44.899  0.00  0.00     0.282 A 
ATOM     19  H6  XMP d           2.788  45.795  46.145  0.00  0.00     0.173 HD
ATOM     20  O6  XMP d           4.884  46.154  44.765  0.00  0.00    -0.265 OA
ATOM     21  N7  XMP d           5.804  43.552  43.485  0.00  0.00    -0.234 NA
ATOM     22  C8  XMP d           5.669  42.268  43.268  0.00  0.00     0.071 A 
ATOM     23  H7  XMP d           6.364  41.703  42.648  0.00  0.00     0.144 H 
ENDBRANCH   3  10
BRANCH   4  24
ATOM     24  O2' XMP d           4.890  38.081  43.114  0.00  0.00    -0.388 OA
ATOM     25  H9  XMP d           4.016  37.754  43.296  0.00  0.00     0.210 HD
ENDBRANCH   4  24
BRANCH   1  26
ATOM     26  C5' XMP d           3.303  39.365  47.204  0.00  0.00     0.059 C 
ATOM     27  H1  XMP d           2.767  38.539  47.695  0.00  0.00     0.079 H 
ATOM     28  H2  XMP d           4.234  39.575  47.750  0.00  0.00     0.079 H 
BRANCH  26  29
ATOM     29  O5' XMP d           2.477  40.534  47.205  0.00  0.00    -0.280 OA
BRANCH  29  30
ATOM     30  P   XMP d           0.905  40.496  47.532  0.00  0.00     0.422 P 
ATOM     31  O1P XMP d           0.588  41.427  48.618  0.00  0.00    -0.617 OA
ATOM     32  O2P XMP d           0.610  39.072  47.924  0.00  0.00    -0.617 OA
ATOM     33  O3P XMP d           0.200  40.886  46.209  0.00  0.00    -0.617 OA
ENDBRANCH  29  30
ENDBRANCH  26  29
ENDBRANCH   1  26
BRANCH   5  34
ATOM     34  O3' XMP d           5.545  37.452  45.592  0.00  0.00    -0.390 OA
ATOM     35  H11 XMP d           6.436  37.372  45.273  0.00  0.00     0.210 HD
ENDBRANCH   5  34
TORSDOF 6
ENDMDL
MODEL 9
REMARK VINA RESULT:      -5.2      2.918      6.207
REMARK  6 active torsions:
REMARK  status: ('A' for Active; 'I' for Inactive)
REMARK    1  A    between atoms: P_1  and  O5'_4 
REMARK    2  A    between atoms: O5'_4  and  C5'_6 
REMARK    3  A    between atoms: C5'_6  and  C4'_7 
REMARK    4  A    between atoms: C1'_9  and  N9_10 
REMARK    5  A    between atoms: C2'_21  and  O2'_22 
REMARK    6  A    between atoms: C3'_23  and  O3'_24 
ROOT
ATOM      1  C4' XMP d           2.426  40.378  44.408  0.00  0.00     0.089 C 
ATOM      2  O4' XMP d           2.306  41.836  44.499  0.00  0.00    -0.353 OA
ATOM      3  C1' XMP d           3.608  42.427  44.339  0.00  0.00     0.139 C 
ATOM      4  C2' XMP d           4.616  41.299  44.172  0.00  0.00     0.105 C 
ATOM      5  C3' XMP d           3.892  40.113  44.737  0.00  0.00     0.091 C 
ATOM      6  H3  XMP d           2.208  40.006  43.396  0.00  0.00     0.090 H 
ATOM      7  H4  XMP d           3.630  43.031  43.420  0.00  0.00     0.122 H 
ATOM      8  H8  XMP d           5.532  41.507  44.744  0.00  0.00     0.093 H 
ATOM      9  H10 XMP d           4.028  40.064  45.828  0.00  0.00     0.091 H 
ENDROOT
BRANCH   3  10
ATOM     10  N9  XMP d           3.803  43.345  45.486  0.00  0.00    -0.295 N 
ATOM     11  C4  XMP d           2.775  43.790  46.291  0.00  0.00     0.149 A 
ATOM     12  N3  XMP d           1.433  43.471  46.174  0.00  0.00    -0.292 N 
ATOM     13  C5  XMP d           3.374  44.609  47.226  0.00  0.00     0.170 A 
ATOM     14  C2  XMP d           0.680  44.077  47.135  0.00  0.00     0.328 A 
ATOM     15  H5  XMP d           1.060  42.868  45.469  0.00  0.00     0.172 HD
ATOM     16  N1  XMP d           1.201  44.922  48.120  0.00  0.00    -0.273 N 
ATOM     17  O2  XMP d          -0.535  43.913  47.200  0.00  0.00    -0.247 OA
ATOM     18  C6  XMP d           2.592  45.246  48.230  0.00  0.00     0.282 A 
ATOM     19  H6  XMP d           0.568  45.323  48.783  0.00  0.00     0.173 HD
ATOM     20  O6  XMP d           2.990  45.995  49.115  0.00  0.00    -0.265 OA
ATOM     21  N7  XMP d           4.777  44.695  47.024  0.00  0.00    -0.234 NA
ATOM     22  C8  XMP d           4.951  43.922  45.982  0.00  0.00     0.071 A 
ATOM     23  H7  XMP d           5.932  43.747  45.541  0.00  0.00     0.144 H 
ENDBRANCH   3  10
BRANCH   4  24
ATOM     24  O2' XMP d           4.960  41.088  42.797  0.00  0.00    -0.388 OA
ATOM     25  H9  XMP d           5.761  40.578  42.746  0.00  0.00     0.210 HD
ENDBRANCH   4  24
BRANCH   1  26
ATOM     26  C5' XMP d           1.383  39.856  45.362  0.00  0.00     0.059 C 
ATOM     27  H1  XMP d           0.401  39.854  44.865  0.00  0.00     0.079 H 
ATOM     28  H2  XMP d           1.643  38.831  45.664  0.00  0.00     0.079 H 
BRANCH  26  29
ATOM     29  O5' XMP d           1.325  40.694  46.521  0.00  0.00    -0.280 OA
BRANCH  29  30
ATOM     30  P   XMP d           1.708  40.179  47.994  0.00  0.00     0.422 P 
ATOM     31  O1P XMP d           3.116  39.775  48.042  0.00  0.00    -0.617 OA
ATOM     32  O2P XMP d           0.792  39.015  48.264  0.00  0.00    -0.617 OA
ATOM     33  O3P XMP d           1.415  41.373  48.936  0.00  0.00    -0.617 OA
ENDBRANCH  29  30
ENDBRANCH  26  29
ENDBRANCH   1  26
BRANCH   5  34
ATOM     34  O3' XMP d           4.375  38.908  44.166  0.00  0.00    -0.390 OA
ATOM     35  H11 XMP d           4.608  39.061  43.258  0.00  0.00     0.210 HD
ENDBRANCH   5  34
TORSDOF 6
ENDMDL
MODEL 10
REMARK VINA RESULT:      -4.7      2.145      4.538
REMARK  6 active torsions:
REMARK  status: ('A' for Active; 'I' for Inactive)
REMARK    1  A    between atoms: P_1  and  O5'_4 
REMARK    2  A    between atoms: O5'_4  and  C5'_6 
REMARK    3  A    between atoms: C5'_6  and  C4'_7 
REMARK    4  A    between atoms: C1'_9  and  N9_10 
REMARK    5  A    between atoms: C2'_21  and  O2'_22 
REMARK    6  A    between atoms: C3'_23  and  O3'_24 
ROOT
ATOM      1  C4' XMP d           3.968  43.265  45.645  0.00  0.00     0.089 C 
ATOM      2  O4' XMP d           4.727  42.027  45.846  0.00  0.00    -0.353 OA
ATOM      3  C1' XMP d           5.267  41.594  44.584  0.00  0.00     0.139 C 
ATOM      4  C2' XMP d           4.808  42.579  43.518  0.00  0.00     0.105 C 
ATOM      5  C3' XMP d           3.625  43.243  44.159  0.00  0.00     0.091 C 
ATOM      6  H3  XMP d           4.567  44.160  45.866  0.00  0.00     0.090 H 
ATOM      7  H4  XMP d           6.366  41.633  44.620  0.00  0.00     0.122 H 
ATOM      8  H8  XMP d           4.511  42.049  42.602  0.00  0.00     0.093 H 
ATOM      9  H10 XMP d           2.714  42.647  43.992  0.00  0.00     0.091 H 
ENDROOT
BRANCH   3  10
ATOM     10  N9  XMP d           4.871  40.177  44.414  0.00  0.00    -0.295 N 
ATOM     11  C4  XMP d           4.134  39.474  45.343  0.00  0.00     0.149 A 
ATOM     12  N3  XMP d           3.654  39.948  46.552  0.00  0.00    -0.292 N 
ATOM     13  C5  XMP d           3.982  38.211  44.807  0.00  0.00     0.170 A 
ATOM     14  C2  XMP d           2.958  38.995  47.233  0.00  0.00     0.328 A 
ATOM     15  H5  XMP d           3.801  40.879  46.887  0.00  0.00     0.172 HD
ATOM     16  N1  XMP d           2.755  37.691  46.767  0.00  0.00    -0.273 N 
ATOM     17  O2  XMP d           2.450  39.226  48.326  0.00  0.00    -0.247 OA
ATOM     18  C6  XMP d           3.258  37.211  45.515  0.00  0.00     0.282 A 
ATOM     19  H6  XMP d           2.231  37.060  47.340  0.00  0.00     0.173 HD
ATOM     20  O6  XMP d           3.048  36.058  45.160  0.00  0.00    -0.265 OA
ATOM     21  N7  XMP d           4.618  38.100  43.542  0.00  0.00    -0.234 NA
ATOM     22  C8  XMP d           5.117  39.300  43.381  0.00  0.00     0.071 A 
ATOM     23  H7  XMP d           5.684  39.584  42.495  0.00  0.00     0.144 H 
ENDBRANCH   3  10
BRANCH   4  24
ATOM     24  O2' XMP d           5.827  43.535  43.197  0.00  0.00    -0.388 OA
ATOM     25  H9  XMP d           6.656  43.248  43.563  0.00  0.00     0.210 HD
ENDBRANCH   4  24
BRANCH   1  26
ATOM     26  C5' XMP d           2.833  43.172  46.632  0.00  0.00     0.059 C 
ATOM     27  H1  XMP d           2.185  42.325  46.365  0.00  0.00     0.079 H 
ATOM     28  H2  XMP d           3.240  43.018  47.643  0.00  0.00     0.079 H 
BRANCH  26  29
ATOM     29  O5' XMP d           2.069  44.382  46.606  0.00  0.00    -0.280 OA
BRANCH  29  30
ATOM     30  P   XMP d           1.404  45.027  47.918  0.00  0.00     0.422 P 
ATOM     31  O1P XMP d           0.062  45.529  47.614  0.00  0.00    -0.617 OA
ATOM     32  O2P XMP d           2.327  46.142  48.331  0.00  0.00    -0.617 OA
ATOM     33  O3P XMP d           1.373  43.888  48.967  0.00  0.00    -0.617 OA
ENDBRANCH  29  30
ENDBRANCH  26  29
ENDBRANCH   1  26
BRANCH   5  34
ATOM     34  O3' XMP d           3.423  44.540  43.621  0.00  0.00    -0.390 OA
ATOM     35  H11 XMP d           2.869  44.480  42.852  0.00  0.00     0.210 HD
ENDBRANCH   5  34
TORSDOF 6
ENDMDL
