MODEL 1
REMARK VINA RESULT:      -5.6      0.000      0.000
REMARK  2 active torsions:
REMARK  status: ('A' for Active; 'I' for Inactive)
REMARK    1  A    between atoms: C7_4  and  N6_8 
REMARK    2  A    between atoms: N6_8  and  C5_9 
ROOT
ATOM      1  O13 GZ2 d          -8.221  53.968  13.481  0.00  0.00    -0.293 OA
ATOM      2  C11 GZ2 d          -7.695  53.162  12.727  0.00  0.00     0.151 C 
ATOM      3  C12 GZ2 d          -6.283  52.780  12.946  0.00  0.00    -0.017 C 
ATOM      4  C7  GZ2 d          -5.687  51.856  12.170  0.00  0.00     0.030 C 
ATOM      5  C8  GZ2 d          -6.436  51.142  11.066  0.00  0.00    -0.026 C 
ATOM      6  C9  GZ2 d          -7.955  51.188  11.206  0.00  0.00    -0.054 C 
ATOM      7  C10 GZ2 d          -8.485  52.563  11.582  0.00  0.00    -0.006 C 
ATOM      8  H1  GZ2 d          -5.717  53.253  13.747  0.00  0.00     0.092 H 
ATOM      9  H2  GZ2 d          -6.122  50.088  11.063  0.00  0.00     0.042 H 
ATOM     10  H3  GZ2 d          -6.163  51.609  10.108  0.00  0.00     0.042 H 
ATOM     11  H4  GZ2 d          -8.256  50.473  11.986  0.00  0.00     0.034 H 
ATOM     12  H5  GZ2 d          -8.402  50.892  10.245  0.00  0.00     0.034 H 
ATOM     13  H6  GZ2 d          -8.410  53.228  10.708  0.00  0.00     0.044 H 
ATOM     14  H7  GZ2 d          -9.539  52.472  11.882  0.00  0.00     0.044 H 
ENDROOT
BRANCH   4  15
ATOM     15  N6  GZ2 d          -4.401  51.490  12.270  0.00  0.00    -0.192 N 
ATOM     16  H8  GZ2 d          -4.226  50.507  12.522  0.00  0.00     0.184 HD
BRANCH  15  17
ATOM     17  C5  GZ2 d          -3.297  52.270  12.076  0.00  0.00     0.732 A 
ATOM     18  N4  GZ2 d          -2.893  52.733  10.885  0.00  0.00    -0.115 N 
ATOM     19  N3  GZ2 d          -1.730  53.466  11.176  0.00  0.00     0.008 NA
ATOM     20  H9  GZ2 d          -3.334  52.585   9.967  0.00  0.00     0.203 HD
ATOM     21  N2  GZ2 d          -1.514  53.412  12.566  0.00  0.00     0.033 NA
ATOM     22  N1  GZ2 d          -2.532  52.640  13.125  0.00  0.00     0.030 NA
ENDBRANCH  15  17
ENDBRANCH   4  15
TORSDOF 2
ENDMDL
MODEL 2
REMARK VINA RESULT:      -5.1      1.263      2.147
REMARK  2 active torsions:
REMARK  status: ('A' for Active; 'I' for Inactive)
REMARK    1  A    between atoms: C7_4  and  N6_8 
REMARK    2  A    between atoms: N6_8  and  C5_9 
ROOT
ATOM      1  O13 GZ2 d          -8.483  50.996  10.149  0.00  0.00    -0.293 OA
ATOM      2  C11 GZ2 d          -7.854  51.490  11.074  0.00  0.00     0.151 C 
ATOM      3  C12 GZ2 d          -6.423  51.155  11.236  0.00  0.00    -0.017 C 
ATOM      4  C7  GZ2 d          -5.685  51.721  12.209  0.00  0.00     0.030 C 
ATOM      5  C8  GZ2 d          -6.270  52.745  13.157  0.00  0.00    -0.026 C 
ATOM      6  C9  GZ2 d          -7.546  53.412  12.651  0.00  0.00    -0.054 C 
ATOM      7  C10 GZ2 d          -8.538  52.434  12.042  0.00  0.00    -0.006 C 
ATOM      8  H1  GZ2 d          -5.958  50.440  10.558  0.00  0.00     0.092 H 
ATOM      9  H2  GZ2 d          -5.516  53.528  13.326  0.00  0.00     0.042 H 
ATOM     10  H3  GZ2 d          -6.497  52.243  14.109  0.00  0.00     0.042 H 
ATOM     11  H4  GZ2 d          -7.273  54.154  11.885  0.00  0.00     0.034 H 
ATOM     12  H5  GZ2 d          -8.032  53.921  13.497  0.00  0.00     0.034 H 
ATOM     13  H6  GZ2 d          -9.003  51.847  12.847  0.00  0.00     0.044 H 
ATOM     14  H7  GZ2 d          -9.314  52.998  11.504  0.00  0.00     0.044 H 
ENDROOT
BRANCH   4  15
ATOM     15  N6  GZ2 d          -4.398  51.435  12.455  0.00  0.00    -0.192 N 
ATOM     16  H8  GZ2 d          -4.204  50.496  12.830  0.00  0.00     0.184 HD
BRANCH  15  17
ATOM     17  C5  GZ2 d          -3.315  52.246  12.265  0.00  0.00     0.732 A 
ATOM     18  N4  GZ2 d          -2.428  52.563  13.218  0.00  0.00    -0.115 N 
ATOM     19  N3  GZ2 d          -1.514  53.410  12.568  0.00  0.00     0.008 NA
ATOM     20  H9  GZ2 d          -2.419  52.258  14.201  0.00  0.00     0.203 HD
ATOM     21  N2  GZ2 d          -1.910  53.534  11.223  0.00  0.00     0.033 NA
ATOM     22  N1  GZ2 d          -3.068  52.778  11.049  0.00  0.00     0.030 NA
ENDBRANCH  15  17
ENDBRANCH   4  15
TORSDOF 2
ENDMDL
MODEL 3
REMARK VINA RESULT:      -5.1      1.648      2.123
REMARK  2 active torsions:
REMARK  status: ('A' for Active; 'I' for Inactive)
REMARK    1  A    between atoms: C7_4  and  N6_8 
REMARK    2  A    between atoms: N6_8  and  C5_9 
ROOT
ATOM      1  O13 GZ2 d          -8.976  53.765  10.194  0.00  0.00    -0.293 OA
ATOM      2  C11 GZ2 d          -7.960  53.257  10.644  0.00  0.00     0.151 C 
ATOM      3  C12 GZ2 d          -6.909  54.124  11.219  0.00  0.00    -0.017 C 
ATOM      4  C7  GZ2 d          -5.802  53.597  11.773  0.00  0.00     0.030 C 
ATOM      5  C8  GZ2 d          -5.594  52.102  11.866  0.00  0.00    -0.026 C 
ATOM      6  C9  GZ2 d          -6.874  51.280  11.737  0.00  0.00    -0.054 C 
ATOM      7  C10 GZ2 d          -7.782  51.752  10.612  0.00  0.00    -0.006 C 
ATOM      8  H1  GZ2 d          -7.033  55.206  11.194  0.00  0.00     0.092 H 
ATOM      9  H2  GZ2 d          -5.138  51.877  12.842  0.00  0.00     0.042 H 
ATOM     10  H3  GZ2 d          -4.907  51.799  11.062  0.00  0.00     0.042 H 
ATOM     11  H4  GZ2 d          -7.429  51.346  12.685  0.00  0.00     0.034 H 
ATOM     12  H5  GZ2 d          -6.598  50.232  11.546  0.00  0.00     0.034 H 
ATOM     13  H6  GZ2 d          -7.339  51.464   9.648  0.00  0.00     0.044 H 
ATOM     14  H7  GZ2 d          -8.766  51.273  10.721  0.00  0.00     0.044 H 
ENDROOT
BRANCH   4  15
ATOM     15  N6  GZ2 d          -4.782  54.312  12.270  0.00  0.00    -0.192 N 
ATOM     16  H8  GZ2 d          -5.001  55.277  12.557  0.00  0.00     0.184 HD
BRANCH  15  17
ATOM     17  C5  GZ2 d          -3.488  53.910  12.439  0.00  0.00     0.732 A 
ATOM     18  N4  GZ2 d          -2.834  53.929  13.608  0.00  0.00    -0.115 N 
ATOM     19  N3  GZ2 d          -1.554  53.440  13.295  0.00  0.00     0.008 NA
ATOM     20  H9  GZ2 d          -3.188  54.231  14.526  0.00  0.00     0.203 HD
ATOM     21  N2  GZ2 d          -1.526  53.132  11.922  0.00  0.00     0.033 NA
ATOM     22  N1  GZ2 d          -2.779  53.440  11.391  0.00  0.00     0.030 NA
ENDBRANCH  15  17
ENDBRANCH   4  15
TORSDOF 2
ENDMDL
MODEL 4
REMARK VINA RESULT:      -5.0      3.324      5.282
REMARK  2 active torsions:
REMARK  status: ('A' for Active; 'I' for Inactive)
REMARK    1  A    between atoms: C7_4  and  N6_8 
REMARK    2  A    between atoms: N6_8  and  C5_9 
ROOT
ATOM      1  O13 GZ2 d          -2.179  50.938  10.232  0.00  0.00    -0.293 OA
ATOM      2  C11 GZ2 d          -2.495  51.791  11.047  0.00  0.00     0.151 C 
ATOM      3  C12 GZ2 d          -3.720  51.602  11.855  0.00  0.00    -0.017 C 
ATOM      4  C7  GZ2 d          -4.070  52.493  12.801  0.00  0.00     0.030 C 
ATOM      5  C8  GZ2 d          -3.217  53.705  13.107  0.00  0.00    -0.026 C 
ATOM      6  C9  GZ2 d          -1.771  53.590  12.634  0.00  0.00    -0.054 C 
ATOM      7  C10 GZ2 d          -1.639  53.028  11.227  0.00  0.00    -0.006 C 
ATOM      8  H1  GZ2 d          -4.348  50.729  11.683  0.00  0.00     0.092 H 
ATOM      9  H2  GZ2 d          -3.212  53.856  14.196  0.00  0.00     0.042 H 
ATOM     10  H3  GZ2 d          -3.673  54.579  12.617  0.00  0.00     0.042 H 
ATOM     11  H4  GZ2 d          -1.228  52.929  13.326  0.00  0.00     0.034 H 
ATOM     12  H5  GZ2 d          -1.318  54.593  12.652  0.00  0.00     0.034 H 
ATOM     13  H6  GZ2 d          -1.957  53.792  10.503  0.00  0.00     0.044 H 
ATOM     14  H7  GZ2 d          -0.587  52.765  11.043  0.00  0.00     0.044 H 
ENDROOT
BRANCH   4  15
ATOM     15  N6  GZ2 d          -5.187  52.422  13.540  0.00  0.00    -0.192 N 
ATOM     16  H8  GZ2 d          -5.111  51.911  14.431  0.00  0.00     0.184 HD
BRANCH  15  17
ATOM     17  C5  GZ2 d          -6.412  52.950  13.248  0.00  0.00     0.732 A 
ATOM     18  N4  GZ2 d          -7.275  52.425  12.368  0.00  0.00    -0.115 N 
ATOM     19  N3  GZ2 d          -8.374  53.300  12.399  0.00  0.00     0.008 NA
ATOM     20  H9  GZ2 d          -7.159  51.575  11.798  0.00  0.00     0.203 HD
ATOM     21  N2  GZ2 d          -8.102  54.312  13.338  0.00  0.00     0.033 NA
ATOM     22  N1  GZ2 d          -6.838  54.068  13.873  0.00  0.00     0.030 NA
ENDBRANCH  15  17
ENDBRANCH   4  15
TORSDOF 2
ENDMDL
MODEL 5
REMARK VINA RESULT:      -4.1      1.835      2.384
REMARK  2 active torsions:
REMARK  status: ('A' for Active; 'I' for Inactive)
REMARK    1  A    between atoms: C7_4  and  N6_8 
REMARK    2  A    between atoms: N6_8  and  C5_9 
ROOT
ATOM      1  O13 GZ2 d          -6.758  51.052   9.055  0.00  0.00    -0.293 OA
ATOM      2  C11 GZ2 d          -6.920  51.633  10.117  0.00  0.00     0.151 C 
ATOM      3  C12 GZ2 d          -5.752  51.893  10.987  0.00  0.00    -0.017 C 
ATOM      4  C7  GZ2 d          -5.884  52.578  12.138  0.00  0.00     0.030 C 
ATOM      5  C8  GZ2 d          -7.216  53.142  12.579  0.00  0.00    -0.026 C 
ATOM      6  C9  GZ2 d          -8.239  53.291  11.456  0.00  0.00    -0.054 C 
ATOM      7  C10 GZ2 d          -8.305  52.082  10.536  0.00  0.00    -0.006 C 
ATOM      8  H1  GZ2 d          -4.770  51.525  10.691  0.00  0.00     0.092 H 
ATOM      9  H2  GZ2 d          -7.042  54.135  13.020  0.00  0.00     0.042 H 
ATOM     10  H3  GZ2 d          -7.638  52.471  13.343  0.00  0.00     0.042 H 
ATOM     11  H4  GZ2 d          -7.971  54.172  10.854  0.00  0.00     0.034 H 
ATOM     12  H5  GZ2 d          -9.232  53.442  11.906  0.00  0.00     0.034 H 
ATOM     13  H6  GZ2 d          -8.805  51.256  11.065  0.00  0.00     0.044 H 
ATOM     14  H7  GZ2 d          -8.883  52.345   9.639  0.00  0.00     0.044 H 
ENDROOT
BRANCH   4  15
ATOM     15  N6  GZ2 d          -4.888  52.812  13.004  0.00  0.00    -0.192 N 
ATOM     16  H8  GZ2 d          -5.169  53.103  13.952  0.00  0.00     0.184 HD
BRANCH  15  17
ATOM     17  C5  GZ2 d          -3.545  52.710  12.776  0.00  0.00     0.732 A 
ATOM     18  N4  GZ2 d          -2.820  51.605  12.993  0.00  0.00    -0.115 N 
ATOM     19  N3  GZ2 d          -1.514  51.973  12.629  0.00  0.00     0.008 NA
ATOM     20  H9  GZ2 d          -3.145  50.694  13.346  0.00  0.00     0.203 HD
ATOM     21  N2  GZ2 d          -1.542  53.308  12.184  0.00  0.00     0.033 NA
ATOM     22  N1  GZ2 d          -2.856  53.763  12.286  0.00  0.00     0.030 NA
ENDBRANCH  15  17
ENDBRANCH   4  15
TORSDOF 2
ENDMDL
MODEL 6
REMARK VINA RESULT:      -4.0      1.489      2.398
REMARK  2 active torsions:
REMARK  status: ('A' for Active; 'I' for Inactive)
REMARK    1  A    between atoms: C7_4  and  N6_8 
REMARK    2  A    between atoms: N6_8  and  C5_9 
ROOT
ATOM      1  O13 GZ2 d          -8.030  53.235  10.997  0.00  0.00    -0.293 OA
ATOM      2  C11 GZ2 d          -7.173  53.160  11.864  0.00  0.00     0.151 C 
ATOM      3  C12 GZ2 d          -5.881  52.510  11.552  0.00  0.00    -0.017 C 
ATOM      4  C7  GZ2 d          -4.893  52.458  12.464  0.00  0.00     0.030 C 
ATOM      5  C8  GZ2 d          -5.040  53.088  13.832  0.00  0.00    -0.026 C 
ATOM      6  C9  GZ2 d          -6.137  54.146  13.923  0.00  0.00    -0.054 C 
ATOM      7  C10 GZ2 d          -7.433  53.730  13.244  0.00  0.00    -0.006 C 
ATOM      8  H1  GZ2 d          -5.727  52.067  10.569  0.00  0.00     0.092 H 
ATOM      9  H2  GZ2 d          -4.083  53.561  14.098  0.00  0.00     0.042 H 
ATOM     10  H3  GZ2 d          -5.269  52.291  14.555  0.00  0.00     0.042 H 
ATOM     11  H4  GZ2 d          -5.773  55.068  13.445  0.00  0.00     0.034 H 
ATOM     12  H5  GZ2 d          -6.346  54.341  14.985  0.00  0.00     0.034 H 
ATOM     13  H6  GZ2 d          -7.931  52.967  13.859  0.00  0.00     0.044 H 
ATOM     14  H7  GZ2 d          -8.087  54.609  13.151  0.00  0.00     0.044 H 
ENDROOT
BRANCH   4  15
ATOM     15  N6  GZ2 d          -3.715  51.846  12.279  0.00  0.00    -0.192 N 
ATOM     16  H8  GZ2 d          -3.393  51.238  13.046  0.00  0.00     0.184 HD
BRANCH  15  17
ATOM     17  C5  GZ2 d          -2.893  51.934  11.191  0.00  0.00     0.732 A 
ATOM     18  N4  GZ2 d          -2.671  50.938  10.324  0.00  0.00    -0.115 N 
ATOM     19  N3  GZ2 d          -1.768  51.483   9.396  0.00  0.00     0.008 NA
ATOM     20  H9  GZ2 d          -3.070  49.989  10.336  0.00  0.00     0.203 HD
ATOM     21  N2  GZ2 d          -1.514  52.818   9.764  0.00  0.00     0.033 NA
ATOM     22  N1  GZ2 d          -2.247  53.088  10.919  0.00  0.00     0.030 NA
ENDBRANCH  15  17
ENDBRANCH   4  15
TORSDOF 2
ENDMDL
MODEL 7
REMARK VINA RESULT:      -3.4      3.633      5.295
REMARK  2 active torsions:
REMARK  status: ('A' for Active; 'I' for Inactive)
REMARK    1  A    between atoms: C7_4  and  N6_8 
REMARK    2  A    between atoms: N6_8  and  C5_9 
ROOT
ATOM      1  O13 GZ2 d          -1.528  51.227   9.740  0.00  0.00    -0.293 OA
ATOM      2  C11 GZ2 d          -2.442  51.382  10.536  0.00  0.00     0.151 C 
ATOM      3  C12 GZ2 d          -3.822  51.551  10.030  0.00  0.00    -0.017 C 
ATOM      4  C7  GZ2 d          -4.861  51.669  10.877  0.00  0.00     0.030 C 
ATOM      5  C8  GZ2 d          -4.675  51.601  12.377  0.00  0.00    -0.026 C 
ATOM      6  C9  GZ2 d          -3.373  50.939  12.820  0.00  0.00    -0.054 C 
ATOM      7  C10 GZ2 d          -2.161  51.399  12.025  0.00  0.00    -0.006 C 
ATOM      8  H1  GZ2 d          -4.000  51.580   8.956  0.00  0.00     0.092 H 
ATOM      9  H2  GZ2 d          -5.514  51.030  12.803  0.00  0.00     0.042 H 
ATOM     10  H3  GZ2 d          -4.692  52.627  12.774  0.00  0.00     0.042 H 
ATOM     11  H4  GZ2 d          -3.476  49.850  12.699  0.00  0.00     0.034 H 
ATOM     12  H5  GZ2 d          -3.205  51.175  13.881  0.00  0.00     0.034 H 
ATOM     13  H6  GZ2 d          -1.902  52.424  12.328  0.00  0.00     0.044 H 
ATOM     14  H7  GZ2 d          -1.316  50.729  12.238  0.00  0.00     0.044 H 
ENDROOT
BRANCH   4  15
ATOM     15  N6  GZ2 d          -6.131  51.875  10.503  0.00  0.00    -0.192 N 
ATOM     16  H8  GZ2 d          -6.401  51.499   9.582  0.00  0.00     0.184 HD
BRANCH  15  17
ATOM     17  C5  GZ2 d          -7.110  52.525  11.200  0.00  0.00     0.732 A 
ATOM     18  N4  GZ2 d          -7.258  53.856  11.240  0.00  0.00    -0.115 N 
ATOM     19  N3  GZ2 d          -8.373  54.054  12.072  0.00  0.00     0.008 NA
ATOM     20  H9  GZ2 d          -6.686  54.570  10.769  0.00  0.00     0.203 HD
ATOM     21  N2  GZ2 d          -8.849  52.792  12.475  0.00  0.00     0.033 NA
ATOM     22  N1  GZ2 d          -8.025  51.824  11.902  0.00  0.00     0.030 NA
ENDBRANCH  15  17
ENDBRANCH   4  15
TORSDOF 2
ENDMDL
MODEL 8
REMARK VINA RESULT:      -3.2      3.583      5.267
REMARK  2 active torsions:
REMARK  status: ('A' for Active; 'I' for Inactive)
REMARK    1  A    between atoms: C7_4  and  N6_8 
REMARK    2  A    between atoms: N6_8  and  C5_9 
ROOT
ATOM      1  O13 GZ2 d          -2.317  52.164  11.418  0.00  0.00    -0.293 OA
ATOM      2  C11 GZ2 d          -3.405  52.403  11.922  0.00  0.00     0.151 C 
ATOM      3  C12 GZ2 d          -4.604  51.691  11.428  0.00  0.00    -0.017 C 
ATOM      4  C7  GZ2 d          -5.809  51.888  11.994  0.00  0.00     0.030 C 
ATOM      5  C8  GZ2 d          -5.990  52.814  13.177  0.00  0.00    -0.026 C 
ATOM      6  C9  GZ2 d          -4.704  53.113  13.944  0.00  0.00    -0.054 C 
ATOM      7  C10 GZ2 d          -3.520  53.419  13.040  0.00  0.00    -0.006 C 
ATOM      8  H1  GZ2 d          -4.510  50.997  10.594  0.00  0.00     0.092 H 
ATOM      9  H2  GZ2 d          -6.705  52.350  13.872  0.00  0.00     0.042 H 
ATOM     10  H3  GZ2 d          -6.401  53.766  12.809  0.00  0.00     0.042 H 
ATOM     11  H4  GZ2 d          -4.454  52.237  14.561  0.00  0.00     0.034 H 
ATOM     12  H5  GZ2 d          -4.881  53.982  14.594  0.00  0.00     0.034 H 
ATOM     13  H6  GZ2 d          -3.652  54.420  12.603  0.00  0.00     0.044 H 
ATOM     14  H7  GZ2 d          -2.598  53.399  13.638  0.00  0.00     0.044 H 
ENDROOT
BRANCH   4  15
ATOM     15  N6  GZ2 d          -6.950  51.322  11.576  0.00  0.00    -0.192 N 
ATOM     16  H8  GZ2 d          -7.224  50.449  12.048  0.00  0.00     0.184 HD
BRANCH  15  17
ATOM     17  C5  GZ2 d          -7.791  51.769  10.597  0.00  0.00     0.732 A 
ATOM     18  N4  GZ2 d          -7.759  53.002  10.073  0.00  0.00    -0.115 N 
ATOM     19  N3  GZ2 d          -8.796  53.000   9.125  0.00  0.00     0.008 NA
ATOM     20  H9  GZ2 d          -7.122  53.774  10.312  0.00  0.00     0.203 HD
ATOM     21  N2  GZ2 d          -9.388  51.723   9.125  0.00  0.00     0.033 NA
ATOM     22  N1  GZ2 d          -8.727  50.948  10.076  0.00  0.00     0.030 NA
ENDBRANCH  15  17
ENDBRANCH   4  15
TORSDOF 2
ENDMDL
MODEL 9
REMARK VINA RESULT:      -3.0      1.593      2.286
REMARK  2 active torsions:
REMARK  status: ('A' for Active; 'I' for Inactive)
REMARK    1  A    between atoms: C7_4  and  N6_8 
REMARK    2  A    between atoms: N6_8  and  C5_9 
ROOT
ATOM      1  O13 GZ2 d          -9.341  53.489  10.595  0.00  0.00    -0.293 OA
ATOM      2  C11 GZ2 d          -8.342  53.404  11.293  0.00  0.00     0.151 C 
ATOM      3  C12 GZ2 d          -7.035  53.128  10.657  0.00  0.00    -0.017 C 
ATOM      4  C7  GZ2 d          -5.906  53.081  11.387  0.00  0.00     0.030 C 
ATOM      5  C8  GZ2 d          -5.910  53.340  12.877  0.00  0.00    -0.026 C 
ATOM      6  C9  GZ2 d          -7.139  54.094  13.380  0.00  0.00    -0.054 C 
ATOM      7  C10 GZ2 d          -8.444  53.579  12.795  0.00  0.00    -0.006 C 
ATOM      8  H1  GZ2 d          -6.986  52.961   9.582  0.00  0.00     0.092 H 
ATOM      9  H2  GZ2 d          -5.017  53.931  13.128  0.00  0.00     0.042 H 
ATOM     10  H3  GZ2 d          -5.865  52.370  13.395  0.00  0.00     0.042 H 
ATOM     11  H4  GZ2 d          -7.031  55.155  13.112  0.00  0.00     0.034 H 
ATOM     12  H5  GZ2 d          -7.184  53.995  14.475  0.00  0.00     0.034 H 
ATOM     13  H6  GZ2 d          -8.685  52.608  13.253  0.00  0.00     0.044 H 
ATOM     14  H7  GZ2 d          -9.246  54.298  13.018  0.00  0.00     0.044 H 
ENDROOT
BRANCH   4  15
ATOM     15  N6  GZ2 d          -4.693  52.789  10.897  0.00  0.00    -0.192 N 
ATOM     16  H8  GZ2 d          -4.570  52.914   9.881  0.00  0.00     0.184 HD
BRANCH  15  17
ATOM     17  C5  GZ2 d          -3.601  52.345  11.587  0.00  0.00     0.732 A 
ATOM     18  N4  GZ2 d          -2.839  53.112  12.379  0.00  0.00    -0.115 N 
ATOM     19  N3  GZ2 d          -1.850  52.237  12.858  0.00  0.00     0.008 NA
ATOM     20  H9  GZ2 d          -2.953  54.114  12.587  0.00  0.00     0.203 HD
ATOM     21  N2  GZ2 d          -2.099  50.958  12.325  0.00  0.00     0.033 NA
ATOM     22  N1  GZ2 d          -3.229  51.049  11.512  0.00  0.00     0.030 NA
ENDBRANCH  15  17
ENDBRANCH   4  15
TORSDOF 2
ENDMDL
