MODEL 1
REMARK VINA RESULT:     -11.1      0.000      0.000
REMARK  20 active torsions:
REMARK  status: ('A' for Active; 'I' for Inactive)
REMARK    1  A    between atoms: C1_1  and  C23_23 
REMARK    2  A    between atoms: C1_1  and  C2_2 
REMARK    3  A    between atoms: C2_2  and  C18_18 
REMARK    4  A    between atoms: C2_2  and  C3_3 
REMARK    5  A    between atoms: C21_21  and  C4_4 
REMARK    6  A    between atoms: C13_13  and  C5_5 
REMARK    7  A    between atoms: C18_18  and  C7_7 
REMARK    8  A    between atoms: C7_7  and  C16_16 
REMARK    9  A    between atoms: C7_7  and  C8_8 
REMARK   10  A    between atoms: C8_8  and  C9_9 
REMARK   11  A    between atoms: C9_9  and  C10_10 
REMARK       I    between atoms: C16_16  and  N18_45 
REMARK   12  A    between atoms: N18_45  and  C19_19 
REMARK   13  A    between atoms: C19_19  and  C27_27 
REMARK   14  A    between atoms: C19_19  and  C20_20 
REMARK   15  A    between atoms: C20_20  and  C21_21 
REMARK   16  A    between atoms: C21_21  and  C22_22 
REMARK   17  A    between atoms: C23_23  and  C24_24 
REMARK   18  A    between atoms: C24_24  and  C25_25 
REMARK   19  A    between atoms: C25_25  and  N1_44 
REMARK       I    between atoms: C27_27  and  N29_46 
REMARK   20  A    between atoms: N29_46  and  C30_30 
ROOT
ATOM      1  C7  L04 d          35.097  39.035  22.378  0.00  0.00     0.025 C 
ATOM      2  H8  L04 d          35.447  39.459  23.330  0.00  0.00     0.054 H 
ENDROOT
BRANCH   1   3
ATOM      3  C18 L04 d          34.476  37.666  22.653  0.00  0.00    -0.041 C 
ATOM      4  H18 L04 d          33.502  37.632  22.145  0.00  0.00     0.035 H 
ATOM      5  H19 L04 d          35.141  36.904  22.221  0.00  0.00     0.035 H 
BRANCH   3   6
ATOM      6  C2  L04 d          34.248  37.304  24.122  0.00  0.00     0.031 C 
ATOM      7  H3  L04 d          34.436  38.212  24.713  0.00  0.00     0.056 H 
BRANCH   6   8
ATOM      8  C1  L04 d          35.214  36.229  24.640  0.00  0.00    -0.052 C 
ATOM      9  H1  L04 d          36.198  36.695  24.793  0.00  0.00     0.034 H 
ATOM     10  H2  L04 d          34.831  35.857  25.603  0.00  0.00     0.034 H 
BRANCH   8  11
ATOM     11  C23 L04 d          35.388  35.043  23.708  0.00  0.00    -0.063 C 
ATOM     12  H27 L04 d          36.223  35.246  23.021  0.00  0.00     0.033 H 
ATOM     13  H28 L04 d          34.464  34.902  23.129  0.00  0.00     0.033 H 
BRANCH  11  14
ATOM     14  C24 L04 d          35.685  33.768  24.486  0.00  0.00    -0.050 C 
ATOM     15  H29 L04 d          36.774  33.675  24.616  0.00  0.00     0.035 H 
ATOM     16  H30 L04 d          35.309  32.907  23.915  0.00  0.00     0.035 H 
BRANCH  14  17
ATOM     17  C25 L04 d          35.024  33.777  25.856  0.00  0.00    -0.002 C 
ATOM     18  H31 L04 d          34.069  33.236  25.788  0.00  0.00     0.064 H 
ATOM     19  H32 L04 d          34.834  34.821  26.146  0.00  0.00     0.064 H 
BRANCH  17  20
ATOM     20  N1  L04 d          35.840  33.149  26.894  0.00  0.00    -0.344 N 
ATOM     21  C28 L04 d          35.894  31.731  27.272  0.00  0.00     0.023 A 
ATOM     22  C36 L04 d          36.979  31.727  28.347  0.00  0.00    -0.025 A 
ATOM     23  H33 L04 d          36.177  31.100  26.417  0.00  0.00     0.071 H 
ATOM     24  H34 L04 d          34.930  31.389  27.677  0.00  0.00     0.071 H 
ATOM     25  C29 L04 d          37.422  33.057  28.560  0.00  0.00     0.040 A 
ATOM     26  C38 L04 d          37.566  30.678  29.067  0.00  0.00    -0.074 A 
ATOM     27  C26 L04 d          36.663  33.920  27.647  0.00  0.00     0.254 A 
ATOM     28  C37 L04 d          38.443  33.312  29.487  0.00  0.00    -0.067 A 
ATOM     29  O1  L04 d          36.783  35.144  27.549  0.00  0.00    -0.267 OA
ATOM     30  C40 L04 d          39.010  32.257  30.185  0.00  0.00    -0.082 A 
ATOM     31  H40 L04 d          38.786  34.326  29.657  0.00  0.00     0.085 H 
ATOM     32  C39 L04 d          38.578  30.958  29.980  0.00  0.00    -0.082 A 
ATOM     33  H43 L04 d          39.801  32.452  30.900  0.00  0.00     0.083 H 
ATOM     34  H42 L04 d          39.033  30.148  30.539  0.00  0.00     0.083 H 
ATOM     35  H41 L04 d          37.234  29.657  28.914  0.00  0.00     0.084 H 
ENDBRANCH  17  20
ENDBRANCH  14  17
ENDBRANCH  11  14
ENDBRANCH   8  11
ENDBRANCH   6   8
BRANCH   6  36
ATOM     36  C3  L04 d          32.782  36.911  24.340  0.00  0.00     0.177 C 
ATOM     37  O5  L04 d          31.842  37.285  23.592  0.00  0.00    -0.648 OA
ATOM     38  O4  L04 d          32.526  36.222  25.331  0.00  0.00    -0.648 OA
ENDBRANCH   6  36
ENDBRANCH   3   6
ENDBRANCH   1   3
BRANCH   1  39
ATOM     39  C16 L04 d          34.069  39.973  21.761  0.00  0.00     0.222 C 
ATOM     40  O17 L04 d          34.421  40.968  21.122  0.00  0.00    -0.273 OA
ATOM     41  N18 L04 d          32.796  39.649  21.960  0.00  0.00    -0.347 N 
ATOM     42  H46 L04 d          32.575  38.817  22.467  0.00  0.00     0.163 HD
BRANCH  41  43
ATOM     43  C19 L04 d          31.717  40.485  21.452  0.00  0.00     0.090 C 
ATOM     44  H20 L04 d          32.129  41.438  21.086  0.00  0.00     0.087 H 
BRANCH  43  45
ATOM     45  C27 L04 d          30.759  40.745  22.608  0.00  0.00     0.245 C 
ATOM     46  O28 L04 d          30.536  41.900  22.983  0.00  0.00    -0.271 OA
ATOM     47  N29 L04 d          30.148  39.672  23.112  0.00  0.00    -0.325 N 
ATOM     48  H47 L04 d          30.373  38.800  22.676  0.00  0.00     0.169 HD
BRANCH  47  49
ATOM     49  C30 L04 d          29.247  39.607  24.157  0.00  0.00     0.034 A 
ATOM     50  C35 L04 d          29.603  39.756  25.497  0.00  0.00    -0.057 A 
ATOM     51  C34 L04 d          28.645  39.670  26.504  0.00  0.00    -0.081 A 
ATOM     52  H39 L04 d          30.638  39.942  25.758  0.00  0.00     0.086 H 
ATOM     53  C33 L04 d          27.311  39.433  26.175  0.00  0.00    -0.083 A 
ATOM     54  H38 L04 d          28.936  39.786  27.542  0.00  0.00     0.083 H 
ATOM     55  C32 L04 d          26.945  39.281  24.842  0.00  0.00    -0.081 A 
ATOM     56  H37 L04 d          26.562  39.366  26.956  0.00  0.00     0.083 H 
ATOM     57  C31 L04 d          27.910  39.370  23.844  0.00  0.00    -0.057 A 
ATOM     58  H36 L04 d          25.910  39.094  24.582  0.00  0.00     0.083 H 
ATOM     59  H35 L04 d          27.617  39.253  22.806  0.00  0.00     0.086 H 
ENDBRANCH  47  49
ENDBRANCH  43  45
BRANCH  43  60
ATOM     60  C20 L04 d          30.975  39.787  20.311  0.00  0.00    -0.035 C 
ATOM     61  H21 L04 d          30.771  38.757  20.638  0.00  0.00     0.037 H 
ATOM     62  H22 L04 d          31.653  39.770  19.445  0.00  0.00     0.037 H 
BRANCH  60  63
ATOM     63  C21 L04 d          29.647  40.382  19.835  0.00  0.00    -0.059 C 
ATOM     64  H23 L04 d          29.084  40.748  20.705  0.00  0.00     0.038 H 
BRANCH  63  65
ATOM     65  C4  L04 d          29.952  41.549  18.912  0.00  0.00    -0.073 C 
ATOM     66  H4  L04 d          29.262  42.378  19.128  0.00  0.00     0.028 H 
ATOM     67  H5  L04 d          29.827  41.232  17.866  0.00  0.00     0.028 H 
ATOM     68  H6  L04 d          30.988  41.883  19.072  0.00  0.00     0.028 H 
ENDBRANCH  63  65
BRANCH  63  69
ATOM     69  C22 L04 d          28.805  39.329  19.115  0.00  0.00    -0.073 C 
ATOM     70  H24 L04 d          28.413  38.609  19.849  0.00  0.00     0.028 H 
ATOM     71  H25 L04 d          29.429  38.801  18.379  0.00  0.00     0.028 H 
ATOM     72  H26 L04 d          27.966  39.820  18.600  0.00  0.00     0.028 H 
ENDBRANCH  63  69
ENDBRANCH  60  63
ENDBRANCH  43  60
ENDBRANCH  41  43
ENDBRANCH   1  39
BRANCH   1  73
ATOM     73  C8  L04 d          36.284  38.919  21.417  0.00  0.00    -0.050 C 
ATOM     74  H9  L04 d          36.107  39.594  20.566  0.00  0.00     0.034 H 
ATOM     75  H10 L04 d          36.337  37.881  21.057  0.00  0.00     0.034 H 
BRANCH  73  76
ATOM     76  C9  L04 d          37.609  39.274  22.035  0.00  0.00    -0.040 C 
ATOM     77  H11 L04 d          37.429  39.586  23.074  0.00  0.00     0.040 H 
ATOM     78  H12 L04 d          38.036  40.115  21.469  0.00  0.00     0.040 H 
BRANCH  76  79
ATOM     79  C10 L04 d          38.614  38.165  22.049  0.00  0.00    -0.058 A 
ATOM     80  C15 L04 d          38.353  36.983  22.733  0.00  0.00    -0.076 A 
ATOM     81  C14 L04 d          39.265  35.938  22.721  0.00  0.00    -0.072 A 
ATOM     82  H16 L04 d          37.424  36.876  23.281  0.00  0.00     0.084 H 
ATOM     83  C13 L04 d          40.462  36.060  22.025  0.00  0.00    -0.026 A 
ATOM     84  H15 L04 d          39.044  35.022  23.257  0.00  0.00     0.084 H 
ATOM     85  C12 L04 d          40.723  37.245  21.345  0.00  0.00    -0.072 A 
ATOM     86  C11 L04 d          39.811  38.285  21.357  0.00  0.00    -0.076 A 
ATOM     87  H14 L04 d          41.653  37.355  20.798  0.00  0.00     0.084 H 
ATOM     88  H13 L04 d          40.034  39.201  20.822  0.00  0.00     0.084 H 
BRANCH  83  89
ATOM     89  C5  L04 d          41.440  34.961  22.000  0.00  0.00    -0.026 A 
ATOM     90  C43 L04 d          42.572  35.007  22.806  0.00  0.00    -0.069 A 
ATOM     91  C42 L04 d          43.501  33.976  22.779  0.00  0.00    -0.045 A 
ATOM     92  H45 L04 d          42.730  35.856  23.462  0.00  0.00     0.085 H 
ATOM     93  C41 L04 d          43.320  32.881  21.946  0.00  0.00     0.116 A 
ATOM     94  H44 L04 d          44.378  34.028  23.414  0.00  0.00     0.088 H 
ATOM     95  C17 L04 d          42.184  32.822  21.151  0.00  0.00    -0.045 A 
ATOM     96  F1  L04 d          44.238  31.894  21.916  0.00  0.00    -0.206 F 
ATOM     97  C6  L04 d          41.255  33.858  21.173  0.00  0.00    -0.069 A 
ATOM     98  H17 L04 d          42.019  31.964  20.510  0.00  0.00     0.088 H 
ATOM     99  H7  L04 d          40.378  33.805  20.538  0.00  0.00     0.085 H 
ENDBRANCH  83  89
ENDBRANCH  76  79
ENDBRANCH  73  76
ENDBRANCH   1  73
TORSDOF 20
ENDMDL
MODEL 2
REMARK VINA RESULT:     -10.9      2.819      6.415
REMARK  20 active torsions:
REMARK  status: ('A' for Active; 'I' for Inactive)
REMARK    1  A    between atoms: C1_1  and  C23_23 
REMARK    2  A    between atoms: C1_1  and  C2_2 
REMARK    3  A    between atoms: C2_2  and  C18_18 
REMARK    4  A    between atoms: C2_2  and  C3_3 
REMARK    5  A    between atoms: C21_21  and  C4_4 
REMARK    6  A    between atoms: C13_13  and  C5_5 
REMARK    7  A    between atoms: C18_18  and  C7_7 
REMARK    8  A    between atoms: C7_7  and  C16_16 
REMARK    9  A    between atoms: C7_7  and  C8_8 
REMARK   10  A    between atoms: C8_8  and  C9_9 
REMARK   11  A    between atoms: C9_9  and  C10_10 
REMARK       I    between atoms: C16_16  and  N18_45 
REMARK   12  A    between atoms: N18_45  and  C19_19 
REMARK   13  A    between atoms: C19_19  and  C27_27 
REMARK   14  A    between atoms: C19_19  and  C20_20 
REMARK   15  A    between atoms: C20_20  and  C21_21 
REMARK   16  A    between atoms: C21_21  and  C22_22 
REMARK   17  A    between atoms: C23_23  and  C24_24 
REMARK   18  A    between atoms: C24_24  and  C25_25 
REMARK   19  A    between atoms: C25_25  and  N1_44 
REMARK       I    between atoms: C27_27  and  N29_46 
REMARK   20  A    between atoms: N29_46  and  C30_30 
ROOT
ATOM      1  C7  L04 d          33.651  38.143  22.769  0.00  0.00     0.025 C 
ATOM      2  H8  L04 d          33.860  37.895  21.718  0.00  0.00     0.054 H 
ENDROOT
BRANCH   1   3
ATOM      3  C18 L04 d          34.915  38.737  23.391  0.00  0.00    -0.041 C 
ATOM      4  H18 L04 d          34.641  39.698  23.850  0.00  0.00     0.035 H 
ATOM      5  H19 L04 d          35.262  38.044  24.171  0.00  0.00     0.035 H 
BRANCH   3   6
ATOM      6  C2  L04 d          36.086  38.992  22.440  0.00  0.00     0.031 C 
ATOM      7  H3  L04 d          35.659  39.254  21.462  0.00  0.00     0.056 H 
BRANCH   6   8
ATOM      8  C1  L04 d          36.971  37.756  22.221  0.00  0.00    -0.052 C 
ATOM      9  H1  L04 d          36.348  36.959  21.790  0.00  0.00     0.034 H 
ATOM     10  H2  L04 d          37.767  38.024  21.510  0.00  0.00     0.034 H 
BRANCH   8  11
ATOM     11  C23 L04 d          37.622  37.221  23.485  0.00  0.00    -0.063 C 
ATOM     12  H27 L04 d          36.839  36.986  24.221  0.00  0.00     0.033 H 
ATOM     13  H28 L04 d          38.292  37.990  23.896  0.00  0.00     0.033 H 
BRANCH  11  14
ATOM     14  C24 L04 d          38.429  35.961  23.200  0.00  0.00    -0.050 C 
ATOM     15  H29 L04 d          37.748  35.178  22.833  0.00  0.00     0.035 H 
ATOM     16  H30 L04 d          38.906  35.626  24.132  0.00  0.00     0.035 H 
BRANCH  14  17
ATOM     17  C25 L04 d          39.506  36.207  22.154  0.00  0.00    -0.002 C 
ATOM     18  H31 L04 d          39.031  36.624  21.254  0.00  0.00     0.064 H 
ATOM     19  H32 L04 d          39.979  35.245  21.906  0.00  0.00     0.064 H 
BRANCH  17  20
ATOM     20  N1  L04 d          40.545  37.133  22.602  0.00  0.00    -0.344 N 
ATOM     21  C28 L04 d          41.451  36.993  23.749  0.00  0.00     0.023 A 
ATOM     22  C36 L04 d          42.326  38.239  23.620  0.00  0.00    -0.025 A 
ATOM     23  H33 L04 d          42.052  36.075  23.674  0.00  0.00     0.071 H 
ATOM     24  H34 L04 d          40.896  36.992  24.698  0.00  0.00     0.071 H 
ATOM     25  C29 L04 d          41.872  39.008  22.518  0.00  0.00     0.040 A 
ATOM     26  C38 L04 d          43.435  38.672  24.358  0.00  0.00    -0.074 A 
ATOM     27  C26 L04 d          40.737  38.291  21.925  0.00  0.00     0.254 A 
ATOM     28  C37 L04 d          42.536  40.195  22.176  0.00  0.00    -0.067 A 
ATOM     29  O1  L04 d          40.089  38.661  20.942  0.00  0.00    -0.267 OA
ATOM     30  C40 L04 d          43.633  40.602  22.920  0.00  0.00    -0.082 A 
ATOM     31  H40 L04 d          42.195  40.789  21.337  0.00  0.00     0.085 H 
ATOM     32  C39 L04 d          44.077  39.853  23.997  0.00  0.00    -0.082 A 
ATOM     33  H43 L04 d          44.150  41.517  22.654  0.00  0.00     0.083 H 
ATOM     34  H42 L04 d          44.935  40.191  24.566  0.00  0.00     0.083 H 
ATOM     35  H41 L04 d          43.789  38.094  25.203  0.00  0.00     0.084 H 
ENDBRANCH  17  20
ENDBRANCH  14  17
ENDBRANCH  11  14
ENDBRANCH   8  11
ENDBRANCH   6   8
BRANCH   6  36
ATOM     36  C3  L04 d          36.897  40.199  22.926  0.00  0.00     0.177 C 
ATOM     37  O5  L04 d          36.748  40.729  24.057  0.00  0.00    -0.648 OA
ATOM     38  O4  L04 d          37.708  40.687  22.134  0.00  0.00    -0.648 OA
ENDBRANCH   6  36
ENDBRANCH   3   6
ENDBRANCH   1   3
BRANCH   1  39
ATOM     39  C16 L04 d          32.506  39.143  22.828  0.00  0.00     0.222 C 
ATOM     40  O17 L04 d          32.699  40.342  22.612  0.00  0.00    -0.273 OA
ATOM     41  N18 L04 d          31.311  38.640  23.123  0.00  0.00    -0.347 N 
ATOM     42  H46 L04 d          31.215  37.655  23.264  0.00  0.00     0.163 HD
BRANCH  41  43
ATOM     43  C19 L04 d          30.141  39.498  23.244  0.00  0.00     0.090 C 
ATOM     44  H20 L04 d          30.428  40.544  23.057  0.00  0.00     0.087 H 
BRANCH  43  45
ATOM     45  C27 L04 d          29.614  39.352  24.667  0.00  0.00     0.245 C 
ATOM     46  O28 L04 d          30.269  38.735  25.511  0.00  0.00    -0.271 OA
ATOM     47  N29 L04 d          28.471  39.985  24.932  0.00  0.00    -0.325 N 
ATOM     48  H47 L04 d          28.074  40.502  24.173  0.00  0.00     0.169 HD
BRANCH  47  49
ATOM     49  C30 L04 d          27.763  40.020  26.118  0.00  0.00     0.034 A 
ATOM     50  C35 L04 d          28.003  40.944  27.135  0.00  0.00    -0.057 A 
ATOM     51  C34 L04 d          27.258  40.919  28.312  0.00  0.00    -0.081 A 
ATOM     52  H39 L04 d          28.778  41.691  27.008  0.00  0.00     0.086 H 
ATOM     53  C33 L04 d          26.258  39.962  28.481  0.00  0.00    -0.083 A 
ATOM     54  H38 L04 d          27.456  41.643  29.095  0.00  0.00     0.083 H 
ATOM     55  C32 L04 d          26.012  39.036  27.474  0.00  0.00    -0.081 A 
ATOM     56  H37 L04 d          25.675  39.940  29.395  0.00  0.00     0.083 H 
ATOM     57  C31 L04 d          26.761  39.070  26.302  0.00  0.00    -0.057 A 
ATOM     58  H36 L04 d          25.237  38.288  27.602  0.00  0.00     0.083 H 
ATOM     59  H35 L04 d          26.562  38.346  25.520  0.00  0.00     0.086 H 
ENDBRANCH  47  49
ENDBRANCH  43  45
BRANCH  43  60
ATOM     60  C20 L04 d          29.057  39.088  22.245  0.00  0.00    -0.035 C 
ATOM     61  H21 L04 d          28.159  38.834  22.827  0.00  0.00     0.037 H 
ATOM     62  H22 L04 d          29.420  38.193  21.720  0.00  0.00     0.037 H 
BRANCH  60  63
ATOM     63  C21 L04 d          28.633  40.099  21.176  0.00  0.00    -0.059 C 
ATOM     64  H23 L04 d          28.406  41.060  21.660  0.00  0.00     0.038 H 
BRANCH  63  65
ATOM     65  C4  L04 d          29.791  40.287  20.212  0.00  0.00    -0.073 C 
ATOM     66  H4  L04 d          29.828  41.336  19.883  0.00  0.00     0.028 H 
ATOM     67  H5  L04 d          29.651  39.633  19.338  0.00  0.00     0.028 H 
ATOM     68  H6  L04 d          30.734  40.028  20.716  0.00  0.00     0.028 H 
ENDBRANCH  63  65
BRANCH  63  69
ATOM     69  C22 L04 d          27.385  39.618  20.436  0.00  0.00    -0.073 C 
ATOM     70  H24 L04 d          26.692  40.461  20.299  0.00  0.00     0.028 H 
ATOM     71  H25 L04 d          26.891  38.830  21.023  0.00  0.00     0.028 H 
ATOM     72  H26 L04 d          27.674  39.217  19.453  0.00  0.00     0.028 H 
ENDBRANCH  63  69
ENDBRANCH  60  63
ENDBRANCH  43  60
ENDBRANCH  41  43
ENDBRANCH   1  39
BRANCH   1  73
ATOM     73  C8  L04 d          33.221  36.871  23.506  0.00  0.00    -0.050 C 
ATOM     74  H9  L04 d          32.164  36.675  23.270  0.00  0.00     0.034 H 
ATOM     75  H10 L04 d          33.329  37.044  24.587  0.00  0.00     0.034 H 
BRANCH  73  76
ATOM     76  C9  L04 d          34.020  35.650  23.139  0.00  0.00    -0.040 C 
ATOM     77  H11 L04 d          34.783  35.949  22.406  0.00  0.00     0.040 H 
ATOM     78  H12 L04 d          33.338  34.919  22.680  0.00  0.00     0.040 H 
BRANCH  76  79
ATOM     79  C10 L04 d          34.713  34.983  24.287  0.00  0.00    -0.058 A 
ATOM     80  C15 L04 d          34.931  35.671  25.475  0.00  0.00    -0.076 A 
ATOM     81  C14 L04 d          35.542  35.048  26.554  0.00  0.00    -0.072 A 
ATOM     82  H16 L04 d          34.620  36.705  25.561  0.00  0.00     0.084 H 
ATOM     83  C13 L04 d          35.950  33.723  26.461  0.00  0.00    -0.026 A 
ATOM     84  H15 L04 d          35.702  35.597  27.475  0.00  0.00     0.084 H 
ATOM     85  C12 L04 d          35.734  33.039  25.268  0.00  0.00    -0.072 A 
ATOM     86  C11 L04 d          35.124  33.661  24.195  0.00  0.00    -0.076 A 
ATOM     87  H14 L04 d          36.048  32.005  25.180  0.00  0.00     0.084 H 
ATOM     88  H13 L04 d          34.966  33.111  23.274  0.00  0.00     0.084 H 
BRANCH  83  89
ATOM     89  C5  L04 d          36.597  33.046  27.596  0.00  0.00    -0.026 A 
ATOM     90  C43 L04 d          37.253  33.784  28.575  0.00  0.00    -0.069 A 
ATOM     91  C42 L04 d          37.873  33.148  29.642  0.00  0.00    -0.045 A 
ATOM     92  H45 L04 d          37.282  34.866  28.504  0.00  0.00     0.085 H 
ATOM     93  C41 L04 d          37.851  31.765  29.752  0.00  0.00     0.116 A 
ATOM     94  H44 L04 d          38.379  33.738  30.397  0.00  0.00     0.088 H 
ATOM     95  C17 L04 d          37.183  31.025  28.786  0.00  0.00    -0.045 A 
ATOM     96  F1  L04 d          38.470  31.158  30.785  0.00  0.00    -0.206 F 
ATOM     97  C6  L04 d          36.568  31.660  27.713  0.00  0.00    -0.069 A 
ATOM     98  H17 L04 d          37.142  29.944  28.869  0.00  0.00     0.088 H 
ATOM     99  H7  L04 d          36.061  31.069  26.959  0.00  0.00     0.085 H 
ENDBRANCH  83  89
ENDBRANCH  76  79
ENDBRANCH  73  76
ENDBRANCH   1  73
TORSDOF 20
ENDMDL
MODEL 3
REMARK VINA RESULT:     -10.8      3.183      5.039
REMARK  20 active torsions:
REMARK  status: ('A' for Active; 'I' for Inactive)
REMARK    1  A    between atoms: C1_1  and  C23_23 
REMARK    2  A    between atoms: C1_1  and  C2_2 
REMARK    3  A    between atoms: C2_2  and  C18_18 
REMARK    4  A    between atoms: C2_2  and  C3_3 
REMARK    5  A    between atoms: C21_21  and  C4_4 
REMARK    6  A    between atoms: C13_13  and  C5_5 
REMARK    7  A    between atoms: C18_18  and  C7_7 
REMARK    8  A    between atoms: C7_7  and  C16_16 
REMARK    9  A    between atoms: C7_7  and  C8_8 
REMARK   10  A    between atoms: C8_8  and  C9_9 
REMARK   11  A    between atoms: C9_9  and  C10_10 
REMARK       I    between atoms: C16_16  and  N18_45 
REMARK   12  A    between atoms: N18_45  and  C19_19 
REMARK   13  A    between atoms: C19_19  and  C27_27 
REMARK   14  A    between atoms: C19_19  and  C20_20 
REMARK   15  A    between atoms: C20_20  and  C21_21 
REMARK   16  A    between atoms: C21_21  and  C22_22 
REMARK   17  A    between atoms: C23_23  and  C24_24 
REMARK   18  A    between atoms: C24_24  and  C25_25 
REMARK   19  A    between atoms: C25_25  and  N1_44 
REMARK       I    between atoms: C27_27  and  N29_46 
REMARK   20  A    between atoms: N29_46  and  C30_30 
ROOT
ATOM      1  C7  L04 d          32.367  38.928  24.396  0.00  0.00     0.025 C 
ATOM      2  H8  L04 d          33.225  38.754  25.062  0.00  0.00     0.054 H 
ENDROOT
BRANCH   1   3
ATOM      3  C18 L04 d          32.473  37.975  23.206  0.00  0.00    -0.041 C 
ATOM      4  H18 L04 d          31.531  37.412  23.143  0.00  0.00     0.035 H 
ATOM      5  H19 L04 d          32.597  38.585  22.299  0.00  0.00     0.035 H 
BRANCH   3   6
ATOM      6  C2  L04 d          33.619  36.962  23.245  0.00  0.00     0.031 C 
ATOM      7  H3  L04 d          33.241  36.027  22.806  0.00  0.00     0.056 H 
BRANCH   6   8
ATOM      8  C1  L04 d          34.084  36.625  24.669  0.00  0.00    -0.052 C 
ATOM      9  H1  L04 d          35.050  37.121  24.842  0.00  0.00     0.034 H 
ATOM     10  H2  L04 d          33.339  37.017  25.377  0.00  0.00     0.034 H 
BRANCH   8  11
ATOM     11  C23 L04 d          34.258  35.139  24.936  0.00  0.00    -0.063 C 
ATOM     12  H27 L04 d          34.346  34.610  23.975  0.00  0.00     0.033 H 
ATOM     13  H28 L04 d          33.378  34.767  25.480  0.00  0.00     0.033 H 
BRANCH  11  14
ATOM     14  C24 L04 d          35.505  34.870  25.766  0.00  0.00    -0.050 C 
ATOM     15  H29 L04 d          35.557  35.608  26.581  0.00  0.00     0.035 H 
ATOM     16  H30 L04 d          36.391  34.971  25.122  0.00  0.00     0.035 H 
BRANCH  14  17
ATOM     17  C25 L04 d          35.491  33.472  26.368  0.00  0.00    -0.002 C 
ATOM     18  H31 L04 d          35.826  32.758  25.601  0.00  0.00     0.064 H 
ATOM     19  H32 L04 d          34.461  33.231  26.669  0.00  0.00     0.064 H 
BRANCH  17  20
ATOM     20  N1  L04 d          36.359  33.339  27.537  0.00  0.00    -0.344 N 
ATOM     21  C28 L04 d          37.005  34.404  28.314  0.00  0.00     0.023 A 
ATOM     22  C36 L04 d          37.694  33.617  29.427  0.00  0.00    -0.025 A 
ATOM     23  H33 L04 d          36.263  35.106  28.723  0.00  0.00     0.071 H 
ATOM     24  H34 L04 d          37.735  34.956  27.705  0.00  0.00     0.071 H 
ATOM     25  C29 L04 d          37.474  32.231  29.215  0.00  0.00     0.040 A 
ATOM     26  C38 L04 d          38.423  34.039  30.546  0.00  0.00    -0.074 A 
ATOM     27  C26 L04 d          36.655  32.101  28.004  0.00  0.00     0.254 A 
ATOM     28  C37 L04 d          37.988  31.297  30.125  0.00  0.00    -0.067 A 
ATOM     29  O1  L04 d          36.263  31.039  27.513  0.00  0.00    -0.267 OA
ATOM     30  C40 L04 d          38.705  31.740  31.227  0.00  0.00    -0.082 A 
ATOM     31  H40 L04 d          37.827  30.237  29.970  0.00  0.00     0.085 H 
ATOM     32  C39 L04 d          38.921  33.091  31.435  0.00  0.00    -0.082 A 
ATOM     33  H43 L04 d          39.100  31.019  31.934  0.00  0.00     0.083 H 
ATOM     34  H42 L04 d          39.486  33.415  32.301  0.00  0.00     0.083 H 
ATOM     35  H41 L04 d          38.598  35.095  30.717  0.00  0.00     0.084 H 
ENDBRANCH  17  20
ENDBRANCH  14  17
ENDBRANCH  11  14
ENDBRANCH   8  11
ENDBRANCH   6   8
BRANCH   6  36
ATOM     36  C3  L04 d          34.775  37.448  22.364  0.00  0.00     0.177 C 
ATOM     37  O5  L04 d          35.965  37.063  22.502  0.00  0.00    -0.648 OA
ATOM     38  O4  L04 d          34.511  38.294  21.505  0.00  0.00    -0.648 OA
ENDBRANCH   6  36
ENDBRANCH   3   6
ENDBRANCH   1   3
BRANCH   1  39
ATOM     39  C16 L04 d          31.078  38.679  25.166  0.00  0.00     0.222 C 
ATOM     40  O17 L04 d          30.826  37.568  25.640  0.00  0.00    -0.273 OA
ATOM     41  N18 L04 d          30.264  39.722  25.286  0.00  0.00    -0.347 N 
ATOM     42  H46 L04 d          30.535  40.603  24.900  0.00  0.00     0.163 HD
BRANCH  41  43
ATOM     43  C19 L04 d          28.984  39.605  25.969  0.00  0.00     0.090 C 
ATOM     44  H20 L04 d          28.997  38.727  26.632  0.00  0.00     0.087 H 
BRANCH  43  45
ATOM     45  C27 L04 d          27.910  39.430  24.900  0.00  0.00     0.245 C 
ATOM     46  O28 L04 d          26.724  39.325  25.223  0.00  0.00    -0.271 OA
ATOM     47  N29 L04 d          28.334  39.473  23.637  0.00  0.00    -0.325 N 
ATOM     48  H47 L04 d          29.315  39.624  23.512  0.00  0.00     0.169 HD
BRANCH  47  49
ATOM     49  C30 L04 d          27.596  39.335  22.477  0.00  0.00     0.034 A 
ATOM     50  C35 L04 d          27.981  39.866  21.247  0.00  0.00    -0.057 A 
ATOM     51  C34 L04 d          27.185  39.699  20.116  0.00  0.00    -0.081 A 
ATOM     52  H39 L04 d          28.913  40.415  21.169  0.00  0.00     0.086 H 
ATOM     53  C33 L04 d          25.987  38.992  20.209  0.00  0.00    -0.083 A 
ATOM     54  H38 L04 d          27.497  40.118  19.166  0.00  0.00     0.083 H 
ATOM     55  C32 L04 d          25.592  38.460  21.431  0.00  0.00    -0.081 A 
ATOM     56  H37 L04 d          25.365  38.859  19.331  0.00  0.00     0.083 H 
ATOM     57  C31 L04 d          26.395  38.632  22.555  0.00  0.00    -0.057 A 
ATOM     58  H36 L04 d          24.660  37.912  21.509  0.00  0.00     0.083 H 
ATOM     59  H35 L04 d          26.083  38.212  23.504  0.00  0.00     0.086 H 
ENDBRANCH  47  49
ENDBRANCH  43  45
BRANCH  43  60
ATOM     60  C20 L04 d          28.689  40.856  26.799  0.00  0.00    -0.035 C 
ATOM     61  H21 L04 d          28.077  41.523  26.174  0.00  0.00     0.037 H 
ATOM     62  H22 L04 d          29.655  41.337  27.014  0.00  0.00     0.037 H 
BRANCH  60  63
ATOM     63  C21 L04 d          27.959  40.689  28.134  0.00  0.00    -0.059 C 
ATOM     64  H23 L04 d          27.784  39.618  28.317  0.00  0.00     0.038 H 
BRANCH  63  65
ATOM     65  C4  L04 d          28.844  41.245  29.235  0.00  0.00    -0.073 C 
ATOM     66  H4  L04 d          29.607  41.904  28.794  0.00  0.00     0.028 H 
ATOM     67  H5  L04 d          29.337  40.417  29.764  0.00  0.00     0.028 H 
ATOM     68  H6  L04 d          28.230  41.820  29.945  0.00  0.00     0.028 H 
ENDBRANCH  63  65
BRANCH  63  69
ATOM     69  C22 L04 d          26.610  41.406  28.110  0.00  0.00    -0.073 C 
ATOM     70  H24 L04 d          25.916  40.862  27.452  0.00  0.00     0.028 H 
ATOM     71  H25 L04 d          26.745  42.431  27.734  0.00  0.00     0.028 H 
ATOM     72  H26 L04 d          26.195  41.442  29.129  0.00  0.00     0.028 H 
ENDBRANCH  63  69
ENDBRANCH  60  63
ENDBRANCH  43  60
ENDBRANCH  41  43
ENDBRANCH   1  39
BRANCH   1  73
ATOM     73  C8  L04 d          32.381  40.388  23.936  0.00  0.00    -0.050 C 
ATOM     74  H9  L04 d          31.430  40.854  24.234  0.00  0.00     0.034 H 
ATOM     75  H10 L04 d          32.469  40.404  22.839  0.00  0.00     0.034 H 
BRANCH  73  76
ATOM     76  C9  L04 d          33.508  41.202  24.513  0.00  0.00    -0.040 C 
ATOM     77  H11 L04 d          33.625  40.922  25.570  0.00  0.00     0.040 H 
ATOM     78  H12 L04 d          33.232  42.264  24.444  0.00  0.00     0.040 H 
BRANCH  76  79
ATOM     79  C10 L04 d          34.829  41.018  23.833  0.00  0.00    -0.058 A 
ATOM     80  C15 L04 d          35.886  40.406  24.498  0.00  0.00    -0.076 A 
ATOM     81  C14 L04 d          37.102  40.202  23.862  0.00  0.00    -0.072 A 
ATOM     82  H16 L04 d          35.759  40.084  25.525  0.00  0.00     0.084 H 
ATOM     83  C13 L04 d          37.283  40.611  22.546  0.00  0.00    -0.026 A 
ATOM     84  H15 L04 d          37.915  39.721  24.393  0.00  0.00     0.084 H 
ATOM     85  C12 L04 d          36.224  41.227  21.885  0.00  0.00    -0.072 A 
ATOM     86  C11 L04 d          35.014  41.428  22.521  0.00  0.00    -0.076 A 
ATOM     87  H14 L04 d          36.351  41.553  20.859  0.00  0.00     0.084 H 
ATOM     88  H13 L04 d          34.201  41.911  21.989  0.00  0.00     0.084 H 
BRANCH  83  89
ATOM     89  C5  L04 d          38.566  40.401  21.856  0.00  0.00    -0.026 A 
ATOM     90  C43 L04 d          39.687  41.141  22.213  0.00  0.00    -0.069 A 
ATOM     91  C42 L04 d          40.896  40.951  21.557  0.00  0.00    -0.045 A 
ATOM     92  H45 L04 d          39.617  41.873  23.010  0.00  0.00     0.085 H 
ATOM     93  C41 L04 d          41.008  40.021  20.533  0.00  0.00     0.116 A 
ATOM     94  H44 L04 d          41.761  41.535  21.848  0.00  0.00     0.088 H 
ATOM     95  C17 L04 d          39.896  39.269  20.184  0.00  0.00    -0.045 A 
ATOM     96  F1  L04 d          42.184  39.858  19.893  0.00  0.00    -0.206 F 
ATOM     97  C6  L04 d          38.682  39.463  20.835  0.00  0.00    -0.069 A 
ATOM     98  H17 L04 d          39.973  38.525  19.398  0.00  0.00     0.088 H 
ATOM     99  H7  L04 d          37.818  38.877  20.544  0.00  0.00     0.085 H 
ENDBRANCH  83  89
ENDBRANCH  76  79
ENDBRANCH  73  76
ENDBRANCH   1  73
TORSDOF 20
ENDMDL
MODEL 4
REMARK VINA RESULT:     -10.6      2.644      6.186
REMARK  20 active torsions:
REMARK  status: ('A' for Active; 'I' for Inactive)
REMARK    1  A    between atoms: C1_1  and  C23_23 
REMARK    2  A    between atoms: C1_1  and  C2_2 
REMARK    3  A    between atoms: C2_2  and  C18_18 
REMARK    4  A    between atoms: C2_2  and  C3_3 
REMARK    5  A    between atoms: C21_21  and  C4_4 
REMARK    6  A    between atoms: C13_13  and  C5_5 
REMARK    7  A    between atoms: C18_18  and  C7_7 
REMARK    8  A    between atoms: C7_7  and  C16_16 
REMARK    9  A    between atoms: C7_7  and  C8_8 
REMARK   10  A    between atoms: C8_8  and  C9_9 
REMARK   11  A    between atoms: C9_9  and  C10_10 
REMARK       I    between atoms: C16_16  and  N18_45 
REMARK   12  A    between atoms: N18_45  and  C19_19 
REMARK   13  A    between atoms: C19_19  and  C27_27 
REMARK   14  A    between atoms: C19_19  and  C20_20 
REMARK   15  A    between atoms: C20_20  and  C21_21 
REMARK   16  A    between atoms: C21_21  and  C22_22 
REMARK   17  A    between atoms: C23_23  and  C24_24 
REMARK   18  A    between atoms: C24_24  and  C25_25 
REMARK   19  A    between atoms: C25_25  and  N1_44 
REMARK       I    between atoms: C27_27  and  N29_46 
REMARK   20  A    between atoms: N29_46  and  C30_30 
ROOT
ATOM      1  C7  L04 d          33.892  38.955  21.914  0.00  0.00     0.025 C 
ATOM      2  H8  L04 d          34.329  38.442  21.044  0.00  0.00     0.054 H 
ENDROOT
BRANCH   1   3
ATOM      3  C18 L04 d          34.946  39.886  22.511  0.00  0.00    -0.041 C 
ATOM      4  H18 L04 d          34.567  40.915  22.431  0.00  0.00     0.035 H 
ATOM      5  H19 L04 d          35.065  39.620  23.571  0.00  0.00     0.035 H 
BRANCH   3   6
ATOM      6  C2  L04 d          36.332  39.850  21.864  0.00  0.00     0.031 C 
ATOM      7  H3  L04 d          36.199  40.084  20.798  0.00  0.00     0.056 H 
BRANCH   6   8
ATOM      8  C1  L04 d          37.000  38.469  21.935  0.00  0.00    -0.052 C 
ATOM      9  H1  L04 d          36.304  37.728  21.514  0.00  0.00     0.034 H 
ATOM     10  H2  L04 d          37.916  38.498  21.327  0.00  0.00     0.034 H 
BRANCH   8  11
ATOM     11  C23 L04 d          37.374  38.027  23.339  0.00  0.00    -0.063 C 
ATOM     12  H27 L04 d          36.455  37.867  23.922  0.00  0.00     0.033 H 
ATOM     13  H28 L04 d          37.977  38.814  23.814  0.00  0.00     0.033 H 
BRANCH  11  14
ATOM     14  C24 L04 d          38.178  36.734  23.315  0.00  0.00    -0.050 C 
ATOM     15  H29 L04 d          37.909  36.164  22.413  0.00  0.00     0.035 H 
ATOM     16  H30 L04 d          37.930  36.144  24.209  0.00  0.00     0.035 H 
BRANCH  14  17
ATOM     17  C25 L04 d          39.676  37.001  23.300  0.00  0.00    -0.002 C 
ATOM     18  H31 L04 d          40.053  36.937  24.332  0.00  0.00     0.064 H 
ATOM     19  H32 L04 d          39.847  38.016  22.910  0.00  0.00     0.064 H 
BRANCH  17  20
ATOM     20  N1  L04 d          40.423  36.054  22.473  0.00  0.00    -0.344 N 
ATOM     21  C28 L04 d          40.859  34.696  22.819  0.00  0.00     0.023 A 
ATOM     22  C36 L04 d          41.508  34.226  21.518  0.00  0.00    -0.025 A 
ATOM     23  H33 L04 d          40.004  34.059  23.091  0.00  0.00     0.071 H 
ATOM     24  H34 L04 d          41.585  34.708  23.645  0.00  0.00     0.071 H 
ATOM     25  C29 L04 d          41.467  35.285  20.575  0.00  0.00     0.040 A 
ATOM     26  C38 L04 d          42.061  32.993  21.151  0.00  0.00    -0.074 A 
ATOM     27  C26 L04 d          40.802  36.422  21.225  0.00  0.00     0.254 A 
ATOM     28  C37 L04 d          41.980  35.090  19.285  0.00  0.00    -0.067 A 
ATOM     29  O1  L04 d          40.585  37.519  20.705  0.00  0.00    -0.267 OA
ATOM     30  C40 L04 d          42.520  33.859  18.944  0.00  0.00    -0.082 A 
ATOM     31  H40 L04 d          41.954  35.894  18.559  0.00  0.00     0.085 H 
ATOM     32  C39 L04 d          42.562  32.825  19.864  0.00  0.00    -0.082 A 
ATOM     33  H43 L04 d          42.914  33.705  17.946  0.00  0.00     0.083 H 
ATOM     34  H42 L04 d          42.991  31.872  19.577  0.00  0.00     0.083 H 
ATOM     35  H41 L04 d          42.099  32.177  21.863  0.00  0.00     0.084 H 
ENDBRANCH  17  20
ENDBRANCH  14  17
ENDBRANCH  11  14
ENDBRANCH   8  11
ENDBRANCH   6   8
BRANCH   6  36
ATOM     36  C3  L04 d          37.218  40.946  22.467  0.00  0.00     0.177 C 
ATOM     37  O5  L04 d          38.302  41.327  21.953  0.00  0.00    -0.648 OA
ATOM     38  O4  L04 d          36.851  41.442  23.536  0.00  0.00    -0.648 OA
ENDBRANCH   6  36
ENDBRANCH   3   6
ENDBRANCH   1   3
BRANCH   1  39
ATOM     39  C16 L04 d          32.672  39.748  21.464  0.00  0.00     0.222 C 
ATOM     40  O17 L04 d          32.795  40.767  20.779  0.00  0.00    -0.273 OA
ATOM     41  N18 L04 d          31.495  39.272  21.857  0.00  0.00    -0.347 N 
ATOM     42  H46 L04 d          31.461  38.428  22.392  0.00  0.00     0.163 HD
BRANCH  41  43
ATOM     43  C19 L04 d          30.256  39.959  21.523  0.00  0.00     0.090 C 
ATOM     44  H20 L04 d          30.482  40.891  20.985  0.00  0.00     0.087 H 
BRANCH  43  45
ATOM     45  C27 L04 d          29.543  40.277  22.833  0.00  0.00     0.245 C 
ATOM     46  O28 L04 d          28.351  39.993  22.977  0.00  0.00    -0.271 OA
ATOM     47  N29 L04 d          30.303  40.799  23.797  0.00  0.00    -0.325 N 
ATOM     48  H47 L04 d          31.269  40.922  23.570  0.00  0.00     0.169 HD
BRANCH  47  49
ATOM     49  C30 L04 d          29.930  41.190  25.068  0.00  0.00     0.034 A 
ATOM     50  C35 L04 d          29.660  40.298  26.105  0.00  0.00    -0.057 A 
ATOM     51  C34 L04 d          29.278  40.758  27.363  0.00  0.00    -0.081 A 
ATOM     52  H39 L04 d          29.748  39.232  25.930  0.00  0.00     0.086 H 
ATOM     53  C33 L04 d          29.165  42.129  27.596  0.00  0.00    -0.083 A 
ATOM     54  H38 L04 d          29.070  40.053  28.160  0.00  0.00     0.083 H 
ATOM     55  C32 L04 d          29.430  43.028  26.569  0.00  0.00    -0.081 A 
ATOM     56  H37 L04 d          28.870  42.492  28.573  0.00  0.00     0.083 H 
ATOM     57  C31 L04 d          29.811  42.557  25.316  0.00  0.00    -0.057 A 
ATOM     58  H36 L04 d          29.341  44.093  26.743  0.00  0.00     0.083 H 
ATOM     59  H35 L04 d          30.019  43.263  24.520  0.00  0.00     0.086 H 
ENDBRANCH  47  49
ENDBRANCH  43  45
BRANCH  43  60
ATOM     60  C20 L04 d          29.361  39.078  20.648  0.00  0.00    -0.035 C 
ATOM     61  H21 L04 d          28.622  38.605  21.312  0.00  0.00     0.037 H 
ATOM     62  H22 L04 d          30.004  38.304  20.202  0.00  0.00     0.037 H 
BRANCH  60  63
ATOM     63  C21 L04 d          28.586  39.737  19.504  0.00  0.00    -0.059 C 
ATOM     64  H23 L04 d          28.755  39.166  18.580  0.00  0.00     0.038 H 
BRANCH  63  65
ATOM     65  C4  L04 d          27.108  39.703  19.849  0.00  0.00    -0.073 C 
ATOM     66  H4  L04 d          26.516  39.929  18.949  0.00  0.00     0.028 H 
ATOM     67  H5  L04 d          26.894  40.451  20.626  0.00  0.00     0.028 H 
ATOM     68  H6  L04 d          26.840  38.702  20.220  0.00  0.00     0.028 H 
ENDBRANCH  63  65
BRANCH  63  69
ATOM     69  C22 L04 d          29.057  41.174  19.284  0.00  0.00    -0.073 C 
ATOM     70  H24 L04 d          29.368  41.302  18.237  0.00  0.00     0.028 H 
ATOM     71  H25 L04 d          29.908  41.387  19.947  0.00  0.00     0.028 H 
ATOM     72  H26 L04 d          28.234  41.869  19.510  0.00  0.00     0.028 H 
ENDBRANCH  63  69
ENDBRANCH  60  63
ENDBRANCH  43  60
ENDBRANCH  41  43
ENDBRANCH   1  39
BRANCH   1  73
ATOM     73  C8  L04 d          33.439  37.908  22.935  0.00  0.00    -0.050 C 
ATOM     74  H9  L04 d          32.341  37.945  23.005  0.00  0.00     0.034 H 
ATOM     75  H10 L04 d          33.877  38.165  23.911  0.00  0.00     0.034 H 
BRANCH  73  76
ATOM     76  C9  L04 d          33.844  36.500  22.590  0.00  0.00    -0.040 C 
ATOM     77  H11 L04 d          34.591  36.547  21.785  0.00  0.00     0.040 H 
ATOM     78  H12 L04 d          32.952  35.967  22.230  0.00  0.00     0.040 H 
BRANCH  76  79
ATOM     79  C10 L04 d          34.429  35.718  23.725  0.00  0.00    -0.058 A 
ATOM     80  C15 L04 d          34.943  34.444  23.513  0.00  0.00    -0.076 A 
ATOM     81  C14 L04 d          35.517  33.728  24.554  0.00  0.00    -0.072 A 
ATOM     82  H16 L04 d          34.896  34.005  22.524  0.00  0.00     0.084 H 
ATOM     83  C13 L04 d          35.583  34.275  25.829  0.00  0.00    -0.026 A 
ATOM     84  H15 L04 d          35.917  32.737  24.371  0.00  0.00     0.084 H 
ATOM     85  C12 L04 d          35.064  35.549  26.039  0.00  0.00    -0.072 A 
ATOM     86  C11 L04 d          34.493  36.261  25.000  0.00  0.00    -0.076 A 
ATOM     87  H14 L04 d          35.106  35.988  27.029  0.00  0.00     0.084 H 
ATOM     88  H13 L04 d          34.092  37.252  25.184  0.00  0.00     0.084 H 
BRANCH  83  89
ATOM     89  C5  L04 d          36.190  33.530  26.944  0.00  0.00    -0.026 A 
ATOM     90  C43 L04 d          36.872  34.203  27.952  0.00  0.00    -0.069 A 
ATOM     91  C42 L04 d          37.453  33.502  29.000  0.00  0.00    -0.045 A 
ATOM     92  H45 L04 d          36.950  35.284  27.919  0.00  0.00     0.085 H 
ATOM     93  C41 L04 d          37.367  32.119  29.061  0.00  0.00     0.116 A 
ATOM     94  H44 L04 d          37.980  34.042  29.778  0.00  0.00     0.088 H 
ATOM     95  C17 L04 d          36.674  31.444  28.066  0.00  0.00    -0.045 A 
ATOM     96  F1  L04 d          37.950  31.448  30.076  0.00  0.00    -0.206 F 
ATOM     97  C6  L04 d          36.097  32.144  27.012  0.00  0.00    -0.069 A 
ATOM     98  H17 L04 d          36.583  30.364  28.110  0.00  0.00     0.088 H 
ATOM     99  H7  L04 d          35.569  31.603  26.234  0.00  0.00     0.085 H 
ENDBRANCH  83  89
ENDBRANCH  76  79
ENDBRANCH  73  76
ENDBRANCH   1  73
TORSDOF 20
ENDMDL
MODEL 5
REMARK VINA RESULT:     -10.6      3.613      9.747
REMARK  20 active torsions:
REMARK  status: ('A' for Active; 'I' for Inactive)
REMARK    1  A    between atoms: C1_1  and  C23_23 
REMARK    2  A    between atoms: C1_1  and  C2_2 
REMARK    3  A    between atoms: C2_2  and  C18_18 
REMARK    4  A    between atoms: C2_2  and  C3_3 
REMARK    5  A    between atoms: C21_21  and  C4_4 
REMARK    6  A    between atoms: C13_13  and  C5_5 
REMARK    7  A    between atoms: C18_18  and  C7_7 
REMARK    8  A    between atoms: C7_7  and  C16_16 
REMARK    9  A    between atoms: C7_7  and  C8_8 
REMARK   10  A    between atoms: C8_8  and  C9_9 
REMARK   11  A    between atoms: C9_9  and  C10_10 
REMARK       I    between atoms: C16_16  and  N18_45 
REMARK   12  A    between atoms: N18_45  and  C19_19 
REMARK   13  A    between atoms: C19_19  and  C27_27 
REMARK   14  A    between atoms: C19_19  and  C20_20 
REMARK   15  A    between atoms: C20_20  and  C21_21 
REMARK   16  A    between atoms: C21_21  and  C22_22 
REMARK   17  A    between atoms: C23_23  and  C24_24 
REMARK   18  A    between atoms: C24_24  and  C25_25 
REMARK   19  A    between atoms: C25_25  and  N1_44 
REMARK       I    between atoms: C27_27  and  N29_46 
REMARK   20  A    between atoms: N29_46  and  C30_30 
ROOT
ATOM      1  C7  L04 d          36.243  39.377  22.722  0.00  0.00     0.025 C 
ATOM      2  H8  L04 d          35.618  39.406  21.817  0.00  0.00     0.054 H 
ENDROOT
BRANCH   1   3
ATOM      3  C18 L04 d          35.888  38.123  23.520  0.00  0.00    -0.041 C 
ATOM      4  H18 L04 d          36.727  37.419  23.428  0.00  0.00     0.035 H 
ATOM      5  H19 L04 d          35.771  38.419  24.573  0.00  0.00     0.035 H 
BRANCH   3   6
ATOM      6  C2  L04 d          34.614  37.387  23.101  0.00  0.00     0.031 C 
ATOM      7  H3  L04 d          34.074  38.044  22.404  0.00  0.00     0.056 H 
BRANCH   6   8
ATOM      8  C1  L04 d          33.662  37.103  24.272  0.00  0.00    -0.052 C 
ATOM      9  H1  L04 d          33.136  38.036  24.521  0.00  0.00     0.034 H 
ATOM     10  H2  L04 d          32.933  36.346  23.947  0.00  0.00     0.034 H 
BRANCH   8  11
ATOM     11  C23 L04 d          34.350  36.594  25.527  0.00  0.00    -0.063 C 
ATOM     12  H27 L04 d          33.898  37.079  26.405  0.00  0.00     0.033 H 
ATOM     13  H28 L04 d          35.419  36.847  25.478  0.00  0.00     0.033 H 
BRANCH  11  14
ATOM     14  C24 L04 d          34.203  35.085  25.664  0.00  0.00    -0.050 C 
ATOM     15  H29 L04 d          33.433  34.736  24.959  0.00  0.00     0.035 H 
ATOM     16  H30 L04 d          33.892  34.849  26.692  0.00  0.00     0.035 H 
BRANCH  14  17
ATOM     17  C25 L04 d          35.508  34.362  25.365  0.00  0.00    -0.002 C 
ATOM     18  H31 L04 d          36.259  35.107  25.064  0.00  0.00     0.064 H 
ATOM     19  H32 L04 d          35.337  33.659  24.537  0.00  0.00     0.064 H 
BRANCH  17  20
ATOM     20  N1  L04 d          36.028  33.614  26.509  0.00  0.00    -0.344 N 
ATOM     21  C28 L04 d          35.929  32.173  26.771  0.00  0.00     0.023 A 
ATOM     22  C36 L04 d          36.728  32.026  28.065  0.00  0.00    -0.025 A 
ATOM     23  H33 L04 d          36.379  31.587  25.956  0.00  0.00     0.071 H 
ATOM     24  H34 L04 d          34.883  31.863  26.911  0.00  0.00     0.071 H 
ATOM     25  C29 L04 d          37.166  33.309  28.483  0.00  0.00     0.040 A 
ATOM     26  C38 L04 d          37.082  30.896  28.812  0.00  0.00    -0.074 A 
ATOM     27  C26 L04 d          36.681  34.279  27.493  0.00  0.00     0.254 A 
ATOM     28  C37 L04 d          37.948  33.436  29.640  0.00  0.00    -0.067 A 
ATOM     29  O1  L04 d          36.874  35.497  27.527  0.00  0.00    -0.267 OA
ATOM     30  C40 L04 d          38.288  32.302  30.362  0.00  0.00    -0.082 A 
ATOM     31  H40 L04 d          38.284  34.413  29.968  0.00  0.00     0.085 H 
ATOM     32  C39 L04 d          37.861  31.049  29.955  0.00  0.00    -0.082 A 
ATOM     33  H43 L04 d          38.896  32.397  31.254  0.00  0.00     0.083 H 
ATOM     34  H42 L04 d          38.136  30.176  30.536  0.00  0.00     0.083 H 
ATOM     35  H41 L04 d          36.753  29.911  28.502  0.00  0.00     0.084 H 
ENDBRANCH  17  20
ENDBRANCH  14  17
ENDBRANCH  11  14
ENDBRANCH   8  11
ENDBRANCH   6   8
BRANCH   6  36
ATOM     36  C3  L04 d          34.979  36.109  22.336  0.00  0.00     0.177 C 
ATOM     37  O5  L04 d          34.172  35.165  22.133  0.00  0.00    -0.648 OA
ATOM     38  O4  L04 d          36.143  36.003  21.942  0.00  0.00    -0.648 OA
ENDBRANCH   6  36
ENDBRANCH   3   6
ENDBRANCH   1   3
BRANCH   1  39
ATOM     39  C16 L04 d          37.710  39.353  22.315  0.00  0.00     0.222 C 
ATOM     40  O17 L04 d          38.295  40.390  21.989  0.00  0.00    -0.273 OA
ATOM     41  N18 L04 d          38.298  38.162  22.335  0.00  0.00    -0.347 N 
ATOM     42  H46 L04 d          37.776  37.362  22.631  0.00  0.00     0.163 HD
BRANCH  41  43
ATOM     43  C19 L04 d          39.687  38.000  21.933  0.00  0.00     0.090 C 
ATOM     44  H20 L04 d          39.835  38.428  20.931  0.00  0.00     0.087 H 
BRANCH  43  45
ATOM     45  C27 L04 d          39.983  36.505  21.906  0.00  0.00     0.245 C 
ATOM     46  O28 L04 d          39.370  35.737  22.652  0.00  0.00    -0.271 OA
ATOM     47  N29 L04 d          40.870  36.103  20.995  0.00  0.00    -0.325 N 
ATOM     48  H47 L04 d          41.249  36.821  20.410  0.00  0.00     0.169 HD
BRANCH  47  49
ATOM     49  C30 L04 d          41.333  34.825  20.751  0.00  0.00     0.034 A 
ATOM     50  C35 L04 d          41.720  33.937  21.755  0.00  0.00    -0.057 A 
ATOM     51  C34 L04 d          42.188  32.664  21.441  0.00  0.00    -0.081 A 
ATOM     52  H39 L04 d          41.656  34.242  22.793  0.00  0.00     0.086 H 
ATOM     53  C33 L04 d          42.272  32.264  20.107  0.00  0.00    -0.083 A 
ATOM     54  H38 L04 d          42.487  31.984  22.231  0.00  0.00     0.083 H 
ATOM     55  C32 L04 d          41.890  33.141  19.098  0.00  0.00    -0.081 A 
ATOM     56  H37 L04 d          42.634  31.273  19.859  0.00  0.00     0.083 H 
ATOM     57  C31 L04 d          41.423  34.411  19.423  0.00  0.00    -0.057 A 
ATOM     58  H36 L04 d          41.956  32.836  18.061  0.00  0.00     0.083 H 
ATOM     59  H35 L04 d          41.125  35.089  18.632  0.00  0.00     0.086 H 
ENDBRANCH  47  49
ENDBRANCH  43  45
BRANCH  43  60
ATOM     60  C20 L04 d          40.627  38.696  22.920  0.00  0.00    -0.035 C 
ATOM     61  H21 L04 d          40.819  37.989  23.740  0.00  0.00     0.037 H 
ATOM     62  H22 L04 d          40.094  39.576  23.310  0.00  0.00     0.037 H 
BRANCH  60  63
ATOM     63  C21 L04 d          41.988  39.180  22.412  0.00  0.00    -0.059 C 
ATOM     64  H23 L04 d          42.299  38.552  21.564  0.00  0.00     0.038 H 
BRANCH  63  65
ATOM     65  C4  L04 d          41.838  40.616  21.941  0.00  0.00    -0.073 C 
ATOM     66  H4  L04 d          41.094  41.132  22.566  0.00  0.00     0.028 H 
ATOM     67  H5  L04 d          41.505  40.625  20.892  0.00  0.00     0.028 H 
ATOM     68  H6  L04 d          42.806  41.132  22.022  0.00  0.00     0.028 H 
ENDBRANCH  63  65
BRANCH  63  69
ATOM     69  C22 L04 d          43.047  39.079  23.509  0.00  0.00    -0.073 C 
ATOM     70  H24 L04 d          42.797  39.773  24.325  0.00  0.00     0.028 H 
ATOM     71  H25 L04 d          44.031  39.339  23.094  0.00  0.00     0.028 H 
ATOM     72  H26 L04 d          43.074  38.050  23.899  0.00  0.00     0.028 H 
ENDBRANCH  63  69
ENDBRANCH  60  63
ENDBRANCH  43  60
ENDBRANCH  41  43
ENDBRANCH   1  39
BRANCH   1  73
ATOM     73  C8  L04 d          35.990  40.644  23.544  0.00  0.00    -0.050 C 
ATOM     74  H9  L04 d          36.959  41.125  23.746  0.00  0.00     0.034 H 
ATOM     75  H10 L04 d          35.521  40.351  24.495  0.00  0.00     0.034 H 
BRANCH  73  76
ATOM     76  C9  L04 d          35.097  41.647  22.865  0.00  0.00    -0.040 C 
ATOM     77  H11 L04 d          35.470  41.800  21.842  0.00  0.00     0.040 H 
ATOM     78  H12 L04 d          35.158  42.593  23.422  0.00  0.00     0.040 H 
BRANCH  76  79
ATOM     79  C10 L04 d          33.656  41.249  22.779  0.00  0.00    -0.058 A 
ATOM     80  C15 L04 d          33.090  40.902  21.558  0.00  0.00    -0.076 A 
ATOM     81  C14 L04 d          31.764  40.500  21.478  0.00  0.00    -0.072 A 
ATOM     82  H16 L04 d          33.691  40.946  20.657  0.00  0.00     0.084 H 
ATOM     83  C13 L04 d          30.979  40.441  22.622  0.00  0.00    -0.026 A 
ATOM     84  H15 L04 d          31.339  40.230  20.518  0.00  0.00     0.084 H 
ATOM     85  C12 L04 d          31.547  40.793  23.843  0.00  0.00    -0.072 A 
ATOM     86  C11 L04 d          32.868  41.192  23.921  0.00  0.00    -0.076 A 
ATOM     87  H14 L04 d          30.946  40.753  24.745  0.00  0.00     0.084 H 
ATOM     88  H13 L04 d          33.292  41.464  24.881  0.00  0.00     0.084 H 
BRANCH  83  89
ATOM     89  C5  L04 d          29.572  40.015  22.556  0.00  0.00    -0.026 A 
ATOM     90  C43 L04 d          28.912  39.951  21.334  0.00  0.00    -0.069 A 
ATOM     91  C42 L04 d          27.582  39.558  21.269  0.00  0.00    -0.045 A 
ATOM     92  H45 L04 d          29.441  40.210  20.423  0.00  0.00     0.085 H 
ATOM     93  C41 L04 d          26.886  39.223  22.421  0.00  0.00     0.116 A 
ATOM     94  H44 L04 d          27.083  39.513  20.308  0.00  0.00     0.088 H 
ATOM     95  C17 L04 d          27.544  39.270  23.642  0.00  0.00    -0.045 A 
ATOM     96  F1  L04 d          25.589  38.859  22.347  0.00  0.00    -0.206 F 
ATOM     97  C6  L04 d          28.874  39.670  23.709  0.00  0.00    -0.069 A 
ATOM     98  H17 L04 d          27.017  38.993  24.549  0.00  0.00     0.088 H 
ATOM     99  H7  L04 d          29.373  39.714  24.671  0.00  0.00     0.085 H 
ENDBRANCH  83  89
ENDBRANCH  76  79
ENDBRANCH  73  76
ENDBRANCH   1  73
TORSDOF 20
ENDMDL
MODEL 6
REMARK VINA RESULT:     -10.2      3.282      6.281
REMARK  20 active torsions:
REMARK  status: ('A' for Active; 'I' for Inactive)
REMARK    1  A    between atoms: C1_1  and  C23_23 
REMARK    2  A    between atoms: C1_1  and  C2_2 
REMARK    3  A    between atoms: C2_2  and  C18_18 
REMARK    4  A    between atoms: C2_2  and  C3_3 
REMARK    5  A    between atoms: C21_21  and  C4_4 
REMARK    6  A    between atoms: C13_13  and  C5_5 
REMARK    7  A    between atoms: C18_18  and  C7_7 
REMARK    8  A    between atoms: C7_7  and  C16_16 
REMARK    9  A    between atoms: C7_7  and  C8_8 
REMARK   10  A    between atoms: C8_8  and  C9_9 
REMARK   11  A    between atoms: C9_9  and  C10_10 
REMARK       I    between atoms: C16_16  and  N18_45 
REMARK   12  A    between atoms: N18_45  and  C19_19 
REMARK   13  A    between atoms: C19_19  and  C27_27 
REMARK   14  A    between atoms: C19_19  and  C20_20 
REMARK   15  A    between atoms: C20_20  and  C21_21 
REMARK   16  A    between atoms: C21_21  and  C22_22 
REMARK   17  A    between atoms: C23_23  and  C24_24 
REMARK   18  A    between atoms: C24_24  and  C25_25 
REMARK   19  A    between atoms: C25_25  and  N1_44 
REMARK       I    between atoms: C27_27  and  N29_46 
REMARK   20  A    between atoms: N29_46  and  C30_30 
ROOT
ATOM      1  C7  L04 d          33.104  37.486  24.454  0.00  0.00     0.025 C 
ATOM      2  H8  L04 d          33.739  38.005  25.187  0.00  0.00     0.054 H 
ENDROOT
BRANCH   1   3
ATOM      3  C18 L04 d          33.686  36.095  24.203  0.00  0.00    -0.041 C 
ATOM      4  H18 L04 d          32.922  35.357  24.486  0.00  0.00     0.035 H 
ATOM      5  H19 L04 d          33.897  36.010  23.127  0.00  0.00     0.035 H 
BRANCH   3   6
ATOM      6  C2  L04 d          34.970  35.748  24.958  0.00  0.00     0.031 C 
ATOM      7  H3  L04 d          34.930  36.270  25.925  0.00  0.00     0.056 H 
BRANCH   6   8
ATOM      8  C1  L04 d          36.243  36.230  24.246  0.00  0.00    -0.052 C 
ATOM      9  H1  L04 d          36.392  37.292  24.490  0.00  0.00     0.034 H 
ATOM     10  H2  L04 d          37.093  35.644  24.625  0.00  0.00     0.034 H 
BRANCH   8  11
ATOM     11  C23 L04 d          36.205  36.090  22.734  0.00  0.00    -0.063 C 
ATOM     12  H27 L04 d          35.485  36.813  22.324  0.00  0.00     0.033 H 
ATOM     13  H28 L04 d          35.886  35.069  22.476  0.00  0.00     0.033 H 
BRANCH  11  14
ATOM     14  C24 L04 d          37.574  36.351  22.121  0.00  0.00    -0.050 C 
ATOM     15  H29 L04 d          37.665  37.424  21.895  0.00  0.00     0.035 H 
ATOM     16  H30 L04 d          37.664  35.771  21.190  0.00  0.00     0.035 H 
BRANCH  14  17
ATOM     17  C25 L04 d          38.700  35.948  23.062  0.00  0.00    -0.002 C 
ATOM     18  H31 L04 d          38.557  34.896  23.348  0.00  0.00     0.064 H 
ATOM     19  H32 L04 d          38.648  36.582  23.960  0.00  0.00     0.064 H 
BRANCH  17  20
ATOM     20  N1  L04 d          40.028  36.092  22.468  0.00  0.00    -0.344 N 
ATOM     21  C28 L04 d          40.534  35.500  21.224  0.00  0.00     0.023 A 
ATOM     22  C36 L04 d          41.939  36.093  21.135  0.00  0.00    -0.025 A 
ATOM     23  H33 L04 d          39.920  35.799  20.361  0.00  0.00     0.071 H 
ATOM     24  H34 L04 d          40.567  34.403  21.288  0.00  0.00     0.071 H 
ATOM     25  C29 L04 d          42.175  36.892  22.282  0.00  0.00     0.040 A 
ATOM     26  C38 L04 d          42.928  35.988  20.148  0.00  0.00    -0.074 A 
ATOM     27  C26 L04 d          40.960  36.842  23.105  0.00  0.00     0.254 A 
ATOM     28  C37 L04 d          43.394  37.571  22.420  0.00  0.00    -0.067 A 
ATOM     29  O1  L04 d          40.797  37.423  24.181  0.00  0.00    -0.267 OA
ATOM     30  C40 L04 d          44.357  37.453  21.429  0.00  0.00    -0.082 A 
ATOM     31  H40 L04 d          43.583  38.182  23.295  0.00  0.00     0.085 H 
ATOM     32  C39 L04 d          44.129  36.672  20.309  0.00  0.00    -0.082 A 
ATOM     33  H43 L04 d          45.299  37.980  21.532  0.00  0.00     0.083 H 
ATOM     34  H42 L04 d          44.896  36.593  19.547  0.00  0.00     0.083 H 
ATOM     35  H41 L04 d          42.759  35.379  19.268  0.00  0.00     0.084 H 
ENDBRANCH  17  20
ENDBRANCH  14  17
ENDBRANCH  11  14
ENDBRANCH   8  11
ENDBRANCH   6   8
BRANCH   6  36
ATOM     36  C3  L04 d          35.013  34.244  25.250  0.00  0.00     0.177 C 
ATOM     37  O5  L04 d          35.275  33.761  26.382  0.00  0.00    -0.648 OA
ATOM     38  O4  L04 d          34.816  33.480  24.301  0.00  0.00    -0.648 OA
ENDBRANCH   6  36
ENDBRANCH   3   6
ENDBRANCH   1   3
BRANCH   1  39
ATOM     39  C16 L04 d          31.689  37.382  25.004  0.00  0.00     0.222 C 
ATOM     40  O17 L04 d          31.213  36.291  25.328  0.00  0.00    -0.273 OA
ATOM     41  N18 L04 d          31.020  38.526  25.104  0.00  0.00    -0.347 N 
ATOM     42  H46 L04 d          31.470  39.381  24.846  0.00  0.00     0.163 HD
BRANCH  41  43
ATOM     43  C19 L04 d          29.646  38.557  25.582  0.00  0.00     0.090 C 
ATOM     44  H20 L04 d          29.512  37.801  26.371  0.00  0.00     0.087 H 
BRANCH  43  45
ATOM     45  C27 L04 d          28.743  38.234  24.397  0.00  0.00     0.245 C 
ATOM     46  O28 L04 d          28.300  37.092  24.247  0.00  0.00    -0.271 OA
ATOM     47  N29 L04 d          28.425  39.262  23.610  0.00  0.00    -0.325 N 
ATOM     48  H47 L04 d          28.803  40.148  23.878  0.00  0.00     0.169 HD
BRANCH  47  49
ATOM     49  C30 L04 d          27.642  39.263  22.472  0.00  0.00     0.034 A 
ATOM     50  C35 L04 d          26.322  38.814  22.440  0.00  0.00    -0.057 A 
ATOM     51  C34 L04 d          25.589  38.833  21.256  0.00  0.00    -0.081 A 
ATOM     52  H39 L04 d          25.860  38.445  23.348  0.00  0.00     0.086 H 
ATOM     53  C33 L04 d          26.177  39.308  20.083  0.00  0.00    -0.083 A 
ATOM     54  H38 L04 d          24.565  38.480  21.245  0.00  0.00     0.083 H 
ATOM     55  C32 L04 d          27.492  39.758  20.103  0.00  0.00    -0.081 A 
ATOM     56  H37 L04 d          25.610  39.327  19.160  0.00  0.00     0.083 H 
ATOM     57  C31 L04 d          28.215  39.735  21.292  0.00  0.00    -0.057 A 
ATOM     58  H36 L04 d          27.954  40.125  19.194  0.00  0.00     0.083 H 
ATOM     59  H35 L04 d          29.240  40.089  21.301  0.00  0.00     0.086 H 
ENDBRANCH  47  49
ENDBRANCH  43  45
BRANCH  43  60
ATOM     60  C20 L04 d          29.292  39.936  26.142  0.00  0.00    -0.035 C 
ATOM     61  H21 L04 d          28.876  40.526  25.313  0.00  0.00     0.037 H 
ATOM     62  H22 L04 d          30.229  40.396  26.488  0.00  0.00     0.037 H 
BRANCH  60  63
ATOM     63  C21 L04 d          28.293  40.017  27.300  0.00  0.00    -0.059 C 
ATOM     64  H23 L04 d          28.617  39.338  28.103  0.00  0.00     0.038 H 
BRANCH  63  65
ATOM     65  C4  L04 d          28.286  41.442  27.824  0.00  0.00    -0.073 C 
ATOM     66  H4  L04 d          27.401  41.595  28.460  0.00  0.00     0.028 H 
ATOM     67  H5  L04 d          28.255  42.144  26.978  0.00  0.00     0.028 H 
ATOM     68  H6  L04 d          29.197  41.620  28.416  0.00  0.00     0.028 H 
ENDBRANCH  63  65
BRANCH  63  69
ATOM     69  C22 L04 d          26.895  39.601  26.844  0.00  0.00    -0.073 C 
ATOM     70  H24 L04 d          26.802  39.757  25.759  0.00  0.00     0.028 H 
ATOM     71  H25 L04 d          26.142  40.209  27.367  0.00  0.00     0.028 H 
ATOM     72  H26 L04 d          26.734  38.538  27.077  0.00  0.00     0.028 H 
ENDBRANCH  63  69
ENDBRANCH  60  63
ENDBRANCH  43  60
ENDBRANCH  41  43
ENDBRANCH   1  39
BRANCH   1  73
ATOM     73  C8  L04 d          33.062  38.307  23.162  0.00  0.00    -0.050 C 
ATOM     74  H9  L04 d          32.010  38.418  22.856  0.00  0.00     0.034 H 
ATOM     75  H10 L04 d          33.613  37.757  22.385  0.00  0.00     0.034 H 
BRANCH  73  76
ATOM     76  C9  L04 d          33.665  39.680  23.288  0.00  0.00    -0.040 C 
ATOM     77  H11 L04 d          33.643  39.966  24.349  0.00  0.00     0.040 H 
ATOM     78  H12 L04 d          33.046  40.380  22.708  0.00  0.00     0.040 H 
BRANCH  76  79
ATOM     79  C10 L04 d          35.077  39.794  22.803  0.00  0.00    -0.058 A 
ATOM     80  C15 L04 d          36.082  40.242  23.653  0.00  0.00    -0.076 A 
ATOM     81  C14 L04 d          37.397  40.317  23.220  0.00  0.00    -0.072 A 
ATOM     82  H16 L04 d          35.835  40.535  24.666  0.00  0.00     0.084 H 
ATOM     83  C13 L04 d          37.731  39.947  21.922  0.00  0.00    -0.026 A 
ATOM     84  H15 L04 d          38.169  40.665  23.896  0.00  0.00     0.084 H 
ATOM     85  C12 L04 d          36.722  39.504  21.073  0.00  0.00    -0.072 A 
ATOM     86  C11 L04 d          35.412  39.428  21.507  0.00  0.00    -0.076 A 
ATOM     87  H14 L04 d          36.967  39.213  20.057  0.00  0.00     0.084 H 
ATOM     88  H13 L04 d          34.640  39.081  20.829  0.00  0.00     0.084 H 
BRANCH  83  89
ATOM     89  C5  L04 d          39.122  40.019  21.447  0.00  0.00    -0.026 A 
ATOM     90  C43 L04 d          39.512  39.331  20.303  0.00  0.00    -0.069 A 
ATOM     91  C42 L04 d          40.825  39.390  19.857  0.00  0.00    -0.045 A 
ATOM     92  H45 L04 d          38.784  38.743  19.755  0.00  0.00     0.085 H 
ATOM     93  C41 L04 d          41.773  40.135  20.544  0.00  0.00     0.116 A 
ATOM     94  H44 L04 d          41.112  38.848  18.964  0.00  0.00     0.088 H 
ATOM     95  C17 L04 d          41.386  40.837  21.676  0.00  0.00    -0.045 A 
ATOM     96  F1  L04 d          43.050  40.171  20.110  0.00  0.00    -0.206 F 
ATOM     97  C6  L04 d          40.072  40.773  22.128  0.00  0.00    -0.069 A 
ATOM     98  H17 L04 d          42.112  41.438  22.212  0.00  0.00     0.088 H 
ATOM     99  H7  L04 d          39.785  41.316  23.021  0.00  0.00     0.085 H 
ENDBRANCH  83  89
ENDBRANCH  76  79
ENDBRANCH  73  76
ENDBRANCH   1  73
TORSDOF 20
ENDMDL
MODEL 7
REMARK VINA RESULT:     -10.2      3.921     10.129
REMARK  20 active torsions:
REMARK  status: ('A' for Active; 'I' for Inactive)
REMARK    1  A    between atoms: C1_1  and  C23_23 
REMARK    2  A    between atoms: C1_1  and  C2_2 
REMARK    3  A    between atoms: C2_2  and  C18_18 
REMARK    4  A    between atoms: C2_2  and  C3_3 
REMARK    5  A    between atoms: C21_21  and  C4_4 
REMARK    6  A    between atoms: C13_13  and  C5_5 
REMARK    7  A    between atoms: C18_18  and  C7_7 
REMARK    8  A    between atoms: C7_7  and  C16_16 
REMARK    9  A    between atoms: C7_7  and  C8_8 
REMARK   10  A    between atoms: C8_8  and  C9_9 
REMARK   11  A    between atoms: C9_9  and  C10_10 
REMARK       I    between atoms: C16_16  and  N18_45 
REMARK   12  A    between atoms: N18_45  and  C19_19 
REMARK   13  A    between atoms: C19_19  and  C27_27 
REMARK   14  A    between atoms: C19_19  and  C20_20 
REMARK   15  A    between atoms: C20_20  and  C21_21 
REMARK   16  A    between atoms: C21_21  and  C22_22 
REMARK   17  A    between atoms: C23_23  and  C24_24 
REMARK   18  A    between atoms: C24_24  and  C25_25 
REMARK   19  A    between atoms: C25_25  and  N1_44 
REMARK       I    between atoms: C27_27  and  N29_46 
REMARK   20  A    between atoms: N29_46  and  C30_30 
ROOT
ATOM      1  C7  L04 d          37.987  39.900  22.372  0.00  0.00     0.025 C 
ATOM      2  H8  L04 d          37.471  39.780  21.408  0.00  0.00     0.054 H 
ENDROOT
BRANCH   1   3
ATOM      3  C18 L04 d          37.699  38.673  23.236  0.00  0.00    -0.041 C 
ATOM      4  H18 L04 d          38.484  38.612  24.003  0.00  0.00     0.035 H 
ATOM      5  H19 L04 d          36.724  38.827  23.721  0.00  0.00     0.035 H 
BRANCH   3   6
ATOM      6  C2  L04 d          37.650  37.326  22.511  0.00  0.00     0.031 C 
ATOM      7  H3  L04 d          38.241  37.432  21.590  0.00  0.00     0.056 H 
BRANCH   6   8
ATOM      8  C1  L04 d          36.233  36.916  22.085  0.00  0.00    -0.052 C 
ATOM      9  H1  L04 d          36.179  36.955  20.987  0.00  0.00     0.034 H 
ATOM     10  H2  L04 d          36.055  35.885  22.424  0.00  0.00     0.034 H 
BRANCH   8  11
ATOM     11  C23 L04 d          35.131  37.799  22.647  0.00  0.00    -0.063 C 
ATOM     12  H27 L04 d          35.193  38.792  22.178  0.00  0.00     0.033 H 
ATOM     13  H28 L04 d          35.269  37.896  23.733  0.00  0.00     0.033 H 
BRANCH  11  14
ATOM     14  C24 L04 d          33.756  37.205  22.373  0.00  0.00    -0.050 C 
ATOM     15  H29 L04 d          33.864  36.361  21.676  0.00  0.00     0.035 H 
ATOM     16  H30 L04 d          33.119  37.978  21.917  0.00  0.00     0.035 H 
BRANCH  14  17
ATOM     17  C25 L04 d          33.091  36.710  23.649  0.00  0.00    -0.002 C 
ATOM     18  H31 L04 d          32.231  36.082  23.374  0.00  0.00     0.064 H 
ATOM     19  H32 L04 d          32.742  37.580  24.223  0.00  0.00     0.064 H 
BRANCH  17  20
ATOM     20  N1  L04 d          33.986  35.924  24.497  0.00  0.00    -0.344 N 
ATOM     21  C28 L04 d          34.692  36.350  25.711  0.00  0.00     0.023 A 
ATOM     22  C36 L04 d          35.383  35.060  26.151  0.00  0.00    -0.025 A 
ATOM     23  H33 L04 d          33.989  36.707  26.478  0.00  0.00     0.071 H 
ATOM     24  H34 L04 d          35.426  37.139  25.490  0.00  0.00     0.071 H 
ATOM     25  C29 L04 d          35.106  34.043  25.202  0.00  0.00     0.040 A 
ATOM     26  C38 L04 d          36.158  34.763  27.279  0.00  0.00    -0.074 A 
ATOM     27  C26 L04 d          34.248  34.635  24.167  0.00  0.00     0.254 A 
ATOM     28  C37 L04 d          35.610  32.750  25.399  0.00  0.00    -0.067 A 
ATOM     29  O1  L04 d          33.803  34.045  23.180  0.00  0.00    -0.267 OA
ATOM     30  C40 L04 d          36.373  32.479  26.525  0.00  0.00    -0.082 A 
ATOM     31  H40 L04 d          35.404  31.968  24.678  0.00  0.00     0.085 H 
ATOM     32  C39 L04 d          36.645  33.471  27.452  0.00  0.00    -0.082 A 
ATOM     33  H43 L04 d          36.760  31.479  26.682  0.00  0.00     0.083 H 
ATOM     34  H42 L04 d          37.246  33.238  28.324  0.00  0.00     0.083 H 
ATOM     35  H41 L04 d          36.377  35.532  28.010  0.00  0.00     0.084 H 
ENDBRANCH  17  20
ENDBRANCH  14  17
ENDBRANCH  11  14
ENDBRANCH   8  11
ENDBRANCH   6   8
BRANCH   6  36
ATOM     36  C3  L04 d          38.325  36.249  23.368  0.00  0.00     0.177 C 
ATOM     37  O5  L04 d          39.512  36.327  23.778  0.00  0.00    -0.648 OA
ATOM     38  O4  L04 d          37.664  35.239  23.625  0.00  0.00    -0.648 OA
ENDBRANCH   6  36
ENDBRANCH   3   6
ENDBRANCH   1   3
BRANCH   1  39
ATOM     39  C16 L04 d          39.483  40.039  22.124  0.00  0.00     0.222 C 
ATOM     40  O17 L04 d          39.953  41.076  21.648  0.00  0.00    -0.273 OA
ATOM     41  N18 L04 d          40.225  38.985  22.448  0.00  0.00    -0.347 N 
ATOM     42  H46 L04 d          39.786  38.182  22.852  0.00  0.00     0.163 HD
BRANCH  41  43
ATOM     43  C19 L04 d          41.663  38.979  22.227  0.00  0.00     0.090 C 
ATOM     44  H20 L04 d          41.936  39.800  21.547  0.00  0.00     0.087 H 
BRANCH  43  45
ATOM     45  C27 L04 d          42.021  37.640  21.592  0.00  0.00     0.245 C 
ATOM     46  O28 L04 d          42.234  37.565  20.379  0.00  0.00    -0.271 OA
ATOM     47  N29 L04 d          42.154  36.614  22.432  0.00  0.00    -0.325 N 
ATOM     48  H47 L04 d          42.013  36.824  23.400  0.00  0.00     0.169 HD
BRANCH  47  49
ATOM     49  C30 L04 d          42.459  35.298  22.142  0.00  0.00     0.034 A 
ATOM     50  C35 L04 d          43.721  34.736  22.333  0.00  0.00    -0.057 A 
ATOM     51  C34 L04 d          43.965  33.403  22.010  0.00  0.00    -0.081 A 
ATOM     52  H39 L04 d          44.521  35.343  22.739  0.00  0.00     0.086 H 
ATOM     53  C33 L04 d          42.939  32.615  21.489  0.00  0.00    -0.083 A 
ATOM     54  H38 L04 d          44.951  32.980  22.163  0.00  0.00     0.083 H 
ATOM     55  C32 L04 d          41.677  33.166  21.293  0.00  0.00    -0.081 A 
ATOM     56  H37 L04 d          43.125  31.577  21.238  0.00  0.00     0.083 H 
ATOM     57  C31 L04 d          41.444  34.498  21.620  0.00  0.00    -0.057 A 
ATOM     58  H36 L04 d          40.878  32.559  20.886  0.00  0.00     0.083 H 
ATOM     59  H35 L04 d          40.457  34.921  21.467  0.00  0.00     0.086 H 
ENDBRANCH  47  49
ENDBRANCH  43  45
BRANCH  43  60
ATOM     60  C20 L04 d          42.421  39.146  23.545  0.00  0.00    -0.035 C 
ATOM     61  H21 L04 d          42.736  38.143  23.868  0.00  0.00     0.037 H 
ATOM     62  H22 L04 d          41.712  39.563  24.277  0.00  0.00     0.037 H 
BRANCH  60  63
ATOM     63  C21 L04 d          43.665  40.039  23.562  0.00  0.00    -0.059 C 
ATOM     64  H23 L04 d          43.632  40.685  24.451  0.00  0.00     0.038 H 
BRANCH  63  65
ATOM     65  C4  L04 d          44.891  39.146  23.640  0.00  0.00    -0.073 C 
ATOM     66  H4  L04 d          44.620  38.192  24.117  0.00  0.00     0.028 H 
ATOM     67  H5  L04 d          45.671  39.644  24.234  0.00  0.00     0.028 H 
ATOM     68  H6  L04 d          45.270  38.953  22.625  0.00  0.00     0.028 H 
ENDBRANCH  63  65
BRANCH  63  69
ATOM     69  C22 L04 d          43.718  40.922  22.316  0.00  0.00    -0.073 C 
ATOM     70  H24 L04 d          42.972  41.726  22.404  0.00  0.00     0.028 H 
ATOM     71  H25 L04 d          43.500  40.315  21.426  0.00  0.00     0.028 H 
ATOM     72  H26 L04 d          44.722  41.363  22.222  0.00  0.00     0.028 H 
ENDBRANCH  63  69
ENDBRANCH  60  63
ENDBRANCH  43  60
ENDBRANCH  41  43
ENDBRANCH   1  39
BRANCH   1  73
ATOM     73  C8  L04 d          37.489  41.180  23.049  0.00  0.00    -0.050 C 
ATOM     74  H9  L04 d          38.351  41.843  23.214  0.00  0.00     0.034 H 
ATOM     75  H10 L04 d          37.044  40.908  24.018  0.00  0.00     0.034 H 
BRANCH  73  76
ATOM     76  C9  L04 d          36.459  41.934  22.251  0.00  0.00    -0.040 C 
ATOM     77  H11 L04 d          36.719  41.844  21.186  0.00  0.00     0.040 H 
ATOM     78  H12 L04 d          36.501  42.991  22.550  0.00  0.00     0.040 H 
BRANCH  76  79
ATOM     79  C10 L04 d          35.051  41.455  22.429  0.00  0.00    -0.058 A 
ATOM     80  C15 L04 d          34.522  41.275  23.701  0.00  0.00    -0.076 A 
ATOM     81  C14 L04 d          33.208  40.865  23.872  0.00  0.00    -0.072 A 
ATOM     82  H16 L04 d          35.142  41.458  24.570  0.00  0.00     0.084 H 
ATOM     83  C13 L04 d          32.399  40.623  22.769  0.00  0.00    -0.026 A 
ATOM     84  H15 L04 d          32.809  40.732  24.872  0.00  0.00     0.084 H 
ATOM     85  C12 L04 d          32.933  40.800  21.496  0.00  0.00    -0.072 A 
ATOM     86  C11 L04 d          34.243  41.210  21.328  0.00  0.00    -0.076 A 
ATOM     87  H14 L04 d          32.315  40.613  20.625  0.00  0.00     0.084 H 
ATOM     88  H13 L04 d          34.641  41.341  20.328  0.00  0.00     0.084 H 
BRANCH  83  89
ATOM     89  C5  L04 d          31.003  40.188  22.932  0.00  0.00    -0.026 A 
ATOM     90  C43 L04 d          30.602  39.521  24.084  0.00  0.00    -0.069 A 
ATOM     91  C42 L04 d          29.288  39.102  24.237  0.00  0.00    -0.045 A 
ATOM     92  H45 L04 d          31.323  39.326  24.870  0.00  0.00     0.085 H 
ATOM     93  C41 L04 d          28.349  39.340  23.243  0.00  0.00     0.116 A 
ATOM     94  H44 L04 d          28.992  38.584  25.141  0.00  0.00     0.088 H 
ATOM     95  C17 L04 d          28.739  40.020  22.098  0.00  0.00    -0.045 A 
ATOM     96  F1  L04 d          27.078  38.914  23.396  0.00  0.00    -0.206 F 
ATOM     97  C6  L04 d          30.057  40.434  21.941  0.00  0.00    -0.069 A 
ATOM     98  H17 L04 d          28.011  40.230  21.322  0.00  0.00     0.088 H 
ATOM     99  H7  L04 d          30.352  40.954  21.036  0.00  0.00     0.085 H 
ENDBRANCH  83  89
ENDBRANCH  76  79
ENDBRANCH  73  76
ENDBRANCH   1  73
TORSDOF 20
ENDMDL
MODEL 8
REMARK VINA RESULT:      -9.9      4.041      9.174
REMARK  20 active torsions:
REMARK  status: ('A' for Active; 'I' for Inactive)
REMARK    1  A    between atoms: C1_1  and  C23_23 
REMARK    2  A    between atoms: C1_1  and  C2_2 
REMARK    3  A    between atoms: C2_2  and  C18_18 
REMARK    4  A    between atoms: C2_2  and  C3_3 
REMARK    5  A    between atoms: C21_21  and  C4_4 
REMARK    6  A    between atoms: C13_13  and  C5_5 
REMARK    7  A    between atoms: C18_18  and  C7_7 
REMARK    8  A    between atoms: C7_7  and  C16_16 
REMARK    9  A    between atoms: C7_7  and  C8_8 
REMARK   10  A    between atoms: C8_8  and  C9_9 
REMARK   11  A    between atoms: C9_9  and  C10_10 
REMARK       I    between atoms: C16_16  and  N18_45 
REMARK   12  A    between atoms: N18_45  and  C19_19 
REMARK   13  A    between atoms: C19_19  and  C27_27 
REMARK   14  A    between atoms: C19_19  and  C20_20 
REMARK   15  A    between atoms: C20_20  and  C21_21 
REMARK   16  A    between atoms: C21_21  and  C22_22 
REMARK   17  A    between atoms: C23_23  and  C24_24 
REMARK   18  A    between atoms: C24_24  and  C25_25 
REMARK   19  A    between atoms: C25_25  and  N1_44 
REMARK       I    between atoms: C27_27  and  N29_46 
REMARK   20  A    between atoms: N29_46  and  C30_30 
ROOT
ATOM      1  C7  L04 d          36.801  38.339  22.556  0.00  0.00     0.025 C 
ATOM      2  H8  L04 d          37.010  38.874  23.495  0.00  0.00     0.054 H 
ENDROOT
BRANCH   1   3
ATOM      3  C18 L04 d          38.105  37.734  22.039  0.00  0.00    -0.041 C 
ATOM      4  H18 L04 d          37.988  36.640  22.036  0.00  0.00     0.035 H 
ATOM      5  H19 L04 d          38.254  38.089  21.009  0.00  0.00     0.035 H 
BRANCH   3   6
ATOM      6  C2  L04 d          39.371  38.064  22.832  0.00  0.00     0.031 C 
ATOM      7  H3  L04 d          39.051  38.529  23.776  0.00  0.00     0.056 H 
BRANCH   6   8
ATOM      8  C1  L04 d          40.283  39.078  22.126  0.00  0.00    -0.052 C 
ATOM      9  H1  L04 d          40.053  40.079  22.518  0.00  0.00     0.034 H 
ATOM     10  H2  L04 d          41.328  38.823  22.359  0.00  0.00     0.034 H 
BRANCH   8  11
ATOM     11  C23 L04 d          40.128  39.113  20.615  0.00  0.00    -0.063 C 
ATOM     12  H27 L04 d          39.346  39.839  20.351  0.00  0.00     0.033 H 
ATOM     13  H28 L04 d          39.835  38.113  20.262  0.00  0.00     0.033 H 
BRANCH  11  14
ATOM     14  C24 L04 d          41.430  39.516  19.935  0.00  0.00    -0.050 C 
ATOM     15  H29 L04 d          42.127  39.895  20.698  0.00  0.00     0.035 H 
ATOM     16  H30 L04 d          41.218  40.310  19.205  0.00  0.00     0.035 H 
BRANCH  14  17
ATOM     17  C25 L04 d          42.077  38.343  19.215  0.00  0.00    -0.002 C 
ATOM     18  H31 L04 d          42.886  38.728  18.576  0.00  0.00     0.064 H 
ATOM     19  H32 L04 d          41.317  37.854  18.588  0.00  0.00     0.064 H 
BRANCH  17  20
ATOM     20  N1  L04 d          42.639  37.346  20.125  0.00  0.00    -0.344 N 
ATOM     21  C28 L04 d          43.687  37.530  21.137  0.00  0.00     0.023 A 
ATOM     22  C36 L04 d          43.754  36.148  21.784  0.00  0.00    -0.025 A 
ATOM     23  H33 L04 d          43.403  38.300  21.870  0.00  0.00     0.071 H 
ATOM     24  H34 L04 d          44.647  37.800  20.674  0.00  0.00     0.071 H 
ATOM     25  C29 L04 d          42.847  35.283  21.119  0.00  0.00     0.040 A 
ATOM     26  C38 L04 d          44.500  35.668  22.868  0.00  0.00    -0.074 A 
ATOM     27  C26 L04 d          42.188  36.069  20.068  0.00  0.00     0.254 A 
ATOM     28  C37 L04 d          42.705  33.957  21.551  0.00  0.00    -0.067 A 
ATOM     29  O1  L04 d          41.332  35.647  19.287  0.00  0.00    -0.267 OA
ATOM     30  C40 L04 d          43.452  33.506  22.628  0.00  0.00    -0.082 A 
ATOM     31  H40 L04 d          42.015  33.289  21.047  0.00  0.00     0.085 H 
ATOM     32  C39 L04 d          44.339  34.347  23.277  0.00  0.00    -0.082 A 
ATOM     33  H43 L04 d          43.341  32.481  22.965  0.00  0.00     0.083 H 
ATOM     34  H42 L04 d          44.915  33.973  24.116  0.00  0.00     0.083 H 
ATOM     35  H41 L04 d          45.197  36.319  23.383  0.00  0.00     0.084 H 
ENDBRANCH  17  20
ENDBRANCH  14  17
ENDBRANCH  11  14
ENDBRANCH   8  11
ENDBRANCH   6   8
BRANCH   6  36
ATOM     36  C3  L04 d          40.117  36.772  23.185  0.00  0.00     0.177 C 
ATOM     37  O5  L04 d          41.125  36.734  23.937  0.00  0.00    -0.648 OA
ATOM     38  O4  L04 d          39.715  35.729  22.662  0.00  0.00    -0.648 OA
ENDBRANCH   6  36
ENDBRANCH   3   6
ENDBRANCH   1   3
BRANCH   1  39
ATOM     39  C16 L04 d          35.774  37.248  22.822  0.00  0.00     0.222 C 
ATOM     40  O17 L04 d          35.257  36.622  21.893  0.00  0.00    -0.273 OA
ATOM     41  N18 L04 d          35.481  37.026  24.100  0.00  0.00    -0.347 N 
ATOM     42  H46 L04 d          35.952  37.551  24.809  0.00  0.00     0.163 HD
BRANCH  41  43
ATOM     43  C19 L04 d          34.488  36.033  24.484  0.00  0.00     0.090 C 
ATOM     44  H20 L04 d          34.384  35.285  23.684  0.00  0.00     0.087 H 
BRANCH  43  45
ATOM     45  C27 L04 d          33.166  36.765  24.685  0.00  0.00     0.245 C 
ATOM     46  O28 L04 d          33.000  37.489  25.670  0.00  0.00    -0.271 OA
ATOM     47  N29 L04 d          32.268  36.622  23.709  0.00  0.00    -0.325 N 
ATOM     48  H47 L04 d          32.552  36.056  22.936  0.00  0.00     0.169 HD
BRANCH  47  49
ATOM     49  C30 L04 d          30.996  37.155  23.628  0.00  0.00     0.034 A 
ATOM     50  C35 L04 d          30.617  38.114  22.689  0.00  0.00    -0.057 A 
ATOM     51  C34 L04 d          29.319  38.618  22.667  0.00  0.00    -0.081 A 
ATOM     52  H39 L04 d          31.342  38.473  21.968  0.00  0.00     0.086 H 
ATOM     53  C33 L04 d          28.380  38.160  23.591  0.00  0.00    -0.083 A 
ATOM     54  H38 L04 d          29.038  39.365  21.933  0.00  0.00     0.083 H 
ATOM     55  C32 L04 d          28.747  37.205  24.532  0.00  0.00    -0.081 A 
ATOM     56  H37 L04 d          27.368  38.549  23.576  0.00  0.00     0.083 H 
ATOM     57  C31 L04 d          30.047  36.707  24.545  0.00  0.00    -0.057 A 
ATOM     58  H36 L04 d          28.022  36.848  25.254  0.00  0.00     0.083 H 
ATOM     59  H35 L04 d          30.326  35.961  25.280  0.00  0.00     0.086 H 
ENDBRANCH  47  49
ENDBRANCH  43  45
BRANCH  43  60
ATOM     60  C20 L04 d          34.893  35.329  25.780  0.00  0.00    -0.035 C 
ATOM     61  H21 L04 d          34.020  34.753  26.124  0.00  0.00     0.037 H 
ATOM     62  H22 L04 d          35.129  36.112  26.516  0.00  0.00     0.037 H 
BRANCH  60  63
ATOM     63  C21 L04 d          36.083  34.367  25.745  0.00  0.00    -0.059 C 
ATOM     64  H23 L04 d          36.934  34.864  25.257  0.00  0.00     0.038 H 
BRANCH  63  65
ATOM     65  C4  L04 d          36.461  34.023  27.175  0.00  0.00    -0.073 C 
ATOM     66  H4  L04 d          35.693  33.367  27.611  0.00  0.00     0.028 H 
ATOM     67  H5  L04 d          36.533  34.947  27.768  0.00  0.00     0.028 H 
ATOM     68  H6  L04 d          37.432  33.506  27.184  0.00  0.00     0.028 H 
ENDBRANCH  63  65
BRANCH  63  69
ATOM     69  C22 L04 d          35.739  33.102  24.958  0.00  0.00    -0.073 C 
ATOM     70  H24 L04 d          35.694  33.339  23.885  0.00  0.00     0.028 H 
ATOM     71  H25 L04 d          34.764  32.718  25.290  0.00  0.00     0.028 H 
ATOM     72  H26 L04 d          36.513  32.340  25.133  0.00  0.00     0.028 H 
ENDBRANCH  63  69
ENDBRANCH  60  63
ENDBRANCH  43  60
ENDBRANCH  41  43
ENDBRANCH   1  39
BRANCH   1  73
ATOM     73  C8  L04 d          36.210  39.323  21.542  0.00  0.00    -0.050 C 
ATOM     74  H9  L04 d          35.267  38.901  21.160  0.00  0.00     0.034 H 
ATOM     75  H10 L04 d          36.924  39.436  20.713  0.00  0.00     0.034 H 
BRANCH  73  76
ATOM     76  C9  L04 d          35.922  40.687  22.109  0.00  0.00    -0.040 C 
ATOM     77  H11 L04 d          35.893  41.404  21.275  0.00  0.00     0.040 H 
ATOM     78  H12 L04 d          36.741  40.954  22.792  0.00  0.00     0.040 H 
BRANCH  76  79
ATOM     79  C10 L04 d          34.633  40.796  22.862  0.00  0.00    -0.058 A 
ATOM     80  C15 L04 d          34.619  40.738  24.251  0.00  0.00    -0.076 A 
ATOM     81  C14 L04 d          33.432  40.873  24.956  0.00  0.00    -0.072 A 
ATOM     82  H16 L04 d          35.547  40.586  24.790  0.00  0.00     0.084 H 
ATOM     83  C13 L04 d          32.233  41.066  24.281  0.00  0.00    -0.026 A 
ATOM     84  H15 L04 d          33.439  40.828  26.039  0.00  0.00     0.084 H 
ATOM     85  C12 L04 d          32.249  41.120  22.890  0.00  0.00    -0.072 A 
ATOM     86  C11 L04 d          33.433  40.986  22.190  0.00  0.00    -0.076 A 
ATOM     87  H14 L04 d          31.321  41.268  22.349  0.00  0.00     0.084 H 
ATOM     88  H13 L04 d          33.425  41.030  21.106  0.00  0.00     0.084 H 
BRANCH  83  89
ATOM     89  C5  L04 d          30.965  41.212  25.013  0.00  0.00    -0.026 A 
ATOM     90  C43 L04 d          30.224  42.385  24.912  0.00  0.00    -0.069 A 
ATOM     91  C42 L04 d          29.032  42.529  25.608  0.00  0.00    -0.045 A 
ATOM     92  H45 L04 d          30.581  43.193  24.283  0.00  0.00     0.085 H 
ATOM     93  C41 L04 d          28.557  41.508  26.418  0.00  0.00     0.116 A 
ATOM     94  H44 L04 d          28.467  43.449  25.517  0.00  0.00     0.088 H 
ATOM     95  C17 L04 d          29.284  40.329  26.511  0.00  0.00    -0.045 A 
ATOM     96  F1  L04 d          27.406  41.667  27.103  0.00  0.00    -0.206 F 
ATOM     97  C6  L04 d          30.482  40.186  25.819  0.00  0.00    -0.069 A 
ATOM     98  H17 L04 d          28.915  39.516  27.126  0.00  0.00     0.088 H 
ATOM     99  H7  L04 d          31.046  39.265  25.909  0.00  0.00     0.085 H 
ENDBRANCH  83  89
ENDBRANCH  76  79
ENDBRANCH  73  76
ENDBRANCH   1  73
TORSDOF 20
ENDMDL
MODEL 9
REMARK VINA RESULT:      -9.9      4.487     11.520
REMARK  20 active torsions:
REMARK  status: ('A' for Active; 'I' for Inactive)
REMARK    1  A    between atoms: C1_1  and  C23_23 
REMARK    2  A    between atoms: C1_1  and  C2_2 
REMARK    3  A    between atoms: C2_2  and  C18_18 
REMARK    4  A    between atoms: C2_2  and  C3_3 
REMARK    5  A    between atoms: C21_21  and  C4_4 
REMARK    6  A    between atoms: C13_13  and  C5_5 
REMARK    7  A    between atoms: C18_18  and  C7_7 
REMARK    8  A    between atoms: C7_7  and  C16_16 
REMARK    9  A    between atoms: C7_7  and  C8_8 
REMARK   10  A    between atoms: C8_8  and  C9_9 
REMARK   11  A    between atoms: C9_9  and  C10_10 
REMARK       I    between atoms: C16_16  and  N18_45 
REMARK   12  A    between atoms: N18_45  and  C19_19 
REMARK   13  A    between atoms: C19_19  and  C27_27 
REMARK   14  A    between atoms: C19_19  and  C20_20 
REMARK   15  A    between atoms: C20_20  and  C21_21 
REMARK   16  A    between atoms: C21_21  and  C22_22 
REMARK   17  A    between atoms: C23_23  and  C24_24 
REMARK   18  A    between atoms: C24_24  and  C25_25 
REMARK   19  A    between atoms: C25_25  and  N1_44 
REMARK       I    between atoms: C27_27  and  N29_46 
REMARK   20  A    between atoms: N29_46  and  C30_30 
ROOT
ATOM      1  C7  L04 d          35.737  38.812  22.200  0.00  0.00     0.025 C 
ATOM      2  H8  L04 d          34.967  38.457  21.499  0.00  0.00     0.054 H 
ENDROOT
BRANCH   1   3
ATOM      3  C18 L04 d          35.738  37.899  23.426  0.00  0.00    -0.041 C 
ATOM      4  H18 L04 d          36.645  37.280  23.381  0.00  0.00     0.035 H 
ATOM      5  H19 L04 d          35.775  38.539  24.320  0.00  0.00     0.035 H 
BRANCH   3   6
ATOM      6  C2  L04 d          34.540  36.959  23.576  0.00  0.00     0.031 C 
ATOM      7  H3  L04 d          33.848  37.181  22.751  0.00  0.00     0.056 H 
BRANCH   6   8
ATOM      8  C1  L04 d          33.758  37.175  24.881  0.00  0.00    -0.052 C 
ATOM      9  H1  L04 d          34.338  36.736  25.706  0.00  0.00     0.034 H 
ATOM     10  H2  L04 d          33.650  38.257  25.043  0.00  0.00     0.034 H 
BRANCH   8  11
ATOM     11  C23 L04 d          32.372  36.552  24.889  0.00  0.00    -0.063 C 
ATOM     12  H27 L04 d          32.303  35.842  25.726  0.00  0.00     0.033 H 
ATOM     13  H28 L04 d          32.213  36.018  23.941  0.00  0.00     0.033 H 
BRANCH  11  14
ATOM     14  C24 L04 d          31.292  37.613  25.048  0.00  0.00    -0.050 C 
ATOM     15  H29 L04 d          31.674  38.571  24.665  0.00  0.00     0.035 H 
ATOM     16  H30 L04 d          31.048  37.715  26.115  0.00  0.00     0.035 H 
BRANCH  14  17
ATOM     17  C25 L04 d          30.026  37.247  24.286  0.00  0.00    -0.002 C 
ATOM     18  H31 L04 d          29.158  37.467  24.924  0.00  0.00     0.064 H 
ATOM     19  H32 L04 d          30.052  36.171  24.061  0.00  0.00     0.064 H 
BRANCH  17  20
ATOM     20  N1  L04 d          29.877  37.980  23.030  0.00  0.00    -0.344 N 
ATOM     21  C28 L04 d          30.833  38.084  21.921  0.00  0.00     0.023 A 
ATOM     22  C36 L04 d          30.053  38.912  20.901  0.00  0.00    -0.025 A 
ATOM     23  H33 L04 d          31.086  37.092  21.518  0.00  0.00     0.071 H 
ATOM     24  H34 L04 d          31.753  38.599  22.233  0.00  0.00     0.071 H 
ATOM     25  C29 L04 d          28.799  39.268  21.460  0.00  0.00     0.040 A 
ATOM     26  C38 L04 d          30.367  39.308  19.595  0.00  0.00    -0.074 A 
ATOM     27  C26 L04 d          28.741  38.686  22.806  0.00  0.00     0.254 A 
ATOM     28  C37 L04 d          27.884  40.013  20.702  0.00  0.00    -0.067 A 
ATOM     29  O1  L04 d          27.795  38.785  23.592  0.00  0.00    -0.267 OA
ATOM     30  C40 L04 d          28.216  40.390  19.410  0.00  0.00    -0.082 A 
ATOM     31  H40 L04 d          26.924  40.290  21.122  0.00  0.00     0.085 H 
ATOM     32  C39 L04 d          29.440  40.045  18.863  0.00  0.00    -0.082 A 
ATOM     33  H43 L04 d          27.509  40.963  18.820  0.00  0.00     0.083 H 
ATOM     34  H42 L04 d          29.680  40.353  17.852  0.00  0.00     0.083 H 
ATOM     35  H41 L04 d          31.322  39.043  19.158  0.00  0.00     0.084 H 
ENDBRANCH  17  20
ENDBRANCH  14  17
ENDBRANCH  11  14
ENDBRANCH   8  11
ENDBRANCH   6   8
BRANCH   6  36
ATOM     36  C3  L04 d          34.996  35.504  23.415  0.00  0.00     0.177 C 
ATOM     37  O5  L04 d          36.019  35.030  23.973  0.00  0.00    -0.648 OA
ATOM     38  O4  L04 d          34.332  34.787  22.663  0.00  0.00    -0.648 OA
ENDBRANCH   6  36
ENDBRANCH   3   6
ENDBRANCH   1   3
BRANCH   1  39
ATOM     39  C16 L04 d          37.093  38.781  21.510  0.00  0.00     0.222 C 
ATOM     40  O17 L04 d          37.244  39.268  20.387  0.00  0.00    -0.273 OA
ATOM     41  N18 L04 d          38.077  38.203  22.191  0.00  0.00    -0.347 N 
ATOM     42  H46 L04 d          37.896  37.848  23.108  0.00  0.00     0.163 HD
BRANCH  41  43
ATOM     43  C19 L04 d          39.412  38.078  21.626  0.00  0.00     0.090 C 
ATOM     44  H20 L04 d          39.355  38.125  20.528  0.00  0.00     0.087 H 
BRANCH  43  45
ATOM     45  C27 L04 d          39.966  36.725  22.058  0.00  0.00     0.245 C 
ATOM     46  O28 L04 d          39.458  36.120  23.006  0.00  0.00    -0.271 OA
ATOM     47  N29 L04 d          40.955  36.235  21.310  0.00  0.00    -0.325 N 
ATOM     48  H47 L04 d          41.233  36.799  20.532  0.00  0.00     0.169 HD
BRANCH  47  49
ATOM     49  C30 L04 d          41.647  35.049  21.469  0.00  0.00     0.034 A 
ATOM     50  C35 L04 d          42.561  34.819  22.496  0.00  0.00    -0.057 A 
ATOM     51  C34 L04 d          43.233  33.603  22.594  0.00  0.00    -0.081 A 
ATOM     52  H39 L04 d          42.752  35.595  23.227  0.00  0.00     0.086 H 
ATOM     53  C33 L04 d          42.991  32.598  21.657  0.00  0.00    -0.083 A 
ATOM     54  H38 L04 d          43.943  33.437  23.397  0.00  0.00     0.083 H 
ATOM     55  C32 L04 d          42.082  32.818  20.629  0.00  0.00    -0.081 A 
ATOM     56  H37 L04 d          43.511  31.649  21.731  0.00  0.00     0.083 H 
ATOM     57  C31 L04 d          41.416  34.036  20.540  0.00  0.00    -0.057 A 
ATOM     58  H36 L04 d          41.893  32.041  19.897  0.00  0.00     0.083 H 
ATOM     59  H35 L04 d          40.707  34.200  19.737  0.00  0.00     0.086 H 
ENDBRANCH  47  49
ENDBRANCH  43  45
BRANCH  43  60
ATOM     60  C20 L04 d          40.327  39.197  22.130  0.00  0.00    -0.035 C 
ATOM     61  H21 L04 d          41.358  38.816  22.090  0.00  0.00     0.037 H 
ATOM     62  H22 L04 d          40.048  39.398  23.175  0.00  0.00     0.037 H 
BRANCH  60  63
ATOM     63  C21 L04 d          40.311  40.538  21.392  0.00  0.00    -0.059 C 
ATOM     64  H23 L04 d          39.969  40.376  20.359  0.00  0.00     0.038 H 
BRANCH  63  65
ATOM     65  C4  L04 d          39.335  41.461  22.100  0.00  0.00    -0.073 C 
ATOM     66  H4  L04 d          39.102  42.317  21.451  0.00  0.00     0.028 H 
ATOM     67  H5  L04 d          39.785  41.822  23.037  0.00  0.00     0.028 H 
ATOM     68  H6  L04 d          38.409  40.911  22.327  0.00  0.00     0.028 H 
ENDBRANCH  63  65
BRANCH  63  69
ATOM     69  C22 L04 d          41.708  41.156  21.353  0.00  0.00    -0.073 C 
ATOM     70  H24 L04 d          41.632  42.245  21.491  0.00  0.00     0.028 H 
ATOM     71  H25 L04 d          42.177  40.941  20.382  0.00  0.00     0.028 H 
ATOM     72  H26 L04 d          42.321  40.726  22.160  0.00  0.00     0.028 H 
ENDBRANCH  63  69
ENDBRANCH  60  63
ENDBRANCH  43  60
ENDBRANCH  41  43
ENDBRANCH   1  39
BRANCH   1  73
ATOM     73  C8  L04 d          35.426  40.260  22.592  0.00  0.00    -0.050 C 
ATOM     74  H9  L04 d          36.274  40.891  22.285  0.00  0.00     0.034 H 
ATOM     75  H10 L04 d          35.311  40.305  23.685  0.00  0.00     0.034 H 
BRANCH  73  76
ATOM     76  C9  L04 d          34.175  40.810  21.961  0.00  0.00    -0.040 C 
ATOM     77  H11 L04 d          33.841  40.101  21.190  0.00  0.00     0.040 H 
ATOM     78  H12 L04 d          34.424  41.772  21.490  0.00  0.00     0.040 H 
BRANCH  76  79
ATOM     79  C10 L04 d          33.039  41.035  22.909  0.00  0.00    -0.058 A 
ATOM     80  C15 L04 d          31.784  41.400  22.435  0.00  0.00    -0.076 A 
ATOM     81  C14 L04 d          30.719  41.577  23.306  0.00  0.00    -0.072 A 
ATOM     82  H16 L04 d          31.635  41.547  21.372  0.00  0.00     0.084 H 
ATOM     83  C13 L04 d          30.893  41.395  24.673  0.00  0.00    -0.026 A 
ATOM     84  H15 L04 d          29.746  41.858  22.920  0.00  0.00     0.084 H 
ATOM     85  C12 L04 d          32.151  41.034  25.145  0.00  0.00    -0.072 A 
ATOM     86  C11 L04 d          33.210  40.857  24.275  0.00  0.00    -0.076 A 
ATOM     87  H14 L04 d          32.302  40.890  26.209  0.00  0.00     0.084 H 
ATOM     88  H13 L04 d          34.184  40.577  24.663  0.00  0.00     0.084 H 
BRANCH  83  89
ATOM     89  C5  L04 d          29.774  41.577  25.611  0.00  0.00    -0.026 A 
ATOM     90  C43 L04 d          29.312  42.852  25.918  0.00  0.00    -0.069 A 
ATOM     91  C42 L04 d          28.262  43.027  26.810  0.00  0.00    -0.045 A 
ATOM     92  H45 L04 d          29.776  43.717  25.457  0.00  0.00     0.085 H 
ATOM     93  C41 L04 d          27.655  41.934  27.412  0.00  0.00     0.116 A 
ATOM     94  H44 L04 d          27.914  44.027  27.038  0.00  0.00     0.088 H 
ATOM     95  C17 L04 d          28.101  40.659  27.097  0.00  0.00    -0.045 A 
ATOM     96  F1  L04 d          26.647  42.119  28.289  0.00  0.00    -0.206 F 
ATOM     97  C6  L04 d          29.157  40.482  26.209  0.00  0.00    -0.069 A 
ATOM     98  H17 L04 d          27.624  39.795  27.546  0.00  0.00     0.088 H 
ATOM     99  H7  L04 d          29.504  39.481  25.981  0.00  0.00     0.085 H 
ENDBRANCH  83  89
ENDBRANCH  76  79
ENDBRANCH  73  76
ENDBRANCH   1  73
TORSDOF 20
ENDMDL
MODEL 10
REMARK VINA RESULT:      -9.8      3.488      5.276
REMARK  20 active torsions:
REMARK  status: ('A' for Active; 'I' for Inactive)
REMARK    1  A    between atoms: C1_1  and  C23_23 
REMARK    2  A    between atoms: C1_1  and  C2_2 
REMARK    3  A    between atoms: C2_2  and  C18_18 
REMARK    4  A    between atoms: C2_2  and  C3_3 
REMARK    5  A    between atoms: C21_21  and  C4_4 
REMARK    6  A    between atoms: C13_13  and  C5_5 
REMARK    7  A    between atoms: C18_18  and  C7_7 
REMARK    8  A    between atoms: C7_7  and  C16_16 
REMARK    9  A    between atoms: C7_7  and  C8_8 
REMARK   10  A    between atoms: C8_8  and  C9_9 
REMARK   11  A    between atoms: C9_9  and  C10_10 
REMARK       I    between atoms: C16_16  and  N18_45 
REMARK   12  A    between atoms: N18_45  and  C19_19 
REMARK   13  A    between atoms: C19_19  and  C27_27 
REMARK   14  A    between atoms: C19_19  and  C20_20 
REMARK   15  A    between atoms: C20_20  and  C21_21 
REMARK   16  A    between atoms: C21_21  and  C22_22 
REMARK   17  A    between atoms: C23_23  and  C24_24 
REMARK   18  A    between atoms: C24_24  and  C25_25 
REMARK   19  A    between atoms: C25_25  and  N1_44 
REMARK       I    between atoms: C27_27  and  N29_46 
REMARK   20  A    between atoms: N29_46  and  C30_30 
ROOT
ATOM      1  C7  L04 d          33.177  39.895  23.110  0.00  0.00     0.025 C 
ATOM      2  H8  L04 d          33.528  39.948  24.151  0.00  0.00     0.054 H 
ENDROOT
BRANCH   1   3
ATOM      3  C18 L04 d          33.220  38.436  22.656  0.00  0.00    -0.041 C 
ATOM      4  H18 L04 d          32.183  38.078  22.584  0.00  0.00     0.035 H 
ATOM      5  H19 L04 d          33.687  38.409  21.660  0.00  0.00     0.035 H 
BRANCH   3   6
ATOM      6  C2  L04 d          33.987  37.465  23.555  0.00  0.00     0.031 C 
ATOM      7  H3  L04 d          34.736  38.053  24.104  0.00  0.00     0.056 H 
BRANCH   6   8
ATOM      8  C1  L04 d          34.754  36.389  22.773  0.00  0.00    -0.052 C 
ATOM      9  H1  L04 d          34.068  35.554  22.573  0.00  0.00     0.034 H 
ATOM     10  H2  L04 d          35.087  36.827  21.820  0.00  0.00     0.034 H 
BRANCH   8  11
ATOM     11  C23 L04 d          35.973  35.840  23.496  0.00  0.00    -0.063 C 
ATOM     12  H27 L04 d          36.154  34.808  23.161  0.00  0.00     0.033 H 
ATOM     13  H28 L04 d          35.781  35.847  24.578  0.00  0.00     0.033 H 
BRANCH  11  14
ATOM     14  C24 L04 d          37.210  36.680  23.207  0.00  0.00    -0.050 C 
ATOM     15  H29 L04 d          37.547  37.153  24.142  0.00  0.00     0.035 H 
ATOM     16  H30 L04 d          36.949  37.458  22.475  0.00  0.00     0.035 H 
BRANCH  14  17
ATOM     17  C25 L04 d          38.346  35.836  22.646  0.00  0.00    -0.002 C 
ATOM     18  H31 L04 d          38.158  35.666  21.575  0.00  0.00     0.064 H 
ATOM     19  H32 L04 d          38.359  34.871  23.173  0.00  0.00     0.064 H 
BRANCH  17  20
ATOM     20  N1  L04 d          39.658  36.463  22.793  0.00  0.00    -0.344 N 
ATOM     21  C28 L04 d          40.012  37.652  23.579  0.00  0.00     0.023 A 
ATOM     22  C36 L04 d          41.524  37.731  23.377  0.00  0.00    -0.025 A 
ATOM     23  H33 L04 d          39.758  37.519  24.641  0.00  0.00     0.071 H 
ATOM     24  H34 L04 d          39.511  38.551  23.191  0.00  0.00     0.071 H 
ATOM     25  C29 L04 d          41.927  36.692  22.500  0.00  0.00     0.040 A 
ATOM     26  C38 L04 d          42.486  38.595  23.916  0.00  0.00    -0.074 A 
ATOM     27  C26 L04 d          40.721  35.937  22.137  0.00  0.00     0.254 A 
ATOM     28  C37 L04 d          43.283  36.537  22.179  0.00  0.00    -0.067 A 
ATOM     29  O1  L04 d          40.686  34.956  21.390  0.00  0.00    -0.267 OA
ATOM     30  C40 L04 d          44.217  37.403  22.728  0.00  0.00    -0.082 A 
ATOM     31  H40 L04 d          43.599  35.746  21.509  0.00  0.00     0.085 H 
ATOM     32  C39 L04 d          43.826  38.419  23.583  0.00  0.00    -0.082 A 
ATOM     33  H43 L04 d          45.267  37.282  22.484  0.00  0.00     0.083 H 
ATOM     34  H42 L04 d          44.573  39.085  23.998  0.00  0.00     0.083 H 
ATOM     35  H41 L04 d          42.190  39.393  24.586  0.00  0.00     0.084 H 
ENDBRANCH  17  20
ENDBRANCH  14  17
ENDBRANCH  11  14
ENDBRANCH   8  11
ENDBRANCH   6   8
BRANCH   6  36
ATOM     36  C3  L04 d          33.036  36.852  24.590  0.00  0.00     0.177 C 
ATOM     37  O5  L04 d          31.939  36.312  24.294  0.00  0.00    -0.648 OA
ATOM     38  O4  L04 d          33.364  36.939  25.776  0.00  0.00    -0.648 OA
ENDBRANCH   6  36
ENDBRANCH   3   6
ENDBRANCH   1   3
BRANCH   1  39
ATOM     39  C16 L04 d          31.757  40.436  23.033  0.00  0.00     0.222 C 
ATOM     40  O17 L04 d          31.523  41.633  23.219  0.00  0.00    -0.273 OA
ATOM     41  N18 L04 d          30.810  39.545  22.760  0.00  0.00    -0.347 N 
ATOM     42  H46 L04 d          31.066  38.592  22.596  0.00  0.00     0.163 HD
BRANCH  41  43
ATOM     43  C19 L04 d          29.408  39.930  22.694  0.00  0.00     0.090 C 
ATOM     44  H20 L04 d          29.330  41.011  22.503  0.00  0.00     0.087 H 
BRANCH  43  45
ATOM     45  C27 L04 d          28.779  39.596  24.042  0.00  0.00     0.245 C 
ATOM     46  O28 L04 d          28.377  38.453  24.274  0.00  0.00    -0.271 OA
ATOM     47  N29 L04 d          28.768  40.582  24.940  0.00  0.00    -0.325 N 
ATOM     48  H47 L04 d          29.181  41.443  24.645  0.00  0.00     0.169 HD
BRANCH  47  49
ATOM     49  C30 L04 d          28.260  40.569  26.225  0.00  0.00     0.034 A 
ATOM     50  C35 L04 d          26.953  40.197  26.537  0.00  0.00    -0.057 A 
ATOM     51  C34 L04 d          26.501  40.215  27.854  0.00  0.00    -0.081 A 
ATOM     52  H39 L04 d          26.281  39.889  25.745  0.00  0.00     0.086 H 
ATOM     53  C33 L04 d          27.362  40.607  28.879  0.00  0.00    -0.083 A 
ATOM     54  H38 L04 d          25.482  39.924  28.082  0.00  0.00     0.083 H 
ATOM     55  C32 L04 d          28.667  40.981  28.579  0.00  0.00    -0.081 A 
ATOM     56  H37 L04 d          27.014  40.621  29.905  0.00  0.00     0.083 H 
ATOM     57  C31 L04 d          29.109  40.959  27.260  0.00  0.00    -0.057 A 
ATOM     58  H36 L04 d          29.339  41.289  29.371  0.00  0.00     0.083 H 
ATOM     59  H35 L04 d          30.128  41.249  27.033  0.00  0.00     0.086 H 
ENDBRANCH  47  49
ENDBRANCH  43  45
BRANCH  43  60
ATOM     60  C20 L04 d          28.683  39.170  21.582  0.00  0.00    -0.035 C 
ATOM     61  H21 L04 d          28.299  38.237  22.022  0.00  0.00     0.037 H 
ATOM     62  H22 L04 d          29.430  38.932  20.810  0.00  0.00     0.037 H 
BRANCH  60  63
ATOM     63  C21 L04 d          27.508  39.855  20.878  0.00  0.00    -0.059 C 
ATOM     64  H23 L04 d          27.355  40.850  21.320  0.00  0.00     0.038 H 
BRANCH  63  65
ATOM     65  C4  L04 d          27.859  40.011  19.408  0.00  0.00    -0.073 C 
ATOM     66  H4  L04 d          28.368  39.102  19.054  0.00  0.00     0.028 H 
ATOM     67  H5  L04 d          28.524  40.877  19.280  0.00  0.00     0.028 H 
ATOM     68  H6  L04 d          26.938  40.166  18.826  0.00  0.00     0.028 H 
ENDBRANCH  63  65
BRANCH  63  69
ATOM     69  C22 L04 d          26.225  39.042  21.044  0.00  0.00    -0.073 C 
ATOM     70  H24 L04 d          25.833  38.768  20.053  0.00  0.00     0.028 H 
ATOM     71  H25 L04 d          25.476  39.645  21.580  0.00  0.00     0.028 H 
ATOM     72  H26 L04 d          26.440  38.129  21.619  0.00  0.00     0.028 H 
ENDBRANCH  63  69
ENDBRANCH  60  63
ENDBRANCH  43  60
ENDBRANCH  41  43
ENDBRANCH   1  39
BRANCH   1  73
ATOM     73  C8  L04 d          34.077  40.771  22.235  0.00  0.00    -0.050 C 
ATOM     74  H9  L04 d          33.469  41.593  21.827  0.00  0.00     0.034 H 
ATOM     75  H10 L04 d          34.462  40.155  21.409  0.00  0.00     0.034 H 
BRANCH  73  76
ATOM     76  C9  L04 d          35.249  41.368  22.966  0.00  0.00    -0.040 C 
ATOM     77  H11 L04 d          35.228  41.001  24.002  0.00  0.00     0.040 H 
ATOM     78  H12 L04 d          35.133  42.462  22.963  0.00  0.00     0.040 H 
BRANCH  76  79
ATOM     79  C10 L04 d          36.588  41.040  22.382  0.00  0.00    -0.058 A 
ATOM     80  C15 L04 d          37.687  41.853  22.633  0.00  0.00    -0.076 A 
ATOM     81  C14 L04 d          38.938  41.535  22.123  0.00  0.00    -0.072 A 
ATOM     82  H16 L04 d          37.566  42.746  23.235  0.00  0.00     0.084 H 
ATOM     83  C13 L04 d          39.110  40.395  21.348  0.00  0.00    -0.026 A 
ATOM     84  H15 L04 d          39.785  42.179  22.331  0.00  0.00     0.084 H 
ATOM     85  C12 L04 d          38.007  39.585  21.095  0.00  0.00    -0.072 A 
ATOM     86  C11 L04 d          36.762  39.903  21.605  0.00  0.00    -0.076 A 
ATOM     87  H14 L04 d          38.126  38.693  20.490  0.00  0.00     0.084 H 
ATOM     88  H13 L04 d          35.915  39.260  21.396  0.00  0.00     0.084 H 
BRANCH  83  89
ATOM     89  C5  L04 d          40.429  40.042  20.800  0.00  0.00    -0.026 A 
ATOM     90  C43 L04 d          40.572  38.946  19.958  0.00  0.00    -0.069 A 
ATOM     91  C42 L04 d          41.817  38.605  19.447  0.00  0.00    -0.045 A 
ATOM     92  H45 L04 d          39.703  38.351  19.697  0.00  0.00     0.085 H 
ATOM     93  C41 L04 d          42.942  39.350  19.768  0.00  0.00     0.116 A 
ATOM     94  H44 L04 d          41.911  37.747  18.791  0.00  0.00     0.088 H 
ATOM     95  C17 L04 d          42.803  40.456  20.595  0.00  0.00    -0.045 A 
ATOM     96  F1  L04 d          44.149  38.999  19.278  0.00  0.00    -0.206 F 
ATOM     97  C6  L04 d          41.558  40.794  21.113  0.00  0.00    -0.069 A 
ATOM     98  H17 L04 d          43.671  41.058  20.840  0.00  0.00     0.088 H 
ATOM     99  H7  L04 d          41.465  41.653  21.769  0.00  0.00     0.085 H 
ENDBRANCH  83  89
ENDBRANCH  76  79
ENDBRANCH  73  76
ENDBRANCH   1  73
TORSDOF 20
ENDMDL
