MODEL 1
REMARK VINA RESULT:      -5.9      0.000      0.000
REMARK  11 active torsions:
REMARK  status: ('A' for Active; 'I' for Inactive)
REMARK    1  A    between atoms: C1_3  and  C2_4 
REMARK    2  A    between atoms: C2_4  and  C3_5 
REMARK    3  A    between atoms: C3_5  and  C4_6 
REMARK    4  A    between atoms: C4_6  and  C5_7 
REMARK    5  A    between atoms: C5_7  and  C6_8 
REMARK    6  A    between atoms: C6_8  and  C7_9 
REMARK    7  A    between atoms: C7_9  and  C8_10 
REMARK    8  A    between atoms: C8_10  and  C9_11 
REMARK    9  A    between atoms: C9_11  and  C10_12 
REMARK   10  A    between atoms: C10_12  and  C11_13 
REMARK   11  A    between atoms: C11_13  and  C12_14 
ROOT
ATOM      1  C7  DAO d          -3.134  12.644  18.061  0.00  0.00    -0.065 C 
ATOM      2  H11 DAO d          -3.982  12.340  18.691  0.00  0.00     0.033 H 
ATOM      3  H12 DAO d          -3.092  12.004  17.168  0.00  0.00     0.033 H 
ENDROOT
BRANCH   1   4
ATOM      4  C6  DAO d          -1.839  12.459  18.859  0.00  0.00    -0.065 C 
ATOM      5  H9  DAO d          -1.054  12.062  18.198  0.00  0.00     0.033 H 
ATOM      6  H10 DAO d          -1.518  13.428  19.268  0.00  0.00     0.033 H 
BRANCH   4   7
ATOM      7  C5  DAO d          -2.085  11.482  19.999  0.00  0.00    -0.065 C 
ATOM      8  H7  DAO d          -1.292  10.721  19.982  0.00  0.00     0.033 H 
ATOM      9  H8  DAO d          -2.042  12.036  20.948  0.00  0.00     0.033 H 
BRANCH   7  10
ATOM     10  C4  DAO d          -3.435  10.776  19.912  0.00  0.00    -0.065 C 
ATOM     11  H5  DAO d          -4.060  11.098  20.758  0.00  0.00     0.033 H 
ATOM     12  H6  DAO d          -3.924  11.058  18.968  0.00  0.00     0.033 H 
BRANCH  10  13
ATOM     13  C3  DAO d          -3.290   9.248  19.956  0.00  0.00    -0.056 C 
ATOM     14  H3  DAO d          -3.351   8.916  21.004  0.00  0.00     0.033 H 
ATOM     15  H4  DAO d          -4.113   8.796  19.381  0.00  0.00     0.033 H 
BRANCH  13  16
ATOM     16  C2  DAO d          -1.958   8.774  19.366  0.00  0.00     0.016 C 
ATOM     17  H1  DAO d          -1.200   9.550  19.550  0.00  0.00     0.049 H 
ATOM     18  H2  DAO d          -1.661   7.845  19.875  0.00  0.00     0.049 H 
BRANCH  16  19
ATOM     19  C1  DAO d          -2.020   8.505  17.866  0.00  0.00     0.172 C 
ATOM     20  O1  DAO d          -2.537   7.438  17.449  0.00  0.00    -0.648 OA
ATOM     21  O2  DAO d          -1.570   9.349  17.058  0.00  0.00    -0.648 OA
ENDBRANCH  16  19
ENDBRANCH  13  16
ENDBRANCH  10  13
ENDBRANCH   7  10
ENDBRANCH   4   7
ENDBRANCH   1   4
BRANCH   1  22
ATOM     22  C8  DAO d          -3.348  14.088  17.618  0.00  0.00    -0.065 C 
ATOM     23  H13 DAO d          -4.201  14.506  18.172  0.00  0.00     0.033 H 
ATOM     24  H14 DAO d          -3.569  14.099  16.541  0.00  0.00     0.033 H 
BRANCH  22  25
ATOM     25  C9  DAO d          -2.129  14.949  17.876  0.00  0.00    -0.065 C 
ATOM     26  H15 DAO d          -1.369  14.716  17.114  0.00  0.00     0.033 H 
ATOM     27  H16 DAO d          -1.734  14.706  18.873  0.00  0.00     0.033 H 
BRANCH  25  28
ATOM     28  C10 DAO d          -2.424  16.449  17.823  0.00  0.00    -0.065 C 
ATOM     29  H17 DAO d          -1.663  16.943  17.201  0.00  0.00     0.033 H 
ATOM     30  H18 DAO d          -2.386  16.859  18.843  0.00  0.00     0.033 H 
BRANCH  28  31
ATOM     31  C11 DAO d          -3.794  16.715  17.235  0.00  0.00    -0.069 C 
ATOM     32  H19 DAO d          -4.512  16.890  18.050  0.00  0.00     0.032 H 
ATOM     33  H20 DAO d          -4.112  15.843  16.646  0.00  0.00     0.032 H 
BRANCH  31  34
ATOM     34  C12 DAO d          -3.748  17.931  16.342  0.00  0.00    -0.077 C 
ATOM     35  H21 DAO d          -3.750  17.613  15.289  0.00  0.00     0.027 H 
ATOM     36  H22 DAO d          -2.831  18.504  16.549  0.00  0.00     0.027 H 
ATOM     37  H23 DAO d          -4.627  18.562  16.536  0.00  0.00     0.027 H 
ENDBRANCH  31  34
ENDBRANCH  28  31
ENDBRANCH  25  28
ENDBRANCH  22  25
ENDBRANCH   1  22
TORSDOF 11
ENDMDL
MODEL 2
REMARK VINA RESULT:      -5.8      1.455      1.724
REMARK  11 active torsions:
REMARK  status: ('A' for Active; 'I' for Inactive)
REMARK    1  A    between atoms: C1_3  and  C2_4 
REMARK    2  A    between atoms: C2_4  and  C3_5 
REMARK    3  A    between atoms: C3_5  and  C4_6 
REMARK    4  A    between atoms: C4_6  and  C5_7 
REMARK    5  A    between atoms: C5_7  and  C6_8 
REMARK    6  A    between atoms: C6_8  and  C7_9 
REMARK    7  A    between atoms: C7_9  and  C8_10 
REMARK    8  A    between atoms: C8_10  and  C9_11 
REMARK    9  A    between atoms: C9_11  and  C10_12 
REMARK   10  A    between atoms: C10_12  and  C11_13 
REMARK   11  A    between atoms: C11_13  and  C12_14 
ROOT
ATOM      1  C7  DAO d          -3.071  12.952  17.938  0.00  0.00    -0.065 C 
ATOM      2  H11 DAO d          -3.907  12.570  18.542  0.00  0.00     0.033 H 
ATOM      3  H12 DAO d          -2.962  12.340  17.032  0.00  0.00     0.033 H 
ENDROOT
BRANCH   1   4
ATOM      4  C6  DAO d          -1.783  12.843  18.761  0.00  0.00    -0.065 C 
ATOM      5  H9  DAO d          -0.950  13.292  18.201  0.00  0.00     0.033 H 
ATOM      6  H10 DAO d          -1.911  13.375  19.715  0.00  0.00     0.033 H 
BRANCH   4   7
ATOM      7  C5  DAO d          -1.482  11.377  19.033  0.00  0.00    -0.065 C 
ATOM      8  H7  DAO d          -0.392  11.256  19.118  0.00  0.00     0.033 H 
ATOM      9  H8  DAO d          -1.958  11.094  19.983  0.00  0.00     0.033 H 
BRANCH   7  10
ATOM     10  C4  DAO d          -1.989  10.440  17.940  0.00  0.00    -0.065 C 
ATOM     11  H5  DAO d          -2.894  10.877  17.490  0.00  0.00     0.033 H 
ATOM     12  H6  DAO d          -1.210  10.338  17.171  0.00  0.00     0.033 H 
BRANCH  10  13
ATOM     13  C3  DAO d          -2.331   9.047  18.488  0.00  0.00    -0.056 C 
ATOM     14  H3  DAO d          -1.885   8.940  19.488  0.00  0.00     0.033 H 
ATOM     15  H4  DAO d          -3.425   8.955  18.564  0.00  0.00     0.033 H 
BRANCH  13  16
ATOM     16  C2  DAO d          -1.803   7.925  17.589  0.00  0.00     0.016 C 
ATOM     17  H1  DAO d          -2.577   7.678  16.848  0.00  0.00     0.049 H 
ATOM     18  H2  DAO d          -0.902   8.288  17.071  0.00  0.00     0.049 H 
BRANCH  16  19
ATOM     19  C1  DAO d          -1.441   6.655  18.353  0.00  0.00     0.172 C 
ATOM     20  O1  DAO d          -1.011   6.741  19.531  0.00  0.00    -0.648 OA
ATOM     21  O2  DAO d          -1.586   5.536  17.812  0.00  0.00    -0.648 OA
ENDBRANCH  16  19
ENDBRANCH  13  16
ENDBRANCH  10  13
ENDBRANCH   7  10
ENDBRANCH   4   7
ENDBRANCH   1   4
BRANCH   1  22
ATOM     22  C8  DAO d          -3.383  14.387  17.524  0.00  0.00    -0.065 C 
ATOM     23  H13 DAO d          -4.271  14.729  18.074  0.00  0.00     0.033 H 
ATOM     24  H14 DAO d          -3.589  14.407  16.444  0.00  0.00     0.033 H 
BRANCH  22  25
ATOM     25  C9  DAO d          -2.232  15.327  17.820  0.00  0.00    -0.065 C 
ATOM     26  H15 DAO d          -1.466  15.199  17.040  0.00  0.00     0.033 H 
ATOM     27  H16 DAO d          -1.807  15.061  18.799  0.00  0.00     0.033 H 
BRANCH  25  28
ATOM     28  C10 DAO d          -2.646  16.799  17.855  0.00  0.00    -0.065 C 
ATOM     29  H17 DAO d          -1.861  17.404  17.379  0.00  0.00     0.033 H 
ATOM     30  H18 DAO d          -2.767  17.114  18.903  0.00  0.00     0.033 H 
BRANCH  28  31
ATOM     31  C11 DAO d          -3.953  17.016  17.121  0.00  0.00    -0.069 C 
ATOM     32  H19 DAO d          -4.743  17.256  17.848  0.00  0.00     0.032 H 
ATOM     33  H20 DAO d          -4.220  16.099  16.577  0.00  0.00     0.032 H 
BRANCH  31  34
ATOM     34  C12 DAO d          -3.814  18.155  16.141  0.00  0.00    -0.077 C 
ATOM     35  H21 DAO d          -4.683  18.166  15.466  0.00  0.00     0.027 H 
ATOM     36  H22 DAO d          -2.894  18.022  15.552  0.00  0.00     0.027 H 
ATOM     37  H23 DAO d          -3.764  19.107  16.690  0.00  0.00     0.027 H 
ENDBRANCH  31  34
ENDBRANCH  28  31
ENDBRANCH  25  28
ENDBRANCH  22  25
ENDBRANCH   1  22
TORSDOF 11
ENDMDL
MODEL 3
REMARK VINA RESULT:      -5.8      1.624      2.259
REMARK  11 active torsions:
REMARK  status: ('A' for Active; 'I' for Inactive)
REMARK    1  A    between atoms: C1_3  and  C2_4 
REMARK    2  A    between atoms: C2_4  and  C3_5 
REMARK    3  A    between atoms: C3_5  and  C4_6 
REMARK    4  A    between atoms: C4_6  and  C5_7 
REMARK    5  A    between atoms: C5_7  and  C6_8 
REMARK    6  A    between atoms: C6_8  and  C7_9 
REMARK    7  A    between atoms: C7_9  and  C8_10 
REMARK    8  A    between atoms: C8_10  and  C9_11 
REMARK    9  A    between atoms: C9_11  and  C10_12 
REMARK   10  A    between atoms: C10_12  and  C11_13 
REMARK   11  A    between atoms: C11_13  and  C12_14 
ROOT
ATOM      1  C7  DAO d          -1.801  13.102  18.600  0.00  0.00    -0.065 C 
ATOM      2  H11 DAO d          -1.007  13.493  17.947  0.00  0.00     0.033 H 
ATOM      3  H12 DAO d          -1.840  13.694  19.526  0.00  0.00     0.033 H 
ENDROOT
BRANCH   1   4
ATOM      4  C6  DAO d          -1.468  11.650  18.960  0.00  0.00    -0.065 C 
ATOM      5  H9  DAO d          -0.417  11.442  18.713  0.00  0.00     0.033 H 
ATOM      6  H10 DAO d          -1.630  11.492  20.036  0.00  0.00     0.033 H 
BRANCH   4   7
ATOM      7  C5  DAO d          -2.371  10.716  18.168  0.00  0.00    -0.065 C 
ATOM      8  H7  DAO d          -2.985  10.141  18.877  0.00  0.00     0.033 H 
ATOM      9  H8  DAO d          -3.024  11.325  17.526  0.00  0.00     0.033 H 
BRANCH   7  10
ATOM     10  C4  DAO d          -1.605   9.734  17.286  0.00  0.00    -0.065 C 
ATOM     11  H5  DAO d          -1.894   9.899  16.237  0.00  0.00     0.033 H 
ATOM     12  H6  DAO d          -0.527   9.919  17.402  0.00  0.00     0.033 H 
BRANCH  10  13
ATOM     13  C3  DAO d          -1.900   8.274  17.657  0.00  0.00    -0.056 C 
ATOM     14  H3  DAO d          -2.656   7.878  16.964  0.00  0.00     0.033 H 
ATOM     15  H4  DAO d          -0.972   7.689  17.560  0.00  0.00     0.033 H 
BRANCH  13  16
ATOM     16  C2  DAO d          -2.423   8.135  19.090  0.00  0.00     0.016 C 
ATOM     17  H1  DAO d          -2.147   9.040  19.651  0.00  0.00     0.049 H 
ATOM     18  H2  DAO d          -3.519   8.046  19.054  0.00  0.00     0.049 H 
BRANCH  16  19
ATOM     19  C1  DAO d          -1.863   6.921  19.826  0.00  0.00     0.172 C 
ATOM     20  O1  DAO d          -0.708   6.508  19.551  0.00  0.00    -0.648 OA
ATOM     21  O2  DAO d          -2.547   6.351  20.705  0.00  0.00    -0.648 OA
ENDBRANCH  16  19
ENDBRANCH  13  16
ENDBRANCH  10  13
ENDBRANCH   7  10
ENDBRANCH   4   7
ENDBRANCH   1   4
BRANCH   1  22
ATOM     22  C8  DAO d          -3.137  13.236  17.877  0.00  0.00    -0.065 C 
ATOM     23  H13 DAO d          -3.948  13.008  18.585  0.00  0.00     0.033 H 
ATOM     24  H14 DAO d          -3.165  12.517  17.046  0.00  0.00     0.033 H 
BRANCH  22  25
ATOM     25  C9  DAO d          -3.347  14.631  17.325  0.00  0.00    -0.065 C 
ATOM     26  H15 DAO d          -4.361  14.964  17.594  0.00  0.00     0.033 H 
ATOM     27  H16 DAO d          -3.253  14.591  16.230  0.00  0.00     0.033 H 
BRANCH  25  28
ATOM     28  C10 DAO d          -2.343  15.652  17.862  0.00  0.00    -0.065 C 
ATOM     29  H17 DAO d          -1.409  15.574  17.286  0.00  0.00     0.033 H 
ATOM     30  H18 DAO d          -2.140  15.435  18.921  0.00  0.00     0.033 H 
BRANCH  28  31
ATOM     31  C11 DAO d          -2.882  17.063  17.742  0.00  0.00    -0.069 C 
ATOM     32  H19 DAO d          -2.143  17.692  17.224  0.00  0.00     0.032 H 
ATOM     33  H20 DAO d          -3.068  17.467  18.747  0.00  0.00     0.032 H 
BRANCH  31  34
ATOM     34  C12 DAO d          -4.172  17.060  16.959  0.00  0.00    -0.077 C 
ATOM     35  H21 DAO d          -4.056  16.433  16.063  0.00  0.00     0.027 H 
ATOM     36  H22 DAO d          -4.420  18.089  16.657  0.00  0.00     0.027 H 
ATOM     37  H23 DAO d          -4.981  16.657  17.586  0.00  0.00     0.027 H 
ENDBRANCH  31  34
ENDBRANCH  28  31
ENDBRANCH  25  28
ENDBRANCH  22  25
ENDBRANCH   1  22
TORSDOF 11
ENDMDL
MODEL 4
REMARK VINA RESULT:      -5.6      1.344      1.744
REMARK  11 active torsions:
REMARK  status: ('A' for Active; 'I' for Inactive)
REMARK    1  A    between atoms: C1_3  and  C2_4 
REMARK    2  A    between atoms: C2_4  and  C3_5 
REMARK    3  A    between atoms: C3_5  and  C4_6 
REMARK    4  A    between atoms: C4_6  and  C5_7 
REMARK    5  A    between atoms: C5_7  and  C6_8 
REMARK    6  A    between atoms: C6_8  and  C7_9 
REMARK    7  A    between atoms: C7_9  and  C8_10 
REMARK    8  A    between atoms: C8_10  and  C9_11 
REMARK    9  A    between atoms: C9_11  and  C10_12 
REMARK   10  A    between atoms: C10_12  and  C11_13 
REMARK   11  A    between atoms: C11_13  and  C12_14 
ROOT
ATOM      1  C7  DAO d          -1.897  12.708  18.618  0.00  0.00    -0.065 C 
ATOM      2  H11 DAO d          -1.058  12.186  18.136  0.00  0.00     0.033 H 
ATOM      3  H12 DAO d          -1.821  12.596  19.710  0.00  0.00     0.033 H 
ENDROOT
BRANCH   1   4
ATOM      4  C6  DAO d          -3.208  12.069  18.149  0.00  0.00    -0.065 C 
ATOM      5  H9  DAO d          -4.046  12.748  18.365  0.00  0.00     0.033 H 
ATOM      6  H10 DAO d          -3.158  11.881  17.067  0.00  0.00     0.033 H 
BRANCH   4   7
ATOM      7  C5  DAO d          -3.417  10.753  18.884  0.00  0.00    -0.065 C 
ATOM      8  H7  DAO d          -3.987  10.955  19.802  0.00  0.00     0.033 H 
ATOM      9  H8  DAO d          -3.994  10.079  18.234  0.00  0.00     0.033 H 
BRANCH   7  10
ATOM     10  C4  DAO d          -2.114  10.058  19.266  0.00  0.00    -0.065 C 
ATOM     11  H5  DAO d          -1.305  10.441  18.626  0.00  0.00     0.033 H 
ATOM     12  H6  DAO d          -1.886  10.283  20.318  0.00  0.00     0.033 H 
BRANCH  10  13
ATOM     13  C3  DAO d          -2.201   8.534  19.094  0.00  0.00    -0.056 C 
ATOM     14  H3  DAO d          -1.406   8.064  19.691  0.00  0.00     0.033 H 
ATOM     15  H4  DAO d          -3.182   8.192  19.457  0.00  0.00     0.033 H 
BRANCH  13  16
ATOM     16  C2  DAO d          -2.040   8.106  17.631  0.00  0.00     0.016 C 
ATOM     17  H1  DAO d          -2.510   8.868  16.992  0.00  0.00     0.049 H 
ATOM     18  H2  DAO d          -0.965   8.047  17.402  0.00  0.00     0.049 H 
BRANCH  16  19
ATOM     19  C1  DAO d          -2.676   6.755  17.321  0.00  0.00     0.172 C 
ATOM     20  O1  DAO d          -1.963   5.825  16.864  0.00  0.00    -0.648 OA
ATOM     21  O2  DAO d          -3.896   6.572  17.533  0.00  0.00    -0.648 OA
ENDBRANCH  16  19
ENDBRANCH  13  16
ENDBRANCH  10  13
ENDBRANCH   7  10
ENDBRANCH   4   7
ENDBRANCH   1   4
BRANCH   1  22
ATOM     22  C8  DAO d          -1.812  14.192  18.273  0.00  0.00    -0.065 C 
ATOM     23  H13 DAO d          -0.993  14.342  17.556  0.00  0.00     0.033 H 
ATOM     24  H14 DAO d          -1.603  14.758  19.192  0.00  0.00     0.033 H 
BRANCH  22  25
ATOM     25  C9  DAO d          -3.099  14.708  17.663  0.00  0.00    -0.065 C 
ATOM     26  H15 DAO d          -3.786  14.982  18.477  0.00  0.00     0.033 H 
ATOM     27  H16 DAO d          -3.546  13.905  17.060  0.00  0.00     0.033 H 
BRANCH  25  28
ATOM     28  C10 DAO d          -2.896  15.932  16.767  0.00  0.00    -0.065 C 
ATOM     29  H17 DAO d          -3.191  15.677  15.739  0.00  0.00     0.033 H 
ATOM     30  H18 DAO d          -1.834  16.217  16.784  0.00  0.00     0.033 H 
BRANCH  28  31
ATOM     31  C11 DAO d          -3.729  17.103  17.246  0.00  0.00    -0.069 C 
ATOM     32  H19 DAO d          -3.264  17.537  18.144  0.00  0.00     0.032 H 
ATOM     33  H20 DAO d          -4.742  16.752  17.490  0.00  0.00     0.032 H 
BRANCH  31  34
ATOM     34  C12 DAO d          -3.812  18.155  16.168  0.00  0.00    -0.077 C 
ATOM     35  H21 DAO d          -2.867  18.717  16.130  0.00  0.00     0.027 H 
ATOM     36  H22 DAO d          -4.639  18.845  16.391  0.00  0.00     0.027 H 
ATOM     37  H23 DAO d          -3.989  17.672  15.196  0.00  0.00     0.027 H 
ENDBRANCH  31  34
ENDBRANCH  28  31
ENDBRANCH  25  28
ENDBRANCH  22  25
ENDBRANCH   1  22
TORSDOF 11
ENDMDL
MODEL 5
REMARK VINA RESULT:      -5.5      3.682      7.539
REMARK  11 active torsions:
REMARK  status: ('A' for Active; 'I' for Inactive)
REMARK    1  A    between atoms: C1_3  and  C2_4 
REMARK    2  A    between atoms: C2_4  and  C3_5 
REMARK    3  A    between atoms: C3_5  and  C4_6 
REMARK    4  A    between atoms: C4_6  and  C5_7 
REMARK    5  A    between atoms: C5_7  and  C6_8 
REMARK    6  A    between atoms: C6_8  and  C7_9 
REMARK    7  A    between atoms: C7_9  and  C8_10 
REMARK    8  A    between atoms: C8_10  and  C9_11 
REMARK    9  A    between atoms: C9_11  and  C10_12 
REMARK   10  A    between atoms: C10_12  and  C11_13 
REMARK   11  A    between atoms: C11_13  and  C12_14 
ROOT
ATOM      1  C7  DAO d          -1.851  10.618  19.120  0.00  0.00    -0.065 C 
ATOM      2  H11 DAO d          -2.721  10.274  19.699  0.00  0.00     0.033 H 
ATOM      3  H12 DAO d          -0.946  10.106  19.477  0.00  0.00     0.033 H 
ENDROOT
BRANCH   1   4
ATOM      4  C6  DAO d          -1.681  12.125  19.339  0.00  0.00    -0.065 C 
ATOM      5  H9  DAO d          -2.089  12.402  20.322  0.00  0.00     0.033 H 
ATOM      6  H10 DAO d          -0.613  12.383  19.299  0.00  0.00     0.033 H 
BRANCH   4   7
ATOM      7  C5  DAO d          -2.427  12.879  18.248  0.00  0.00    -0.065 C 
ATOM      8  H7  DAO d          -2.175  12.428  17.278  0.00  0.00     0.033 H 
ATOM      9  H8  DAO d          -3.507  12.777  18.431  0.00  0.00     0.033 H 
BRANCH   7  10
ATOM     10  C4  DAO d          -2.085  14.365  18.194  0.00  0.00    -0.065 C 
ATOM     11  H5  DAO d          -1.921  14.729  19.220  0.00  0.00     0.033 H 
ATOM     12  H6  DAO d          -1.163  14.496  17.608  0.00  0.00     0.033 H 
BRANCH  10  13
ATOM     13  C3  DAO d          -3.205  15.192  17.548  0.00  0.00    -0.056 C 
ATOM     14  H3  DAO d          -3.473  14.733  16.584  0.00  0.00     0.033 H 
ATOM     15  H4  DAO d          -4.081  15.184  18.214  0.00  0.00     0.033 H 
BRANCH  13  16
ATOM     16  C2  DAO d          -2.786  16.645  17.302  0.00  0.00     0.016 C 
ATOM     17  H1  DAO d          -2.506  17.094  18.267  0.00  0.00     0.049 H 
ATOM     18  H2  DAO d          -1.914  16.648  16.631  0.00  0.00     0.049 H 
BRANCH  16  19
ATOM     19  C1  DAO d          -3.884  17.496  16.673  0.00  0.00     0.172 C 
ATOM     20  O1  DAO d          -5.087  17.162  16.819  0.00  0.00    -0.648 OA
ATOM     21  O2  DAO d          -3.587  18.526  16.027  0.00  0.00    -0.648 OA
ENDBRANCH  16  19
ENDBRANCH  13  16
ENDBRANCH  10  13
ENDBRANCH   7  10
ENDBRANCH   4   7
ENDBRANCH   1   4
BRANCH   1  22
ATOM     22  C8  DAO d          -2.068  10.259  17.653  0.00  0.00    -0.065 C 
ATOM     23  H13 DAO d          -1.397  10.873  17.035  0.00  0.00     0.033 H 
ATOM     24  H14 DAO d          -3.113  10.475  17.386  0.00  0.00     0.033 H 
BRANCH  22  25
ATOM     25  C9  DAO d          -1.786   8.796  17.378  0.00  0.00    -0.065 C 
ATOM     26  H15 DAO d          -0.758   8.705  16.994  0.00  0.00     0.033 H 
ATOM     27  H16 DAO d          -2.495   8.441  16.616  0.00  0.00     0.033 H 
BRANCH  25  28
ATOM     28  C10 DAO d          -1.920   7.910  18.618  0.00  0.00    -0.065 C 
ATOM     29  H17 DAO d          -2.931   8.028  19.035  0.00  0.00     0.033 H 
ATOM     30  H18 DAO d          -1.176   8.221  19.365  0.00  0.00     0.033 H 
BRANCH  28  31
ATOM     31  C11 DAO d          -1.694   6.452  18.274  0.00  0.00    -0.069 C 
ATOM     32  H19 DAO d          -2.095   5.822  19.082  0.00  0.00     0.032 H 
ATOM     33  H20 DAO d          -0.616   6.268  18.164  0.00  0.00     0.032 H 
BRANCH  31  34
ATOM     34  C12 DAO d          -2.392   6.110  16.981  0.00  0.00    -0.077 C 
ATOM     35  H21 DAO d          -1.729   6.339  16.134  0.00  0.00     0.027 H 
ATOM     36  H22 DAO d          -3.315   6.704  16.893  0.00  0.00     0.027 H 
ATOM     37  H23 DAO d          -2.643   5.039  16.972  0.00  0.00     0.027 H 
ENDBRANCH  31  34
ENDBRANCH  28  31
ENDBRANCH  25  28
ENDBRANCH  22  25
ENDBRANCH   1  22
TORSDOF 11
ENDMDL
MODEL 6
REMARK VINA RESULT:      -5.3      1.859      2.707
REMARK  11 active torsions:
REMARK  status: ('A' for Active; 'I' for Inactive)
REMARK    1  A    between atoms: C1_3  and  C2_4 
REMARK    2  A    between atoms: C2_4  and  C3_5 
REMARK    3  A    between atoms: C3_5  and  C4_6 
REMARK    4  A    between atoms: C4_6  and  C5_7 
REMARK    5  A    between atoms: C5_7  and  C6_8 
REMARK    6  A    between atoms: C6_8  and  C7_9 
REMARK    7  A    between atoms: C7_9  and  C8_10 
REMARK    8  A    between atoms: C8_10  and  C9_11 
REMARK    9  A    between atoms: C9_11  and  C10_12 
REMARK   10  A    between atoms: C10_12  and  C11_13 
REMARK   11  A    between atoms: C11_13  and  C12_14 
ROOT
ATOM      1  C7  DAO d          -3.133  11.744  18.657  0.00  0.00    -0.065 C 
ATOM      2  H11 DAO d          -2.457  12.353  19.274  0.00  0.00     0.033 H 
ATOM      3  H12 DAO d          -3.981  11.402  19.268  0.00  0.00     0.033 H 
ENDROOT
BRANCH   1   4
ATOM      4  C6  DAO d          -2.366  10.517  18.153  0.00  0.00    -0.065 C 
ATOM      5  H9  DAO d          -3.010   9.930  17.482  0.00  0.00     0.033 H 
ATOM      6  H10 DAO d          -1.469  10.844  17.607  0.00  0.00     0.033 H 
BRANCH   4   7
ATOM      7  C5  DAO d          -1.954   9.659  19.340  0.00  0.00    -0.065 C 
ATOM      8  H7  DAO d          -0.901   9.871  19.574  0.00  0.00     0.033 H 
ATOM      9  H8  DAO d          -2.583   9.930  20.201  0.00  0.00     0.033 H 
BRANCH   7  10
ATOM     10  C4  DAO d          -2.101   8.161  19.087  0.00  0.00    -0.065 C 
ATOM     11  H5  DAO d          -1.342   7.625  19.677  0.00  0.00     0.033 H 
ATOM     12  H6  DAO d          -3.104   7.844  19.406  0.00  0.00     0.033 H 
BRANCH  10  13
ATOM     13  C3  DAO d          -1.917   7.807  17.604  0.00  0.00    -0.056 C 
ATOM     14  H3  DAO d          -2.186   8.682  16.994  0.00  0.00     0.033 H 
ATOM     15  H4  DAO d          -0.861   7.550  17.429  0.00  0.00     0.033 H 
BRANCH  13  16
ATOM     16  C2  DAO d          -2.790   6.622  17.179  0.00  0.00     0.016 C 
ATOM     17  H1  DAO d          -3.535   6.438  17.966  0.00  0.00     0.049 H 
ATOM     18  H2  DAO d          -3.304   6.886  16.242  0.00  0.00     0.049 H 
BRANCH  16  19
ATOM     19  C1  DAO d          -2.000   5.337  16.950  0.00  0.00     0.172 C 
ATOM     20  O1  DAO d          -2.116   4.725  15.858  0.00  0.00    -0.648 OA
ATOM     21  O2  DAO d          -1.234   4.906  17.841  0.00  0.00    -0.648 OA
ENDBRANCH  16  19
ENDBRANCH  13  16
ENDBRANCH  10  13
ENDBRANCH   7  10
ENDBRANCH   4   7
ENDBRANCH   1   4
BRANCH   1  22
ATOM     22  C8  DAO d          -3.668  12.608  17.520  0.00  0.00    -0.065 C 
ATOM     23  H13 DAO d          -4.766  12.552  17.517  0.00  0.00     0.033 H 
ATOM     24  H14 DAO d          -3.279  12.221  16.566  0.00  0.00     0.033 H 
BRANCH  22  25
ATOM     25  C9  DAO d          -3.253  14.058  17.664  0.00  0.00    -0.065 C 
ATOM     26  H15 DAO d          -3.971  14.563  18.328  0.00  0.00     0.033 H 
ATOM     27  H16 DAO d          -3.278  14.529  16.671  0.00  0.00     0.033 H 
BRANCH  25  28
ATOM     28  C10 DAO d          -1.850  14.231  18.248  0.00  0.00    -0.065 C 
ATOM     29  H17 DAO d          -1.121  13.746  17.582  0.00  0.00     0.033 H 
ATOM     30  H18 DAO d          -1.812  13.757  19.240  0.00  0.00     0.033 H 
BRANCH  28  31
ATOM     31  C11 DAO d          -1.493  15.696  18.388  0.00  0.00    -0.069 C 
ATOM     32  H19 DAO d          -0.535  15.888  17.881  0.00  0.00     0.032 H 
ATOM     33  H20 DAO d          -1.401  15.948  19.454  0.00  0.00     0.032 H 
BRANCH  31  34
ATOM     34  C12 DAO d          -2.568  16.553  17.764  0.00  0.00    -0.077 C 
ATOM     35  H21 DAO d          -2.787  16.186  16.751  0.00  0.00     0.027 H 
ATOM     36  H22 DAO d          -2.219  17.596  17.709  0.00  0.00     0.027 H 
ATOM     37  H23 DAO d          -3.479  16.503  18.378  0.00  0.00     0.027 H 
ENDBRANCH  31  34
ENDBRANCH  28  31
ENDBRANCH  25  28
ENDBRANCH  22  25
ENDBRANCH   1  22
TORSDOF 11
ENDMDL
MODEL 7
REMARK VINA RESULT:      -4.6      1.552      1.906
REMARK  11 active torsions:
REMARK  status: ('A' for Active; 'I' for Inactive)
REMARK    1  A    between atoms: C1_3  and  C2_4 
REMARK    2  A    between atoms: C2_4  and  C3_5 
REMARK    3  A    between atoms: C3_5  and  C4_6 
REMARK    4  A    between atoms: C4_6  and  C5_7 
REMARK    5  A    between atoms: C5_7  and  C6_8 
REMARK    6  A    between atoms: C6_8  and  C7_9 
REMARK    7  A    between atoms: C7_9  and  C8_10 
REMARK    8  A    between atoms: C8_10  and  C9_11 
REMARK    9  A    between atoms: C9_11  and  C10_12 
REMARK   10  A    between atoms: C10_12  and  C11_13 
REMARK   11  A    between atoms: C11_13  and  C12_14 
ROOT
ATOM      1  C7  DAO d          -3.372  14.019  17.774  0.00  0.00    -0.065 C 
ATOM      2  H11 DAO d          -3.531  14.045  18.862  0.00  0.00     0.033 H 
ATOM      3  H12 DAO d          -4.209  14.523  17.269  0.00  0.00     0.033 H 
ENDROOT
BRANCH   1   4
ATOM      4  C6  DAO d          -3.332  12.557  17.319  0.00  0.00    -0.065 C 
ATOM      5  H9  DAO d          -4.359  12.179  17.206  0.00  0.00     0.033 H 
ATOM      6  H10 DAO d          -2.808  12.487  16.355  0.00  0.00     0.033 H 
BRANCH   4   7
ATOM      7  C5  DAO d          -2.596  11.726  18.359  0.00  0.00    -0.065 C 
ATOM      8  H7  DAO d          -1.679  11.328  17.901  0.00  0.00     0.033 H 
ATOM      9  H8  DAO d          -2.332  12.379  19.203  0.00  0.00     0.033 H 
BRANCH   7  10
ATOM     10  C4  DAO d          -3.417  10.555  18.892  0.00  0.00    -0.065 C 
ATOM     11  H5  DAO d          -3.749  10.790  19.915  0.00  0.00     0.033 H 
ATOM     12  H6  DAO d          -4.296  10.414  18.246  0.00  0.00     0.033 H 
BRANCH  10  13
ATOM     13  C3  DAO d          -2.609   9.250  18.921  0.00  0.00    -0.056 C 
ATOM     14  H3  DAO d          -2.801   8.693  17.992  0.00  0.00     0.033 H 
ATOM     15  H4  DAO d          -1.538   9.497  18.986  0.00  0.00     0.033 H 
BRANCH  13  16
ATOM     16  C2  DAO d          -2.982   8.363  20.114  0.00  0.00     0.016 C 
ATOM     17  H1  DAO d          -2.488   8.761  21.012  0.00  0.00     0.049 H 
ATOM     18  H2  DAO d          -4.074   8.402  20.249  0.00  0.00     0.049 H 
BRANCH  16  19
ATOM     19  C1  DAO d          -2.569   6.905  19.939  0.00  0.00     0.172 C 
ATOM     20  O1  DAO d          -3.440   6.001  20.005  0.00  0.00    -0.648 OA
ATOM     21  O2  DAO d          -1.371   6.615  19.719  0.00  0.00    -0.648 OA
ENDBRANCH  16  19
ENDBRANCH  13  16
ENDBRANCH  10  13
ENDBRANCH   7  10
ENDBRANCH   4   7
ENDBRANCH   1   4
BRANCH   1  22
ATOM     22  C8  DAO d          -2.084  14.769  17.451  0.00  0.00    -0.065 C 
ATOM     23  H13 DAO d          -2.059  14.984  16.373  0.00  0.00     0.033 H 
ATOM     24  H14 DAO d          -1.227  14.134  17.718  0.00  0.00     0.033 H 
BRANCH  22  25
ATOM     25  C9  DAO d          -1.980  16.075  18.212  0.00  0.00    -0.065 C 
ATOM     26  H15 DAO d          -0.920  16.364  18.269  0.00  0.00     0.033 H 
ATOM     27  H16 DAO d          -2.373  15.919  19.228  0.00  0.00     0.033 H 
BRANCH  25  28
ATOM     28  C10 DAO d          -2.760  17.219  17.561  0.00  0.00    -0.065 C 
ATOM     29  H17 DAO d          -2.179  17.613  16.714  0.00  0.00     0.033 H 
ATOM     30  H18 DAO d          -2.914  18.017  18.303  0.00  0.00     0.033 H 
BRANCH  28  31
ATOM     31  C11 DAO d          -4.108  16.745  17.059  0.00  0.00    -0.069 C 
ATOM     32  H19 DAO d          -4.895  17.104  17.739  0.00  0.00     0.032 H 
ATOM     33  H20 DAO d          -4.119  15.646  17.031  0.00  0.00     0.032 H 
BRANCH  31  34
ATOM     34  C12 DAO d          -4.363  17.282  15.672  0.00  0.00    -0.077 C 
ATOM     35  H21 DAO d          -3.719  16.757  14.951  0.00  0.00     0.027 H 
ATOM     36  H22 DAO d          -4.137  18.359  15.648  0.00  0.00     0.027 H 
ATOM     37  H23 DAO d          -5.418  17.123  15.406  0.00  0.00     0.027 H 
ENDBRANCH  31  34
ENDBRANCH  28  31
ENDBRANCH  25  28
ENDBRANCH  22  25
ENDBRANCH   1  22
TORSDOF 11
ENDMDL
MODEL 8
REMARK VINA RESULT:      -4.5      3.384      7.693
REMARK  11 active torsions:
REMARK  status: ('A' for Active; 'I' for Inactive)
REMARK    1  A    between atoms: C1_3  and  C2_4 
REMARK    2  A    between atoms: C2_4  and  C3_5 
REMARK    3  A    between atoms: C3_5  and  C4_6 
REMARK    4  A    between atoms: C4_6  and  C5_7 
REMARK    5  A    between atoms: C5_7  and  C6_8 
REMARK    6  A    between atoms: C6_8  and  C7_9 
REMARK    7  A    between atoms: C7_9  and  C8_10 
REMARK    8  A    between atoms: C8_10  and  C9_11 
REMARK    9  A    between atoms: C9_11  and  C10_12 
REMARK   10  A    between atoms: C10_12  and  C11_13 
REMARK   11  A    between atoms: C11_13  and  C12_14 
ROOT
ATOM      1  C7  DAO d          -1.800   9.144  18.413  0.00  0.00    -0.065 C 
ATOM      2  H11 DAO d          -2.420   8.955  19.302  0.00  0.00     0.033 H 
ATOM      3  H12 DAO d          -0.743   9.200  18.709  0.00  0.00     0.033 H 
ENDROOT
BRANCH   1   4
ATOM      4  C6  DAO d          -2.212  10.488  17.805  0.00  0.00    -0.065 C 
ATOM      5  H9  DAO d          -1.373  10.902  17.225  0.00  0.00     0.033 H 
ATOM      6  H10 DAO d          -3.078  10.342  17.143  0.00  0.00     0.033 H 
BRANCH   4   7
ATOM      7  C5  DAO d          -2.583  11.453  18.921  0.00  0.00    -0.065 C 
ATOM      8  H7  DAO d          -3.666  11.637  18.876  0.00  0.00     0.033 H 
ATOM      9  H8  DAO d          -2.330  10.986  19.884  0.00  0.00     0.033 H 
BRANCH   7  10
ATOM     10  C4  DAO d          -1.860  12.794  18.829  0.00  0.00    -0.065 C 
ATOM     11  H5  DAO d          -1.773  13.220  19.840  0.00  0.00     0.033 H 
ATOM     12  H6  DAO d          -0.855  12.628  18.414  0.00  0.00     0.033 H 
BRANCH  10  13
ATOM     13  C3  DAO d          -2.608  13.792  17.933  0.00  0.00    -0.056 C 
ATOM     14  H3  DAO d          -2.522  13.461  16.887  0.00  0.00     0.033 H 
ATOM     15  H4  DAO d          -3.668  13.807  18.227  0.00  0.00     0.033 H 
BRANCH  13  16
ATOM     16  C2  DAO d          -2.043  15.211  18.049  0.00  0.00     0.016 C 
ATOM     17  H1  DAO d          -1.898  15.443  19.115  0.00  0.00     0.049 H 
ATOM     18  H2  DAO d          -1.071  15.244  17.532  0.00  0.00     0.049 H 
BRANCH  16  19
ATOM     19  C1  DAO d          -2.949  16.277  17.441  0.00  0.00     0.172 C 
ATOM     20  O1  DAO d          -2.877  17.462  17.855  0.00  0.00    -0.648 OA
ATOM     21  O2  DAO d          -3.749  15.973  16.528  0.00  0.00    -0.648 OA
ENDBRANCH  16  19
ENDBRANCH  13  16
ENDBRANCH  10  13
ENDBRANCH   7  10
ENDBRANCH   4   7
ENDBRANCH   1   4
BRANCH   1  22
ATOM     22  C8  DAO d          -1.974   7.982  17.440  0.00  0.00    -0.065 C 
ATOM     23  H13 DAO d          -1.013   7.459  17.336  0.00  0.00     0.033 H 
ATOM     24  H14 DAO d          -2.282   8.381  16.463  0.00  0.00     0.033 H 
BRANCH  22  25
ATOM     25  C9  DAO d          -3.019   6.993  17.916  0.00  0.00    -0.065 C 
ATOM     26  H15 DAO d          -3.875   7.030  17.225  0.00  0.00     0.033 H 
ATOM     27  H16 DAO d          -3.348   7.291  18.923  0.00  0.00     0.033 H 
BRANCH  25  28
ATOM     28  C10 DAO d          -2.507   5.553  17.979  0.00  0.00    -0.065 C 
ATOM     29  H17 DAO d          -1.477   5.522  17.595  0.00  0.00     0.033 H 
ATOM     30  H18 DAO d          -3.151   4.916  17.355  0.00  0.00     0.033 H 
BRANCH  28  31
ATOM     31  C11 DAO d          -2.523   5.030  19.400  0.00  0.00    -0.069 C 
ATOM     32  H19 DAO d          -1.534   4.614  19.645  0.00  0.00     0.032 H 
ATOM     33  H20 DAO d          -3.284   4.242  19.489  0.00  0.00     0.032 H 
BRANCH  31  34
ATOM     34  C12 DAO d          -2.847   6.148  20.361  0.00  0.00    -0.077 C 
ATOM     35  H21 DAO d          -3.858   6.000  20.767  0.00  0.00     0.027 H 
ATOM     36  H22 DAO d          -2.801   7.111  19.832  0.00  0.00     0.027 H 
ATOM     37  H23 DAO d          -2.117   6.146  21.184  0.00  0.00     0.027 H 
ENDBRANCH  31  34
ENDBRANCH  28  31
ENDBRANCH  25  28
ENDBRANCH  22  25
ENDBRANCH   1  22
TORSDOF 11
ENDMDL
MODEL 9
REMARK VINA RESULT:      -3.7      3.442      7.855
REMARK  11 active torsions:
REMARK  status: ('A' for Active; 'I' for Inactive)
REMARK    1  A    between atoms: C1_3  and  C2_4 
REMARK    2  A    between atoms: C2_4  and  C3_5 
REMARK    3  A    between atoms: C3_5  and  C4_6 
REMARK    4  A    between atoms: C4_6  and  C5_7 
REMARK    5  A    between atoms: C5_7  and  C6_8 
REMARK    6  A    between atoms: C6_8  and  C7_9 
REMARK    7  A    between atoms: C7_9  and  C8_10 
REMARK    8  A    between atoms: C8_10  and  C9_11 
REMARK    9  A    between atoms: C9_11  and  C10_12 
REMARK   10  A    between atoms: C10_12  and  C11_13 
REMARK   11  A    between atoms: C11_13  and  C12_14 
ROOT
ATOM      1  C7  DAO d          -1.951   5.696  17.172  0.00  0.00    -0.065 C 
ATOM      2  H11 DAO d          -1.196   5.700  17.971  0.00  0.00     0.033 H 
ATOM      3  H12 DAO d          -1.461   5.518  16.204  0.00  0.00     0.033 H 
ENDROOT
BRANCH   1   4
ATOM      4  C6  DAO d          -2.632   7.068  17.133  0.00  0.00    -0.065 C 
ATOM      5  H9  DAO d          -2.811   7.360  16.088  0.00  0.00     0.033 H 
ATOM      6  H10 DAO d          -3.591   7.017  17.668  0.00  0.00     0.033 H 
BRANCH   4   7
ATOM      7  C5  DAO d          -1.731   8.095  17.801  0.00  0.00    -0.065 C 
ATOM      8  H7  DAO d          -1.928   8.080  18.883  0.00  0.00     0.033 H 
ATOM      9  H8  DAO d          -0.684   7.814  17.615  0.00  0.00     0.033 H 
BRANCH   7  10
ATOM     10  C4  DAO d          -1.948   9.517  17.290  0.00  0.00    -0.065 C 
ATOM     11  H5  DAO d          -1.489   9.610  16.294  0.00  0.00     0.033 H 
ATOM     12  H6  DAO d          -3.029   9.705  17.213  0.00  0.00     0.033 H 
BRANCH  10  13
ATOM     13  C3  DAO d          -1.327  10.566  18.223  0.00  0.00    -0.056 C 
ATOM     14  H3  DAO d          -0.510  10.096  18.791  0.00  0.00     0.033 H 
ATOM     15  H4  DAO d          -0.923  11.388  17.613  0.00  0.00     0.033 H 
BRANCH  13  16
ATOM     16  C2  DAO d          -2.348  11.141  19.210  0.00  0.00     0.016 C 
ATOM     17  H1  DAO d          -2.636  10.347  19.915  0.00  0.00     0.049 H 
ATOM     18  H2  DAO d          -1.873  11.966  19.762  0.00  0.00     0.049 H 
BRANCH  16  19
ATOM     19  C1  DAO d          -3.610  11.672  18.538  0.00  0.00     0.172 C 
ATOM     20  O1  DAO d          -4.718  11.133  18.786  0.00  0.00    -0.648 OA
ATOM     21  O2  DAO d          -3.541  12.646  17.755  0.00  0.00    -0.648 OA
ENDBRANCH  16  19
ENDBRANCH  13  16
ENDBRANCH  10  13
ENDBRANCH   7  10
ENDBRANCH   4   7
ENDBRANCH   1   4
BRANCH   1  22
ATOM     22  C8  DAO d          -2.935   4.560  17.437  0.00  0.00    -0.065 C 
ATOM     23  H13 DAO d          -2.377   3.686  17.803  0.00  0.00     0.033 H 
ATOM     24  H14 DAO d          -3.442   4.303  16.495  0.00  0.00     0.033 H 
BRANCH  22  25
ATOM     25  C9  DAO d          -3.979   4.941  18.466  0.00  0.00    -0.065 C 
ATOM     26  H15 DAO d          -4.954   4.554  18.135  0.00  0.00     0.033 H 
ATOM     27  H16 DAO d          -4.023   6.038  18.530  0.00  0.00     0.033 H 
BRANCH  25  28
ATOM     28  C10 DAO d          -3.686   4.386  19.861  0.00  0.00    -0.065 C 
ATOM     29  H17 DAO d          -3.202   3.403  19.762  0.00  0.00     0.033 H 
ATOM     30  H18 DAO d          -4.632   4.274  20.410  0.00  0.00     0.033 H 
BRANCH  28  31
ATOM     31  C11 DAO d          -2.771   5.311  20.636  0.00  0.00    -0.069 C 
ATOM     32  H19 DAO d          -3.227   5.540  21.611  0.00  0.00     0.032 H 
ATOM     33  H20 DAO d          -2.632   6.243  20.069  0.00  0.00     0.032 H 
BRANCH  31  34
ATOM     34  C12 DAO d          -1.430   4.654  20.853  0.00  0.00    -0.077 C 
ATOM     35  H21 DAO d          -1.539   3.562  20.771  0.00  0.00     0.027 H 
ATOM     36  H22 DAO d          -1.054   4.910  21.855  0.00  0.00     0.027 H 
ATOM     37  H23 DAO d          -0.721   5.010  20.092  0.00  0.00     0.027 H 
ENDBRANCH  31  34
ENDBRANCH  28  31
ENDBRANCH  25  28
ENDBRANCH  22  25
ENDBRANCH   1  22
TORSDOF 11
ENDMDL
MODEL 10
REMARK VINA RESULT:      -3.5      1.631      2.359
REMARK  11 active torsions:
REMARK  status: ('A' for Active; 'I' for Inactive)
REMARK    1  A    between atoms: C1_3  and  C2_4 
REMARK    2  A    between atoms: C2_4  and  C3_5 
REMARK    3  A    between atoms: C3_5  and  C4_6 
REMARK    4  A    between atoms: C4_6  and  C5_7 
REMARK    5  A    between atoms: C5_7  and  C6_8 
REMARK    6  A    between atoms: C6_8  and  C7_9 
REMARK    7  A    between atoms: C7_9  and  C8_10 
REMARK    8  A    between atoms: C8_10  and  C9_11 
REMARK    9  A    between atoms: C9_11  and  C10_12 
REMARK   10  A    between atoms: C10_12  and  C11_13 
REMARK   11  A    between atoms: C11_13  and  C12_14 
ROOT
ATOM      1  C7  DAO d          -3.642  13.402  16.330  0.00  0.00    -0.065 C 
ATOM      2  H11 DAO d          -4.642  13.178  15.931  0.00  0.00     0.033 H 
ATOM      3  H12 DAO d          -2.929  12.641  15.982  0.00  0.00     0.033 H 
ENDROOT
BRANCH   1   4
ATOM      4  C6  DAO d          -3.703  13.355  17.860  0.00  0.00    -0.065 C 
ATOM      5  H9  DAO d          -2.969  14.059  18.279  0.00  0.00     0.033 H 
ATOM      6  H10 DAO d          -4.712  13.634  18.196  0.00  0.00     0.033 H 
BRANCH   4   7
ATOM      7  C5  DAO d          -3.382  11.945  18.333  0.00  0.00    -0.065 C 
ATOM      8  H7  DAO d          -2.740  12.014  19.223  0.00  0.00     0.033 H 
ATOM      9  H8  DAO d          -4.324  11.444  18.598  0.00  0.00     0.033 H 
BRANCH   7  10
ATOM     10  C4  DAO d          -2.664  11.101  17.284  0.00  0.00    -0.065 C 
ATOM     11  H5  DAO d          -3.414  10.549  16.698  0.00  0.00     0.033 H 
ATOM     12  H6  DAO d          -2.098  11.769  16.618  0.00  0.00     0.033 H 
BRANCH  10  13
ATOM     13  C3  DAO d          -1.692  10.096  17.919  0.00  0.00    -0.056 C 
ATOM     14  H3  DAO d          -0.707  10.203  17.440  0.00  0.00     0.033 H 
ATOM     15  H4  DAO d          -1.604  10.318  18.993  0.00  0.00     0.033 H 
BRANCH  13  16
ATOM     16  C2  DAO d          -2.166   8.648  17.753  0.00  0.00     0.016 C 
ATOM     17  H1  DAO d          -2.932   8.620  16.964  0.00  0.00     0.049 H 
ATOM     18  H2  DAO d          -1.306   8.032  17.450  0.00  0.00     0.049 H 
BRANCH  16  19
ATOM     19  C1  DAO d          -2.761   8.054  19.026  0.00  0.00     0.172 C 
ATOM     20  O1  DAO d          -2.852   6.806  19.144  0.00  0.00    -0.648 OA
ATOM     21  O2  DAO d          -3.142   8.807  19.950  0.00  0.00    -0.648 OA
ENDBRANCH  16  19
ENDBRANCH  13  16
ENDBRANCH  10  13
ENDBRANCH   7  10
ENDBRANCH   4   7
ENDBRANCH   1   4
BRANCH   1  22
ATOM     22  C8  DAO d          -3.200  14.763  15.802  0.00  0.00    -0.065 C 
ATOM     23  H13 DAO d          -3.221  14.741  14.703  0.00  0.00     0.033 H 
ATOM     24  H14 DAO d          -2.173  14.960  16.145  0.00  0.00     0.033 H 
BRANCH  22  25
ATOM     25  C9  DAO d          -4.100  15.881  16.287  0.00  0.00    -0.065 C 
ATOM     26  H15 DAO d          -5.112  15.474  16.437  0.00  0.00     0.033 H 
ATOM     27  H16 DAO d          -4.130  16.664  15.516  0.00  0.00     0.033 H 
BRANCH  25  28
ATOM     28  C10 DAO d          -3.631  16.510  17.600  0.00  0.00    -0.065 C 
ATOM     29  H17 DAO d          -3.857  15.823  18.428  0.00  0.00     0.033 H 
ATOM     30  H18 DAO d          -4.166  17.459  17.755  0.00  0.00     0.033 H 
BRANCH  28  31
ATOM     31  C11 DAO d          -2.142  16.782  17.574  0.00  0.00    -0.069 C 
ATOM     32  H19 DAO d          -1.961  17.843  17.801  0.00  0.00     0.032 H 
ATOM     33  H20 DAO d          -1.747  16.549  16.574  0.00  0.00     0.032 H 
BRANCH  31  34
ATOM     34  C12 DAO d          -1.440  15.925  18.598  0.00  0.00    -0.077 C 
ATOM     35  H21 DAO d          -1.893  14.923  18.611  0.00  0.00     0.027 H 
ATOM     36  H22 DAO d          -1.541  16.385  19.593  0.00  0.00     0.027 H 
ATOM     37  H23 DAO d          -0.374  15.842  18.339  0.00  0.00     0.027 H 
ENDBRANCH  31  34
ENDBRANCH  28  31
ENDBRANCH  25  28
ENDBRANCH  22  25
ENDBRANCH   1  22
TORSDOF 11
ENDMDL
