MODEL 1
REMARK VINA RESULT:      -8.8      0.000      0.000
REMARK  3 active torsions:
REMARK  status: ('A' for Active; 'I' for Inactive)
REMARK    1  A    between atoms: C2_2  and  C22_10 
REMARK    2  A    between atoms: C6_6  and  N1_12 
REMARK    3  A    between atoms: C22_10  and  O22_9 
ROOT
ATOM      1  C1  HNT d          28.063  45.451  18.418  0.00  0.00    -0.012 C 
ATOM      2  C2  HNT d          27.488  44.712  19.627  0.00  0.00     0.126 C 
ATOM      3  C4  HNT d          27.135  42.584  18.487  0.00  0.00     0.106 C 
ATOM      4  C5  HNT d          26.818  42.755  16.004  0.00  0.00    -0.043 A 
ATOM      5  C6  HNT d          26.849  43.435  14.792  0.00  0.00     0.103 A 
ATOM      6  C7  HNT d          27.267  44.762  14.766  0.00  0.00    -0.050 A 
ATOM      7  C8  HNT d          27.656  45.397  15.942  0.00  0.00    -0.074 A 
ATOM      8  C8A HNT d          27.627  44.711  17.151  0.00  0.00    -0.048 A 
ATOM      9  C4A HNT d          27.205  43.385  17.185  0.00  0.00    -0.024 A 
ATOM     10  N41 HNT d          27.847  43.286  19.570  0.00  0.00    -0.065 N 
ATOM     11  H1  HNT d          29.161  45.468  18.480  0.00  0.00     0.043 H 
ATOM     12  H2  HNT d          27.682  46.482  18.396  0.00  0.00     0.043 H 
ATOM     13  H3  HNT d          26.391  44.789  19.588  0.00  0.00     0.088 H 
ATOM     14  H4  HNT d          27.599  41.599  18.331  0.00  0.00     0.083 H 
ATOM     15  H5  HNT d          26.082  42.453  18.774  0.00  0.00     0.083 H 
ATOM     16  H6  HNT d          26.489  41.722  16.030  0.00  0.00     0.088 H 
ATOM     17  H7  HNT d          27.290  45.304  13.826  0.00  0.00     0.087 H 
ATOM     18  H8  HNT d          27.983  46.430  15.915  0.00  0.00     0.084 H 
ATOM     19  H12 HNT d          27.609  42.855  20.450  0.00  0.00     0.278 HD
ATOM     20  H13 HNT d          28.839  43.205  19.413  0.00  0.00     0.278 HD
ENDROOT
BRANCH   2  21
ATOM     21  C22 HNT d          27.961  45.362  20.930  0.00  0.00     0.044 C 
ATOM     22  H10 HNT d          28.027  46.452  20.794  0.00  0.00     0.077 H 
ATOM     23  H11 HNT d          28.951  44.965  21.200  0.00  0.00     0.077 H 
BRANCH  21  24
ATOM     24  O22 HNT d          27.029  45.068  21.973  0.00  0.00    -0.399 OA
ATOM     25  H9  HNT d          26.686  45.880  22.329  0.00  0.00     0.209 HD
ENDBRANCH  21  24
ENDBRANCH   2  21
BRANCH   5  26
ATOM     26  N1  HNT d          26.540  42.809  13.656  0.00  0.00    -0.116 N 
ATOM     27  O2  HNT d          26.121  43.544  12.515  0.00  0.00    -0.532 OA
ATOM     28  O3  HNT d          26.630  41.393  13.571  0.00  0.00    -0.532 OA
ENDBRANCH   5  26
TORSDOF 3
ENDMDL
MODEL 2
REMARK VINA RESULT:      -7.6      1.336      6.005
REMARK  3 active torsions:
REMARK  status: ('A' for Active; 'I' for Inactive)
REMARK    1  A    between atoms: C2_2  and  C22_10 
REMARK    2  A    between atoms: C6_6  and  N1_12 
REMARK    3  A    between atoms: C22_10  and  O22_9 
ROOT
ATOM      1  C1  HNT d          26.767  42.619  15.840  0.00  0.00    -0.012 C 
ATOM      2  C2  HNT d          26.487  43.542  14.653  0.00  0.00     0.126 C 
ATOM      3  C4  HNT d          27.698  45.468  15.532  0.00  0.00     0.106 C 
ATOM      4  C5  HNT d          27.885  45.549  18.033  0.00  0.00    -0.043 A 
ATOM      5  C6  HNT d          27.773  45.000  19.305  0.00  0.00     0.103 A 
ATOM      6  C7  HNT d          27.331  43.686  19.444  0.00  0.00    -0.050 A 
ATOM      7  C8  HNT d          27.013  42.933  18.318  0.00  0.00    -0.074 A 
ATOM      8  C8A HNT d          27.130  43.486  17.048  0.00  0.00    -0.048 A 
ATOM      9  C4A HNT d          27.566  44.800  16.902  0.00  0.00    -0.024 A 
ATOM     10  N41 HNT d          27.613  44.469  14.454  0.00  0.00    -0.065 N 
ATOM     11  H1  HNT d          27.603  41.946  15.600  0.00  0.00     0.043 H 
ATOM     12  H2  HNT d          25.871  42.022  16.067  0.00  0.00     0.043 H 
ATOM     13  H3  HNT d          25.592  44.138  14.884  0.00  0.00     0.088 H 
ATOM     14  H4  HNT d          28.670  45.981  15.472  0.00  0.00     0.083 H 
ATOM     15  H5  HNT d          26.888  46.202  15.409  0.00  0.00     0.083 H 
ATOM     16  H6  HNT d          28.224  46.573  17.920  0.00  0.00     0.088 H 
ATOM     17  H7  HNT d          27.236  43.250  20.432  0.00  0.00     0.087 H 
ATOM     18  H8  HNT d          26.672  41.910  18.432  0.00  0.00     0.084 H 
ATOM     19  H12 HNT d          27.489  44.947  13.574  0.00  0.00     0.278 HD
ATOM     20  H13 HNT d          28.470  43.940  14.431  0.00  0.00     0.278 HD
ENDROOT
BRANCH   2  21
ATOM     21  C22 HNT d          26.198  42.724  13.392  0.00  0.00     0.044 C 
ATOM     22  H10 HNT d          26.702  43.186  12.530  0.00  0.00     0.077 H 
ATOM     23  H11 HNT d          25.112  42.700  13.212  0.00  0.00     0.077 H 
BRANCH  21  24
ATOM     24  O22 HNT d          26.682  41.391  13.568  0.00  0.00    -0.399 OA
ATOM     25  H9  HNT d          27.359  41.386  14.234  0.00  0.00     0.209 HD
ENDBRANCH  21  24
ENDBRANCH   2  21
BRANCH   5  26
ATOM     26  N1  HNT d          28.141  45.698  20.380  0.00  0.00    -0.116 N 
ATOM     27  O2  HNT d          27.700  45.319  21.676  0.00  0.00    -0.532 OA
ATOM     28  O3  HNT d          28.985  46.833  20.242  0.00  0.00    -0.532 OA
ENDBRANCH   5  26
TORSDOF 3
ENDMDL
MODEL 3
REMARK VINA RESULT:      -7.2      1.598      5.696
REMARK  3 active torsions:
REMARK  status: ('A' for Active; 'I' for Inactive)
REMARK    1  A    between atoms: C2_2  and  C22_10 
REMARK    2  A    between atoms: C6_6  and  N1_12 
REMARK    3  A    between atoms: C22_10  and  O22_9 
ROOT
ATOM      1  C1  HNT d          26.960  43.589  15.232  0.00  0.00    -0.012 C 
ATOM      2  C2  HNT d          26.871  42.064  15.318  0.00  0.00     0.126 C 
ATOM      3  C4  HNT d          26.499  41.961  17.727  0.00  0.00     0.106 C 
ATOM      4  C5  HNT d          27.398  43.916  19.020  0.00  0.00    -0.043 A 
ATOM      5  C6  HNT d          27.936  45.193  19.125  0.00  0.00     0.103 A 
ATOM      6  C7  HNT d          28.157  45.937  17.970  0.00  0.00    -0.050 A 
ATOM      7  C8  HNT d          27.836  45.406  16.724  0.00  0.00    -0.074 A 
ATOM      8  C8A HNT d          27.295  44.130  16.624  0.00  0.00    -0.048 A 
ATOM      9  C4A HNT d          27.076  43.378  17.775  0.00  0.00    -0.024 A 
ATOM     10  N41 HNT d          25.948  41.668  16.393  0.00  0.00    -0.065 N 
ATOM     11  H1  HNT d          25.996  43.999  14.896  0.00  0.00     0.043 H 
ATOM     12  H2  HNT d          27.748  43.876  14.522  0.00  0.00     0.043 H 
ATOM     13  H3  HNT d          27.870  41.675  15.566  0.00  0.00     0.088 H 
ATOM     14  H4  HNT d          25.699  41.871  18.476  0.00  0.00     0.083 H 
ATOM     15  H5  HNT d          27.298  41.240  17.954  0.00  0.00     0.083 H 
ATOM     16  H6  HNT d          27.227  43.330  19.917  0.00  0.00     0.088 H 
ATOM     17  H7  HNT d          28.581  46.933  18.041  0.00  0.00     0.087 H 
ATOM     18  H8  HNT d          28.009  45.991  15.827  0.00  0.00     0.084 H 
ATOM     19  H12 HNT d          25.772  40.678  16.323  0.00  0.00     0.278 HD
ATOM     20  H13 HNT d          25.082  42.171  16.281  0.00  0.00     0.278 HD
ENDROOT
BRANCH   2  21
ATOM     21  C22 HNT d          26.456  41.472  13.969  0.00  0.00     0.044 C 
ATOM     22  H10 HNT d          25.359  41.443  13.902  0.00  0.00     0.077 H 
ATOM     23  H11 HNT d          26.856  40.451  13.878  0.00  0.00     0.077 H 
BRANCH  21  24
ATOM     24  O22 HNT d          26.977  42.283  12.913  0.00  0.00    -0.399 OA
ATOM     25  H9  HNT d          27.926  42.302  12.968  0.00  0.00     0.209 HD
ENDBRANCH  21  24
ENDBRANCH   2  21
BRANCH   5  26
ATOM     26  N1  HNT d          28.181  45.728  20.322  0.00  0.00    -0.116 N 
ATOM     27  O2  HNT d          27.740  45.082  21.508  0.00  0.00    -0.532 OA
ATOM     28  O3  HNT d          28.893  46.953  20.427  0.00  0.00    -0.532 OA
ENDBRANCH   5  26
TORSDOF 3
ENDMDL
