MODEL 1
REMARK VINA RESULT:      -9.7      0.000      0.000
REMARK  3 active torsions:
REMARK  status: ('A' for Active; 'I' for Inactive)
REMARK    1  A    between atoms: C1_1  and  O1_2 
REMARK    2  A    between atoms: C10_11  and  C11_12 
REMARK    3  A    between atoms: C14_15  and  C15_16 
ROOT
ATOM      1  C1  MOL d          23.243   7.006  10.983  0.00  0.00     0.066 A 
ATOM      2  C2  MOL d          23.146   5.637  10.714  0.00  0.00    -0.049 A 
ATOM      3  C3  MOL d          22.958   4.716  11.745  0.00  0.00    -0.054 A 
ATOM      4  C4  MOL d          22.869   5.181  13.056  0.00  0.00     0.044 A 
ATOM      5  C5  MOL d          22.967   6.537  13.304  0.00  0.00     0.006 A 
ATOM      6  C6  MOL d          23.153   7.477  12.293  0.00  0.00    -0.038 A 
ATOM      7  N7  MOL d          22.691   4.580  14.276  0.00  0.00    -0.354 N 
ATOM      8  C8  MOL d          22.667   5.482  15.313  0.00  0.00     0.051 A 
ATOM      9  C9  MOL d          22.838   6.734  14.752  0.00  0.00     0.011 A 
ATOM     10  C10 MOL d          22.513   5.367  16.691  0.00  0.00    -0.023 A 
ATOM     11  C12 MOL d          22.537   6.523  17.484  0.00  0.00    -0.011 A 
ATOM     12  C13 MOL d          22.716   7.798  16.905  0.00  0.00     0.036 A 
ATOM     13  C14 MOL d          22.869   7.912  15.507  0.00  0.00    -0.033 A 
ATOM     14  C16 MOL d          22.389   6.416  18.870  0.00  0.00    -0.057 A 
ATOM     15  C17 MOL d          22.413   7.561  19.663  0.00  0.00    -0.020 A 
ATOM     16  N18 MOL d          22.580   8.769  19.096  0.00  0.00    -0.344 N 
ATOM     17  C19 MOL d          22.730   8.916  17.765  0.00  0.00     0.190 A 
ATOM     18  O19 MOL d          22.892  10.181  17.282  0.00  0.00    -0.171 OA
ATOM     19  H2  MOL d          23.217   5.287   9.691  0.00  0.00     0.087 H 
ATOM     20  H3  MOL d          22.883   3.656  11.530  0.00  0.00     0.087 H 
ATOM     21  H4  MOL d          23.225   8.535  12.516  0.00  0.00     0.089 H 
ATOM     22  H5  MOL d          22.587   3.563  14.403  0.00  0.00     0.166 HD
ATOM     23  H12 MOL d          22.254   5.438  19.329  0.00  0.00     0.086 H 
ATOM     24  H13 MOL d          22.297   7.478  20.743  0.00  0.00     0.111 H 
ATOM     25  H14 MOL d          22.593   9.582  19.679  0.00  0.00     0.167 HD
ENDROOT
BRANCH  10  26
ATOM     26  C11 MOL d          22.326   3.997  17.302  0.00  0.00    -0.048 C 
ATOM     27  H6  MOL d          21.255   3.750  17.329  0.00  0.00     0.033 H 
ATOM     28  H7  MOL d          22.729   3.993  18.326  0.00  0.00     0.033 H 
ATOM     29  H8  MOL d          22.860   3.249  16.696  0.00  0.00     0.033 H 
ENDBRANCH  10  26
BRANCH  13  30
ATOM     30  C15 MOL d          23.066   9.248  14.820  0.00  0.00    -0.049 C 
ATOM     31  H9  MOL d          23.924   9.185  14.135  0.00  0.00     0.033 H 
ATOM     32  H10 MOL d          23.256  10.024  15.575  0.00  0.00     0.033 H 
ATOM     33  H11 MOL d          22.161   9.504  14.251  0.00  0.00     0.033 H 
ENDBRANCH  13  30
BRANCH   1  34
ATOM     34  O1  MOL d          23.425   7.886   9.955  0.00  0.00    -0.361 OA
ATOM     35  H1  MOL d          24.214   8.391  10.108  0.00  0.00     0.217 HD
ENDBRANCH   1  34
TORSDOF 3
ENDMDL
MODEL 2
REMARK VINA RESULT:      -9.7      2.064      5.661
REMARK  3 active torsions:
REMARK  status: ('A' for Active; 'I' for Inactive)
REMARK    1  A    between atoms: C1_1  and  O1_2 
REMARK    2  A    between atoms: C10_11  and  C11_12 
REMARK    3  A    between atoms: C14_15  and  C15_16 
ROOT
ATOM      1  C1  MOL d          22.342   5.892  18.790  0.00  0.00     0.066 A 
ATOM      2  C2  MOL d          22.251   4.497  18.811  0.00  0.00    -0.049 A 
ATOM      3  C3  MOL d          22.298   3.757  17.629  0.00  0.00    -0.054 A 
ATOM      4  C4  MOL d          22.438   4.431  16.418  0.00  0.00     0.044 A 
ATOM      5  C5  MOL d          22.526   5.811  16.414  0.00  0.00     0.006 A 
ATOM      6  C6  MOL d          22.483   6.572  17.579  0.00  0.00    -0.038 A 
ATOM      7  N7  MOL d          22.517   4.038  15.106  0.00  0.00    -0.354 N 
ATOM      8  C8  MOL d          22.656   5.099  14.243  0.00  0.00     0.051 A 
ATOM      9  C9  MOL d          22.666   6.243  15.019  0.00  0.00     0.011 A 
ATOM     10  C10 MOL d          22.778   5.211  12.861  0.00  0.00    -0.023 A 
ATOM     11  C12 MOL d          22.906   6.483  12.284  0.00  0.00    -0.011 A 
ATOM     12  C13 MOL d          22.913   7.647  13.083  0.00  0.00     0.036 A 
ATOM     13  C14 MOL d          22.792   7.529  14.483  0.00  0.00    -0.033 A 
ATOM     14  C16 MOL d          23.024   6.605  10.896  0.00  0.00    -0.057 A 
ATOM     15  C17 MOL d          23.151   7.866  10.317  0.00  0.00    -0.020 A 
ATOM     16  N18 MOL d          23.160   8.965  11.092  0.00  0.00    -0.344 N 
ATOM     17  C19 MOL d          23.045   8.891  12.432  0.00  0.00     0.190 A 
ATOM     18  O19 MOL d          23.066  10.060  13.135  0.00  0.00    -0.171 OA
ATOM     19  H2  MOL d          22.143   3.983  19.760  0.00  0.00     0.087 H 
ATOM     20  H3  MOL d          22.227   2.675  17.653  0.00  0.00     0.087 H 
ATOM     21  H4  MOL d          22.557   7.653  17.548  0.00  0.00     0.089 H 
ATOM     22  H5  MOL d          22.477   3.056  14.800  0.00  0.00     0.166 HD
ATOM     23  H12 MOL d          23.017   5.716  10.269  0.00  0.00     0.086 H 
ATOM     24  H13 MOL d          23.243   7.961   9.236  0.00  0.00     0.111 H 
ATOM     25  H14 MOL d          23.254   9.862  10.661  0.00  0.00     0.167 HD
ENDROOT
BRANCH  10  26
ATOM     26  C11 MOL d          22.765   3.959  12.014  0.00  0.00    -0.048 C 
ATOM     27  H6  MOL d          23.743   3.838  11.524  0.00  0.00     0.033 H 
ATOM     28  H7  MOL d          21.980   4.042  11.248  0.00  0.00     0.033 H 
ATOM     29  H8  MOL d          22.564   3.086  12.652  0.00  0.00     0.033 H 
ENDBRANCH  10  26
BRANCH  13  30
ATOM     30  C15 MOL d          22.790   8.736  15.400  0.00  0.00    -0.049 C 
ATOM     31  H9  MOL d          21.773   8.902  15.786  0.00  0.00     0.033 H 
ATOM     32  H10 MOL d          23.118   9.623  14.839  0.00  0.00     0.033 H 
ATOM     33  H11 MOL d          23.476   8.559  16.241  0.00  0.00     0.033 H 
ENDBRANCH  13  30
BRANCH   1  34
ATOM     34  O1  MOL d          22.296   6.591  19.961  0.00  0.00    -0.361 OA
ATOM     35  H1  MOL d          21.398   6.631  20.269  0.00  0.00     0.217 HD
ENDBRANCH   1  34
TORSDOF 3
ENDMDL
MODEL 3
REMARK VINA RESULT:      -9.5      2.224      6.484
REMARK  3 active torsions:
REMARK  status: ('A' for Active; 'I' for Inactive)
REMARK    1  A    between atoms: C1_1  and  O1_2 
REMARK    2  A    between atoms: C10_11  and  C11_12 
REMARK    3  A    between atoms: C14_15  and  C15_16 
ROOT
ATOM      1  C1  MOL d          22.275   4.947  18.517  0.00  0.00     0.066 A 
ATOM      2  C2  MOL d          22.307   6.137  19.252  0.00  0.00    -0.049 A 
ATOM      3  C3  MOL d          22.469   7.368  18.615  0.00  0.00    -0.054 A 
ATOM      4  C4  MOL d          22.600   7.397  17.228  0.00  0.00     0.044 A 
ATOM      5  C5  MOL d          22.566   6.212  16.517  0.00  0.00     0.006 A 
ATOM      6  C6  MOL d          22.404   4.971  17.128  0.00  0.00    -0.038 A 
ATOM      7  N7  MOL d          22.769   8.395  16.302  0.00  0.00    -0.354 N 
ATOM      8  C8  MOL d          22.845   7.916  15.015  0.00  0.00     0.051 A 
ATOM      9  C9  MOL d          22.724   6.542  15.097  0.00  0.00     0.011 A 
ATOM     10  C10 MOL d          23.005   8.515  13.770  0.00  0.00    -0.023 A 
ATOM     11  C12 MOL d          23.043   7.712  12.621  0.00  0.00    -0.011 A 
ATOM     12  C13 MOL d          22.921   6.308  12.711  0.00  0.00     0.036 A 
ATOM     13  C14 MOL d          22.756   5.704  13.976  0.00  0.00    -0.033 A 
ATOM     14  C16 MOL d          23.210   8.304  11.366  0.00  0.00    -0.057 A 
ATOM     15  C17 MOL d          23.249   7.511  10.222  0.00  0.00    -0.020 A 
ATOM     16  N18 MOL d          23.127   6.175  10.324  0.00  0.00    -0.344 N 
ATOM     17  C19 MOL d          22.969   5.564  11.514  0.00  0.00     0.190 A 
ATOM     18  O19 MOL d          22.853   4.205  11.518  0.00  0.00    -0.171 OA
ATOM     19  H2  MOL d          22.204   6.102  20.331  0.00  0.00     0.087 H 
ATOM     20  H3  MOL d          22.493   8.286  19.191  0.00  0.00     0.087 H 
ATOM     21  H4  MOL d          22.379   4.057  16.546  0.00  0.00     0.089 H 
ATOM     22  H5  MOL d          22.832   9.394  16.544  0.00  0.00     0.166 HD
ATOM     23  H12 MOL d          23.308   9.385  11.283  0.00  0.00     0.086 H 
ATOM     24  H13 MOL d          23.378   7.973   9.244  0.00  0.00     0.111 H 
ATOM     25  H14 MOL d          23.155   5.620   9.493  0.00  0.00     0.167 HD
ENDROOT
BRANCH  10  26
ATOM     26  C11 MOL d          23.139  10.019  13.684  0.00  0.00    -0.048 C 
ATOM     27  H6  MOL d          23.711  10.285  12.782  0.00  0.00     0.033 H 
ATOM     28  H7  MOL d          23.666  10.391  14.575  0.00  0.00     0.033 H 
ATOM     29  H8  MOL d          22.139  10.474  13.633  0.00  0.00     0.033 H 
ENDBRANCH  10  26
BRANCH  13  30
ATOM     30  C15 MOL d          22.621   4.205  14.146  0.00  0.00    -0.049 C 
ATOM     31  H9  MOL d          21.557   3.939  14.230  0.00  0.00     0.033 H 
ATOM     32  H10 MOL d          23.151   3.890  15.057  0.00  0.00     0.033 H 
ATOM     33  H11 MOL d          23.058   3.696  13.274  0.00  0.00     0.033 H 
ENDBRANCH  13  30
BRANCH   1  34
ATOM     34  O1  MOL d          22.113   3.757  19.165  0.00  0.00    -0.361 OA
ATOM     35  H1  MOL d          22.723   3.120  18.811  0.00  0.00     0.217 HD
ENDBRANCH   1  34
TORSDOF 3
ENDMDL
MODEL 4
REMARK VINA RESULT:      -9.4      1.571      5.838
REMARK  3 active torsions:
REMARK  status: ('A' for Active; 'I' for Inactive)
REMARK    1  A    between atoms: C1_1  and  O1_2 
REMARK    2  A    between atoms: C10_11  and  C11_12 
REMARK    3  A    between atoms: C14_15  and  C15_16 
ROOT
ATOM      1  C1  MOL d          22.599   9.613  18.262  0.00  0.00     0.066 A 
ATOM      2  C2  MOL d          22.496   8.521  19.130  0.00  0.00    -0.049 A 
ATOM      3  C3  MOL d          22.519   7.214  18.643  0.00  0.00    -0.054 A 
ATOM      4  C4  MOL d          22.646   7.008  17.271  0.00  0.00     0.044 A 
ATOM      5  C5  MOL d          22.747   8.099  16.426  0.00  0.00     0.006 A 
ATOM      6  C6  MOL d          22.728   9.412  16.887  0.00  0.00    -0.038 A 
ATOM      7  N7  MOL d          22.703   5.896  16.469  0.00  0.00    -0.354 N 
ATOM      8  C8  MOL d          22.838   6.210  15.137  0.00  0.00     0.051 A 
ATOM      9  C9  MOL d          22.870   7.589  15.056  0.00  0.00     0.011 A 
ATOM     10  C10 MOL d          22.941   5.455  13.972  0.00  0.00    -0.023 A 
ATOM     11  C12 MOL d          23.072   6.109  12.739  0.00  0.00    -0.011 A 
ATOM     12  C13 MOL d          23.101   7.519  12.663  0.00  0.00     0.036 A 
ATOM     13  C14 MOL d          22.999   8.281  13.846  0.00  0.00    -0.033 A 
ATOM     14  C16 MOL d          23.170   5.360  11.564  0.00  0.00    -0.057 A 
ATOM     15  C17 MOL d          23.299   6.004  10.335  0.00  0.00    -0.020 A 
ATOM     16  N18 MOL d          23.329   7.348  10.280  0.00  0.00    -0.344 N 
ATOM     17  C19 MOL d          23.234   8.107  11.389  0.00  0.00     0.190 A 
ATOM     18  O19 MOL d          23.275   9.462  11.233  0.00  0.00    -0.171 OA
ATOM     19  H2  MOL d          22.397   8.693  20.195  0.00  0.00     0.087 H 
ATOM     20  H3  MOL d          22.439   6.372  19.321  0.00  0.00     0.087 H 
ATOM     21  H4  MOL d          22.811  10.250  16.203  0.00  0.00     0.089 H 
ATOM     22  H5  MOL d          22.650   4.932  16.825  0.00  0.00     0.166 HD
ATOM     23  H12 MOL d          23.146   4.272  11.608  0.00  0.00     0.086 H 
ATOM     24  H13 MOL d          23.376   5.420   9.420  0.00  0.00     0.111 H 
ATOM     25  H14 MOL d          23.425   7.795   9.391  0.00  0.00     0.167 HD
ENDROOT
BRANCH  10  26
ATOM     26  C11 MOL d          22.905   3.946  14.064  0.00  0.00    -0.048 C 
ATOM     27  H6  MOL d          22.587   3.648  15.074  0.00  0.00     0.033 H 
ATOM     28  H7  MOL d          23.908   3.542  13.860  0.00  0.00     0.033 H 
ATOM     29  H8  MOL d          22.193   3.551  13.324  0.00  0.00     0.033 H 
ENDBRANCH  10  26
BRANCH  13  30
ATOM     30  C15 MOL d          23.021   9.796  13.838  0.00  0.00    -0.049 C 
ATOM     31  H9  MOL d          22.227  10.172  13.176  0.00  0.00     0.033 H 
ATOM     32  H10 MOL d          23.998  10.146  13.474  0.00  0.00     0.033 H 
ATOM     33  H11 MOL d          22.854  10.171  14.859  0.00  0.00     0.033 H 
ENDBRANCH  13  30
BRANCH   1  34
ATOM     34  O1  MOL d          22.576  10.881  18.765  0.00  0.00    -0.361 OA
ATOM     35  H1  MOL d          22.686  10.848  19.708  0.00  0.00     0.217 HD
ENDBRANCH   1  34
TORSDOF 3
ENDMDL
MODEL 5
REMARK VINA RESULT:      -9.0      2.120      3.249
REMARK  3 active torsions:
REMARK  status: ('A' for Active; 'I' for Inactive)
REMARK    1  A    between atoms: C1_1  and  O1_2 
REMARK    2  A    between atoms: C10_11  and  C11_12 
REMARK    3  A    between atoms: C14_15  and  C15_16 
ROOT
ATOM      1  C1  MOL d          22.932   4.940  12.133  0.00  0.00     0.066 A 
ATOM      2  C2  MOL d          23.165   6.127  11.431  0.00  0.00    -0.049 A 
ATOM      3  C3  MOL d          23.244   7.350  12.098  0.00  0.00    -0.054 A 
ATOM      4  C4  MOL d          23.084   7.374  13.482  0.00  0.00     0.044 A 
ATOM      5  C5  MOL d          22.853   6.191  14.161  0.00  0.00     0.006 A 
ATOM      6  C6  MOL d          22.772   4.958  13.519  0.00  0.00    -0.038 A 
ATOM      7  N7  MOL d          23.099   8.363  14.432  0.00  0.00    -0.354 N 
ATOM      8  C8  MOL d          22.890   7.882  15.703  0.00  0.00     0.051 A 
ATOM      9  C9  MOL d          22.728   6.514  15.586  0.00  0.00     0.011 A 
ATOM     10  C10 MOL d          22.823   8.472  16.961  0.00  0.00    -0.023 A 
ATOM     11  C12 MOL d          22.589   7.668  18.086  0.00  0.00    -0.011 A 
ATOM     12  C13 MOL d          22.422   6.271  17.959  0.00  0.00     0.036 A 
ATOM     13  C14 MOL d          22.493   5.676  16.682  0.00  0.00    -0.033 A 
ATOM     14  C16 MOL d          22.515   8.253  19.353  0.00  0.00    -0.057 A 
ATOM     15  C17 MOL d          22.282   7.459  20.474  0.00  0.00    -0.020 A 
ATOM     16  N18 MOL d          22.128   6.130  20.337  0.00  0.00    -0.344 N 
ATOM     17  C19 MOL d          22.189   5.527  19.134  0.00  0.00     0.190 A 
ATOM     18  O19 MOL d          22.023   4.174  19.095  0.00  0.00    -0.171 OA
ATOM     19  H2  MOL d          23.288   6.096  10.355  0.00  0.00     0.087 H 
ATOM     20  H3  MOL d          23.425   8.266  11.549  0.00  0.00     0.087 H 
ATOM     21  H4  MOL d          22.593   4.045  14.075  0.00  0.00     0.089 H 
ATOM     22  H5  MOL d          23.250   9.359  14.218  0.00  0.00     0.166 HD
ATOM     23  H12 MOL d          22.639   9.329  19.464  0.00  0.00     0.086 H 
ATOM     24  H13 MOL d          22.224   7.915  21.461  0.00  0.00     0.111 H 
ATOM     25  H14 MOL d          21.964   5.573  21.151  0.00  0.00     0.167 HD
ENDROOT
BRANCH  10  26
ATOM     26  C11 MOL d          22.999   9.968  17.086  0.00  0.00    -0.048 C 
ATOM     27  H6  MOL d          23.835  10.183  17.769  0.00  0.00     0.033 H 
ATOM     28  H7  MOL d          22.076  10.415  17.485  0.00  0.00     0.033 H 
ATOM     29  H8  MOL d          23.216  10.397  16.096  0.00  0.00     0.033 H 
ENDBRANCH  10  26
BRANCH  13  30
ATOM     30  C15 MOL d          22.321   4.185  16.473  0.00  0.00    -0.049 C 
ATOM     31  H9  MOL d          22.581   3.652  17.400  0.00  0.00     0.033 H 
ATOM     32  H10 MOL d          22.982   3.850  15.661  0.00  0.00     0.033 H 
ATOM     33  H11 MOL d          21.276   3.970  16.207  0.00  0.00     0.033 H 
ENDBRANCH  13  30
BRANCH   1  34
ATOM     34  O1  MOL d          22.862   3.757  11.455  0.00  0.00    -0.361 OA
ATOM     35  H1  MOL d          23.733   3.384  11.382  0.00  0.00     0.217 HD
ENDBRANCH   1  34
TORSDOF 3
ENDMDL
MODEL 6
REMARK VINA RESULT:      -8.9      2.025      6.572
REMARK  3 active torsions:
REMARK  status: ('A' for Active; 'I' for Inactive)
REMARK    1  A    between atoms: C1_1  and  O1_2 
REMARK    2  A    between atoms: C10_11  and  C11_12 
REMARK    3  A    between atoms: C14_15  and  C15_16 
ROOT
ATOM      1  C1  MOL d          22.494   7.867  19.205  0.00  0.00     0.066 A 
ATOM      2  C2  MOL d          22.553   9.263  19.256  0.00  0.00    -0.049 A 
ATOM      3  C3  MOL d          22.703  10.017  18.092  0.00  0.00    -0.054 A 
ATOM      4  C4  MOL d          22.795   9.357  16.869  0.00  0.00     0.044 A 
ATOM      5  C5  MOL d          22.734   7.976  16.836  0.00  0.00     0.006 A 
ATOM      6  C6  MOL d          22.583   7.201  17.982  0.00  0.00    -0.038 A 
ATOM      7  N7  MOL d          22.943   9.765  15.568  0.00  0.00    -0.354 N 
ATOM      8  C8  MOL d          22.980   8.713  14.683  0.00  0.00     0.051 A 
ATOM      9  C9  MOL d          22.853   7.560  15.434  0.00  0.00     0.011 A 
ATOM     10  C10 MOL d          23.108   8.617  13.301  0.00  0.00    -0.023 A 
ATOM     11  C12 MOL d          23.109   7.352  12.697  0.00  0.00    -0.011 A 
ATOM     12  C13 MOL d          22.982   6.177  13.471  0.00  0.00     0.036 A 
ATOM     13  C14 MOL d          22.850   6.278  14.872  0.00  0.00    -0.033 A 
ATOM     14  C16 MOL d          23.243   7.245  11.310  0.00  0.00    -0.057 A 
ATOM     15  C17 MOL d          23.245   5.991  10.705  0.00  0.00    -0.020 A 
ATOM     16  N18 MOL d          23.119   4.882  11.455  0.00  0.00    -0.344 N 
ATOM     17  C19 MOL d          22.992   4.940  12.795  0.00  0.00     0.190 A 
ATOM     18  O19 MOL d          22.868   3.761  13.471  0.00  0.00    -0.171 OA
ATOM     19  H2  MOL d          22.481   9.766  20.214  0.00  0.00     0.087 H 
ATOM     20  H3  MOL d          22.748  11.099  18.139  0.00  0.00     0.087 H 
ATOM     21  H4  MOL d          22.537   6.119  17.928  0.00  0.00     0.089 H 
ATOM     22  H5  MOL d          23.018  10.752  15.283  0.00  0.00     0.166 HD
ATOM     23  H12 MOL d          23.345   8.143  10.702  0.00  0.00     0.086 H 
ATOM     24  H13 MOL d          23.349   5.908   9.624  0.00  0.00     0.111 H 
ATOM     25  H14 MOL d          23.120   3.988  11.005  0.00  0.00     0.167 HD
ENDROOT
BRANCH  10  26
ATOM     26  C11 MOL d          23.248   9.881  12.482  0.00  0.00    -0.048 C 
ATOM     27  H6  MOL d          22.478   9.895  11.696  0.00  0.00     0.033 H 
ATOM     28  H7  MOL d          24.245   9.909  12.018  0.00  0.00     0.033 H 
ATOM     29  H8  MOL d          23.122  10.757  13.134  0.00  0.00     0.033 H 
ENDBRANCH  10  26
BRANCH  13  30
ATOM     30  C15 MOL d          22.711   5.060  15.762  0.00  0.00    -0.049 C 
ATOM     31  H9  MOL d          22.376   4.202  15.161  0.00  0.00     0.033 H 
ATOM     32  H10 MOL d          21.973   5.265  16.551  0.00  0.00     0.033 H 
ATOM     33  H11 MOL d          23.684   4.829  16.220  0.00  0.00     0.033 H 
ENDBRANCH  13  30
BRANCH   1  34
ATOM     34  O1  MOL d          22.344   7.154  20.359  0.00  0.00    -0.361 OA
ATOM     35  H1  MOL d          21.740   7.608  20.934  0.00  0.00     0.217 HD
ENDBRANCH   1  34
TORSDOF 3
ENDMDL
MODEL 7
REMARK VINA RESULT:      -8.7      2.230      3.541
REMARK  3 active torsions:
REMARK  status: ('A' for Active; 'I' for Inactive)
REMARK    1  A    between atoms: C1_1  and  O1_2 
REMARK    2  A    between atoms: C10_11  and  C11_12 
REMARK    3  A    between atoms: C14_15  and  C15_16 
ROOT
ATOM      1  C1  MOL d          23.205   8.380  11.183  0.00  0.00     0.066 A 
ATOM      2  C2  MOL d          23.342   9.768  11.285  0.00  0.00    -0.049 A 
ATOM      3  C3  MOL d          23.310  10.402  12.528  0.00  0.00    -0.054 A 
ATOM      4  C4  MOL d          23.137   9.630  13.674  0.00  0.00     0.044 A 
ATOM      5  C5  MOL d          23.003   8.258  13.556  0.00  0.00     0.006 A 
ATOM      6  C6  MOL d          23.033   7.602  12.328  0.00  0.00    -0.038 A 
ATOM      7  N7  MOL d          23.059   9.908  15.015  0.00  0.00    -0.354 N 
ATOM      8  C8  MOL d          22.882   8.780  15.781  0.00  0.00     0.051 A 
ATOM      9  C9  MOL d          22.838   7.710  14.906  0.00  0.00     0.011 A 
ATOM     10  C10 MOL d          22.753   8.550  17.147  0.00  0.00    -0.023 A 
ATOM     11  C12 MOL d          22.579   7.238  17.609  0.00  0.00    -0.011 A 
ATOM     12  C13 MOL d          22.533   6.150  16.710  0.00  0.00     0.036 A 
ATOM     13  C14 MOL d          22.666   6.386  15.326  0.00  0.00    -0.033 A 
ATOM     14  C16 MOL d          22.444   6.998  18.980  0.00  0.00    -0.057 A 
ATOM     15  C17 MOL d          22.270   5.696  19.445  0.00  0.00    -0.020 A 
ATOM     16  N18 MOL d          22.233   4.670  18.576  0.00  0.00    -0.344 N 
ATOM     17  C19 MOL d          22.355   4.858  17.248  0.00  0.00     0.190 A 
ATOM     18  O19 MOL d          22.306   3.757  16.445  0.00  0.00    -0.171 OA
ATOM     19  H2  MOL d          23.476  10.359  10.386  0.00  0.00     0.087 H 
ATOM     20  H3  MOL d          23.417  11.479  12.599  0.00  0.00     0.087 H 
ATOM     21  H4  MOL d          22.927   6.525  12.264  0.00  0.00     0.089 H 
ATOM     22  H5  MOL d          23.126  10.858  15.406  0.00  0.00     0.166 HD
ATOM     23  H12 MOL d          22.475   7.828  19.684  0.00  0.00     0.086 H 
ATOM     24  H13 MOL d          22.165   5.509  20.513  0.00  0.00     0.111 H 
ATOM     25  H14 MOL d          22.110   3.742  18.926  0.00  0.00     0.167 HD
ENDROOT
BRANCH  10  26
ATOM     26  C11 MOL d          22.800   9.721  18.101  0.00  0.00    -0.048 C 
ATOM     27  H6  MOL d          23.751  10.260  17.975  0.00  0.00     0.033 H 
ATOM     28  H7  MOL d          22.721   9.356  19.136  0.00  0.00     0.033 H 
ATOM     29  H8  MOL d          21.962  10.402  17.889  0.00  0.00     0.033 H 
ENDBRANCH  10  26
BRANCH  13  30
ATOM     30  C15 MOL d          22.624   5.267  14.306  0.00  0.00    -0.049 C 
ATOM     31  H9  MOL d          22.492   4.304  14.822  0.00  0.00     0.033 H 
ATOM     32  H10 MOL d          23.567   5.253  13.739  0.00  0.00     0.033 H 
ATOM     33  H11 MOL d          21.784   5.431  13.616  0.00  0.00     0.033 H 
ENDBRANCH  13  30
BRANCH   1  34
ATOM     34  O1  MOL d          23.243   7.786   9.955  0.00  0.00    -0.361 OA
ATOM     35  H1  MOL d          22.884   6.909  10.018  0.00  0.00     0.217 HD
ENDBRANCH   1  34
TORSDOF 3
ENDMDL
MODEL 8
REMARK VINA RESULT:      -8.4      1.659      5.852
REMARK  3 active torsions:
REMARK  status: ('A' for Active; 'I' for Inactive)
REMARK    1  A    between atoms: C1_1  and  O1_2 
REMARK    2  A    between atoms: C10_11  and  C11_12 
REMARK    3  A    between atoms: C14_15  and  C15_16 
ROOT
ATOM      1  C1  MOL d          22.239   9.311  19.522  0.00  0.00     0.066 A 
ATOM      2  C2  MOL d          22.206   8.199  20.370  0.00  0.00    -0.049 A 
ATOM      3  C3  MOL d          22.333   6.906  19.862  0.00  0.00    -0.054 A 
ATOM      4  C4  MOL d          22.493   6.734  18.489  0.00  0.00     0.044 A 
ATOM      5  C5  MOL d          22.524   7.844  17.664  0.00  0.00     0.006 A 
ATOM      6  C6  MOL d          22.401   9.144  18.146  0.00  0.00    -0.038 A 
ATOM      7  N7  MOL d          22.643   5.644  17.669  0.00  0.00    -0.354 N 
ATOM      8  C8  MOL d          22.773   5.990  16.345  0.00  0.00     0.051 A 
ATOM      9  C9  MOL d          22.703   7.369  16.287  0.00  0.00     0.011 A 
ATOM     10  C10 MOL d          22.947   5.265  15.170  0.00  0.00    -0.023 A 
ATOM     11  C12 MOL d          23.045   5.949  13.950  0.00  0.00    -0.011 A 
ATOM     12  C13 MOL d          22.971   7.358  13.898  0.00  0.00     0.036 A 
ATOM     13  C14 MOL d          22.796   8.090  15.091  0.00  0.00    -0.033 A 
ATOM     14  C16 MOL d          23.215   5.229  12.764  0.00  0.00    -0.057 A 
ATOM     15  C17 MOL d          23.313   5.903  11.548  0.00  0.00    -0.020 A 
ATOM     16  N18 MOL d          23.243   7.246  11.515  0.00  0.00    -0.344 N 
ATOM     17  C19 MOL d          23.077   7.977  12.635  0.00  0.00     0.190 A 
ATOM     18  O19 MOL d          23.019   9.333  12.502  0.00  0.00    -0.171 OA
ATOM     19  H2  MOL d          22.080   8.345  21.437  0.00  0.00     0.087 H 
ATOM     20  H3  MOL d          22.306   6.049  20.525  0.00  0.00     0.087 H 
ATOM     21  H4  MOL d          22.431   9.997  17.477  0.00  0.00     0.089 H 
ATOM     22  H5  MOL d          22.657   4.672  18.009  0.00  0.00     0.166 HD
ATOM     23  H12 MOL d          23.271   4.142  12.790  0.00  0.00     0.086 H 
ATOM     24  H13 MOL d          23.445   5.342  10.624  0.00  0.00     0.111 H 
ATOM     25  H14 MOL d          23.318   7.715  10.636  0.00  0.00     0.167 HD
ENDROOT
BRANCH  10  26
ATOM     26  C11 MOL d          23.022   3.757  15.236  0.00  0.00    -0.048 C 
ATOM     27  H6  MOL d          22.494   3.403  16.134  0.00  0.00     0.033 H 
ATOM     28  H7  MOL d          24.075   3.443  15.282  0.00  0.00     0.033 H 
ATOM     29  H8  MOL d          22.550   3.326  14.340  0.00  0.00     0.033 H 
ENDBRANCH  10  26
BRANCH  13  30
ATOM     30  C15 MOL d          22.706   9.602  15.108  0.00  0.00    -0.049 C 
ATOM     31  H9  MOL d          22.474   9.968  14.097  0.00  0.00     0.033 H 
ATOM     32  H10 MOL d          23.667  10.023  15.439  0.00  0.00     0.033 H 
ATOM     33  H11 MOL d          21.911   9.914  15.801  0.00  0.00     0.033 H 
ENDBRANCH  13  30
BRANCH   1  34
ATOM     34  O1  MOL d          22.115  10.565  20.046  0.00  0.00    -0.361 OA
ATOM     35  H1  MOL d          22.810  10.713  20.677  0.00  0.00     0.217 HD
ENDBRANCH   1  34
TORSDOF 3
ENDMDL
MODEL 9
REMARK VINA RESULT:      -7.3      1.333      1.517
REMARK  3 active torsions:
REMARK  status: ('A' for Active; 'I' for Inactive)
REMARK    1  A    between atoms: C1_1  and  O1_2 
REMARK    2  A    between atoms: C10_11  and  C11_12 
REMARK    3  A    between atoms: C14_15  and  C15_16 
ROOT
ATOM      1  C1  MOL d          22.864   8.993  11.942  0.00  0.00     0.066 A 
ATOM      2  C2  MOL d          22.481   7.843  11.244  0.00  0.00    -0.049 A 
ATOM      3  C3  MOL d          22.157   6.667  11.922  0.00  0.00    -0.054 A 
ATOM      4  C4  MOL d          22.220   6.653  13.314  0.00  0.00     0.044 A 
ATOM      5  C5  MOL d          22.601   7.799  13.989  0.00  0.00     0.006 A 
ATOM      6  C6  MOL d          22.928   8.984  13.335  0.00  0.00    -0.038 A 
ATOM      7  N7  MOL d          21.980   5.705  14.275  0.00  0.00    -0.354 N 
ATOM      8  C8  MOL d          22.183   6.178  15.550  0.00  0.00     0.051 A 
ATOM      9  C9  MOL d          22.578   7.497  15.424  0.00  0.00     0.011 A 
ATOM     10  C10 MOL d          22.069   5.618  16.818  0.00  0.00    -0.023 A 
ATOM     11  C12 MOL d          22.361   6.401  17.944  0.00  0.00    -0.011 A 
ATOM     12  C13 MOL d          22.767   7.747  17.808  0.00  0.00     0.036 A 
ATOM     13  C14 MOL d          22.878   8.312  16.521  0.00  0.00    -0.033 A 
ATOM     14  C16 MOL d          22.255   5.845  19.222  0.00  0.00    -0.057 A 
ATOM     15  C17 MOL d          22.544   6.618  20.344  0.00  0.00    -0.020 A 
ATOM     16  N18 MOL d          22.926   7.899  20.198  0.00  0.00    -0.344 N 
ATOM     17  C19 MOL d          23.044   8.473  18.985  0.00  0.00     0.190 A 
ATOM     18  O19 MOL d          23.436   9.778  18.937  0.00  0.00    -0.171 OA
ATOM     19  H2  MOL d          22.435   7.866  10.161  0.00  0.00     0.087 H 
ATOM     20  H3  MOL d          21.861   5.780  11.375  0.00  0.00     0.087 H 
ATOM     21  H4  MOL d          23.221   9.869  13.889  0.00  0.00     0.089 H 
ATOM     22  H5  MOL d          21.679   4.742  14.065  0.00  0.00     0.166 HD
ATOM     23  H12 MOL d          21.946   4.807  19.340  0.00  0.00     0.086 H 
ATOM     24  H13 MOL d          22.461   6.184  21.340  0.00  0.00     0.111 H 
ATOM     25  H14 MOL d          23.127   8.442  21.014  0.00  0.00     0.167 HD
ENDROOT
BRANCH  10  26
ATOM     26  C11 MOL d          21.638   4.175  16.953  0.00  0.00    -0.048 C 
ATOM     27  H6  MOL d          20.564   4.091  16.729  0.00  0.00     0.033 H 
ATOM     28  H7  MOL d          21.826   3.830  17.981  0.00  0.00     0.033 H 
ATOM     29  H8  MOL d          22.210   3.553  16.248  0.00  0.00     0.033 H 
ENDBRANCH  10  26
BRANCH  13  30
ATOM     30  C15 MOL d          23.310   9.748  16.302  0.00  0.00    -0.049 C 
ATOM     31  H9  MOL d          24.021   9.794  15.463  0.00  0.00     0.033 H 
ATOM     32  H10 MOL d          23.793  10.129  17.213  0.00  0.00     0.033 H 
ATOM     33  H11 MOL d          22.429  10.364  16.069  0.00  0.00     0.033 H 
ENDBRANCH  13  30
BRANCH   1  34
ATOM     34  O1  MOL d          23.173  10.130  11.253  0.00  0.00    -0.361 OA
ATOM     35  H1  MOL d          22.376  10.613  11.069  0.00  0.00     0.217 HD
ENDBRANCH   1  34
TORSDOF 3
ENDMDL
