MODEL 1
REMARK VINA RESULT:     -16.5      0.000      0.000
REMARK  2 active torsions:
REMARK  status: ('A' for Active; 'I' for Inactive)
REMARK       I    between atoms: N4_8  and  C11_17 
REMARK    1  A    between atoms: C16_22  and  N4_8 
REMARK    2  A    between atoms: C11_17  and  C12_18 
ROOT
ATOM      1  C1  YKI d          13.418  14.380  26.460  0.00  0.00     0.004 A 
ATOM      2  N1  YKI d          13.107  14.667  27.788  0.00  0.00    -0.271 NA
ATOM      3  C2  YKI d          11.788  14.774  28.218  0.00  0.00     0.030 A 
ATOM      4  N2  YKI d           9.380  14.621  27.370  0.00  0.00    -0.337 N 
ATOM      5  C3  YKI d          12.410  14.179  25.486  0.00  0.00    -0.036 A 
ATOM      6  N3  YKI d           9.871  14.162  25.258  0.00  0.00    -0.228 NA
ATOM      7  C4  YKI d           8.871  14.368  26.153  0.00  0.00     0.140 A 
ATOM      8  C5  YKI d          11.072  14.286  25.902  0.00  0.00     0.088 A 
ATOM      9  C6  YKI d          10.749  14.582  27.286  0.00  0.00     0.080 A 
ATOM     10  C7  YKI d           7.449  14.346  25.887  0.00  0.00     0.022 A 
ATOM     11  C8  YKI d           4.601  14.490  25.431  0.00  0.00    -0.074 A 
ATOM     12  C9  YKI d           5.270  15.534  26.138  0.00  0.00    -0.081 A 
ATOM     13  C10 YKI d           6.685  15.445  26.356  0.00  0.00    -0.068 A 
ATOM     14  C16 YKI d           4.725  12.225  24.196  0.00  0.00     0.065 A 
ATOM     15  C17 YKI d           5.334  13.348  24.937  0.00  0.00    -0.019 A 
ATOM     16  C18 YKI d           6.719  13.230  25.136  0.00  0.00    -0.003 A 
ATOM     17  C19 YKI d           5.984  11.340  23.956  0.00  0.00    -0.020 A 
ATOM     18  C20 YKI d           7.157  11.962  24.513  0.00  0.00    -0.016 A 
ATOM     19  C21 YKI d           8.445  11.281  24.379  0.00  0.00    -0.072 A 
ATOM     20  C22 YKI d           8.537  10.020  23.701  0.00  0.00    -0.082 A 
ATOM     21  C23 YKI d           7.339   9.410  23.146  0.00  0.00    -0.082 A 
ATOM     22  C24 YKI d           6.071  10.069  23.272  0.00  0.00    -0.074 A 
ATOM     23  H1  YKI d          14.459  14.309  26.165  0.00  0.00     0.114 H 
ATOM     24  H2  YKI d          11.564  15.002  29.253  0.00  0.00     0.118 H 
ATOM     25  H3  YKI d           8.835  14.812  28.223  0.00  0.00     0.167 HD
ATOM     26  H4  YKI d          12.662  13.951  24.457  0.00  0.00     0.089 H 
ATOM     27  H7  YKI d           3.532  14.555  25.264  0.00  0.00     0.084 H 
ATOM     28  H8  YKI d           4.714  16.388  26.507  0.00  0.00     0.083 H 
ATOM     29  H9  YKI d           7.186  16.241  26.896  0.00  0.00     0.085 H 
ATOM     30  H12 YKI d           4.451  12.614  23.204  0.00  0.00     0.088 H 
ATOM     31  H13 YKI d           9.338  11.733  24.795  0.00  0.00     0.084 H 
ATOM     32  H14 YKI d           9.496   9.524  23.603  0.00  0.00     0.083 H 
ATOM     33  H15 YKI d           7.404   8.456  22.637  0.00  0.00     0.083 H 
ATOM     34  H16 YKI d           5.180   9.615  22.855  0.00  0.00     0.084 H 
ENDROOT
BRANCH  14  35
ATOM     35  N4  YKI d           3.716  11.816  24.583  0.00  0.00    -0.344 N 
ATOM     36  C11 YKI d           2.575  11.378  24.013  0.00  0.00     0.253 C 
ATOM     37  O13 YKI d           2.544  11.385  22.773  0.00  0.00    -0.268 OA
ATOM     38  H5  YKI d           3.680  11.777  25.582  0.00  0.00     0.163 HD
BRANCH  36  39
ATOM     39  C12 YKI d           1.368  10.927  24.798  0.00  0.00     0.047 A 
ATOM     40  C14 YKI d           1.401  10.038  25.934  0.00  0.00    -0.050 A 
ATOM     41  C15 YKI d           0.154   9.715  26.573  0.00  0.00     0.005 A 
ATOM     42  H10 YKI d           2.337   9.627  26.294  0.00  0.00     0.087 H 
ATOM     43  N5  YKI d          -1.043  10.243  26.095  0.00  0.00    -0.242 NA
ATOM     44  H11 YKI d           0.145   9.055  27.433  0.00  0.00     0.114 H 
ATOM     45  C26 YKI d          -1.088  11.108  24.996  0.00  0.00     0.138 A 
ATOM     46  N6  YKI d          -2.210  11.684  24.444  0.00  0.00    -0.350 N 
ATOM     47  C25 YKI d           0.059  11.465  24.320  0.00  0.00     0.027 A 
ATOM     48  C27 YKI d          -1.773  12.452  23.379  0.00  0.00    -0.020 A 
ATOM     49  H6  YKI d          -3.182  11.566  24.760  0.00  0.00     0.166 HD
ATOM     50  C28 YKI d          -0.371  12.349  23.269  0.00  0.00    -0.053 A 
ATOM     51  H17 YKI d          -2.413  13.045  22.727  0.00  0.00     0.111 H 
ATOM     52  H18 YKI d           0.263  12.842  22.533  0.00  0.00     0.087 H 
ENDBRANCH  36  39
ENDBRANCH  14  35
TORSDOF 2
ENDMDL
