MODEL 1
REMARK VINA RESULT:     -16.5      0.000      0.000
REMARK  2 active torsions:
REMARK  status: ('A' for Active; 'I' for Inactive)
REMARK       I    between atoms: N4_8  and  C11_17 
REMARK    1  A    between atoms: C16_22  and  N4_8 
REMARK    2  A    between atoms: C11_17  and  C12_18 
ROOT
ATOM      1  C1  YKI d          13.539  14.311  26.348  0.00  0.00     0.004 A 
ATOM      2  N1  YKI d          13.253  14.597  27.682  0.00  0.00    -0.271 NA
ATOM      3  C2  YKI d          11.942  14.710  28.135  0.00  0.00     0.030 A 
ATOM      4  N2  YKI d           9.518  14.574  27.329  0.00  0.00    -0.337 N 
ATOM      5  C3  YKI d          12.513  14.119  25.392  0.00  0.00    -0.036 A 
ATOM      6  N3  YKI d           9.970  14.118  25.207  0.00  0.00    -0.228 NA
ATOM      7  C4  YKI d           8.987  14.327  26.120  0.00  0.00     0.140 A 
ATOM      8  C5  YKI d          11.182  14.233  25.830  0.00  0.00     0.088 A 
ATOM      9  C6  YKI d          10.885  14.527  27.220  0.00  0.00     0.080 A 
ATOM     10  C7  YKI d           7.561  14.314  25.879  0.00  0.00     0.022 A 
ATOM     11  C8  YKI d           4.706  14.477  25.472  0.00  0.00    -0.074 A 
ATOM     12  C9  YKI d           5.394  15.515  26.170  0.00  0.00    -0.081 A 
ATOM     13  C10 YKI d           6.812  15.417  26.364  0.00  0.00    -0.068 A 
ATOM     14  C16 YKI d           4.794  12.215  24.230  0.00  0.00     0.065 A 
ATOM     15  C17 YKI d           5.423  13.332  24.963  0.00  0.00    -0.019 A 
ATOM     16  C18 YKI d           6.811  13.205  25.138  0.00  0.00    -0.003 A 
ATOM     17  C19 YKI d           6.044  11.323  23.966  0.00  0.00    -0.020 A 
ATOM     18  C20 YKI d           7.230  11.936  24.504  0.00  0.00    -0.016 A 
ATOM     19  C21 YKI d           8.511  11.247  24.346  0.00  0.00    -0.072 A 
ATOM     20  C22 YKI d           8.584   9.988  23.664  0.00  0.00    -0.082 A 
ATOM     21  C23 YKI d           7.372   9.386  23.128  0.00  0.00    -0.082 A 
ATOM     22  C24 YKI d           6.111  10.053  23.278  0.00  0.00    -0.074 A 
ATOM     23  H1  YKI d          14.574  14.234  26.034  0.00  0.00     0.114 H 
ATOM     24  H2  YKI d          11.737  14.937  29.174  0.00  0.00     0.118 H 
ATOM     25  H3  YKI d           8.989  14.766  28.191  0.00  0.00     0.167 HD
ATOM     26  H4  YKI d          12.745  13.891  24.357  0.00  0.00     0.089 H 
ATOM     27  H7  YKI d           3.635  14.549  25.324  0.00  0.00     0.084 H 
ATOM     28  H8  YKI d           4.849  16.372  26.551  0.00  0.00     0.083 H 
ATOM     29  H9  YKI d           7.326  16.208  26.896  0.00  0.00     0.085 H 
ATOM     30  H12 YKI d           4.506  12.608  23.244  0.00  0.00     0.088 H 
ATOM     31  H13 YKI d           9.414  11.693  24.748  0.00  0.00     0.084 H 
ATOM     32  H14 YKI d           9.538   9.486  23.548  0.00  0.00     0.083 H 
ATOM     33  H15 YKI d           7.423   8.433  22.616  0.00  0.00     0.083 H 
ATOM     34  H16 YKI d           5.210   9.605  22.875  0.00  0.00     0.084 H 
ENDROOT
BRANCH  14  35
ATOM     35  N4  YKI d           3.789  11.811  24.634  0.00  0.00    -0.344 N 
ATOM     36  C11 YKI d           2.655  11.333  24.082  0.00  0.00     0.253 C 
ATOM     37  O13 YKI d           2.628  11.284  22.843  0.00  0.00    -0.268 OA
ATOM     38  H5  YKI d           3.752  11.816  25.634  0.00  0.00     0.163 HD
BRANCH  36  39
ATOM     39  C12 YKI d           1.453  10.903  24.885  0.00  0.00     0.047 A 
ATOM     40  C14 YKI d           1.494  10.064  26.057  0.00  0.00    -0.050 A 
ATOM     41  C15 YKI d           0.249   9.755  26.709  0.00  0.00     0.005 A 
ATOM     42  H10 YKI d           2.434   9.678  26.436  0.00  0.00     0.087 H 
ATOM     43  N5  YKI d          -0.952  10.249  26.209  0.00  0.00    -0.242 NA
ATOM     44  H11 YKI d           0.247   9.131  27.596  0.00  0.00     0.114 H 
ATOM     45  C26 YKI d          -1.006  11.065  25.074  0.00  0.00     0.138 A 
ATOM     46  N6  YKI d          -2.133  11.605  24.497  0.00  0.00    -0.350 N 
ATOM     47  C25 YKI d           0.138  11.406  24.384  0.00  0.00     0.027 A 
ATOM     48  C27 YKI d          -1.703  12.332  23.400  0.00  0.00    -0.020 A 
ATOM     49  H6  YKI d          -3.104  11.490  24.817  0.00  0.00     0.166 HD
ATOM     50  C28 YKI d          -0.299  12.240  23.296  0.00  0.00    -0.053 A 
ATOM     51  H17 YKI d          -2.349  12.890  22.724  0.00  0.00     0.111 H 
ATOM     52  H18 YKI d           0.330  12.708  22.540  0.00  0.00     0.087 H 
ENDBRANCH  36  39
ENDBRANCH  14  35
TORSDOF 2
ENDMDL
MODEL 2
REMARK VINA RESULT:     -15.6      0.907      1.953
REMARK  2 active torsions:
REMARK  status: ('A' for Active; 'I' for Inactive)
REMARK       I    between atoms: N4_8  and  C11_17 
REMARK    1  A    between atoms: C16_22  and  N4_8 
REMARK    2  A    between atoms: C11_17  and  C12_18 
ROOT
ATOM      1  C1  YKI d          12.860  14.184  26.285  0.00  0.00     0.004 A 
ATOM      2  N1  YKI d          12.557  14.556  27.594  0.00  0.00    -0.271 NA
ATOM      3  C2  YKI d          11.242  14.723  28.014  0.00  0.00     0.030 A 
ATOM      4  N2  YKI d           8.830  14.586  27.173  0.00  0.00    -0.337 N 
ATOM      5  C3  YKI d          11.847  13.953  25.323  0.00  0.00    -0.036 A 
ATOM      6  N3  YKI d           9.309  13.992  25.092  0.00  0.00    -0.228 NA
ATOM      7  C4  YKI d           8.315  14.276  25.971  0.00  0.00     0.140 A 
ATOM      8  C5  YKI d          10.512  14.120  25.729  0.00  0.00     0.088 A 
ATOM      9  C6  YKI d          10.197  14.506  27.093  0.00  0.00     0.080 A 
ATOM     10  C7  YKI d           6.893  14.277  25.705  0.00  0.00     0.022 A 
ATOM     11  C8  YKI d           4.050  14.471  25.236  0.00  0.00    -0.074 A 
ATOM     12  C9  YKI d           4.747  15.536  25.882  0.00  0.00    -0.081 A 
ATOM     13  C10 YKI d           6.159  15.422  26.108  0.00  0.00    -0.068 A 
ATOM     14  C16 YKI d           4.112  12.136  24.136  0.00  0.00     0.065 A 
ATOM     15  C17 YKI d           4.751  13.283  24.811  0.00  0.00    -0.019 A 
ATOM     16  C18 YKI d           6.133  13.139  25.020  0.00  0.00    -0.003 A 
ATOM     17  C19 YKI d           5.347  11.204  23.950  0.00  0.00    -0.020 A 
ATOM     18  C20 YKI d           6.537  11.825  24.472  0.00  0.00    -0.016 A 
ATOM     19  C21 YKI d           7.805  11.103  24.380  0.00  0.00    -0.072 A 
ATOM     20  C22 YKI d           7.863   9.803  23.778  0.00  0.00    -0.082 A 
ATOM     21  C23 YKI d           6.649   9.194  23.258  0.00  0.00    -0.082 A 
ATOM     22  C24 YKI d           5.400   9.893  23.342  0.00  0.00    -0.074 A 
ATOM     23  H1  YKI d          13.899  14.067  25.996  0.00  0.00     0.114 H 
ATOM     24  H2  YKI d          11.023  15.017  29.034  0.00  0.00     0.118 H 
ATOM     25  H3  YKI d           8.290  14.841  28.012  0.00  0.00     0.167 HD
ATOM     26  H4  YKI d          12.093  13.658  24.309  0.00  0.00     0.089 H 
ATOM     27  H7  YKI d           2.983  14.555  25.064  0.00  0.00     0.084 H 
ATOM     28  H8  YKI d           4.213  16.425  26.199  0.00  0.00     0.083 H 
ATOM     29  H9  YKI d           6.680  16.234  26.601  0.00  0.00     0.085 H 
ATOM     30  H12 YKI d           3.849  12.473  23.123  0.00  0.00     0.088 H 
ATOM     31  H13 YKI d           8.710  11.555  24.771  0.00  0.00     0.084 H 
ATOM     32  H14 YKI d           8.808   9.276  23.711  0.00  0.00     0.083 H 
ATOM     33  H15 YKI d           6.688   8.210  22.805  0.00  0.00     0.083 H 
ATOM     34  H16 YKI d           4.496   9.440  22.951  0.00  0.00     0.084 H 
ENDROOT
BRANCH  14  35
ATOM     35  N4  YKI d           3.092  11.777  24.545  0.00  0.00    -0.344 N 
ATOM     36  C11 YKI d           1.864  11.580  24.023  0.00  0.00     0.253 C 
ATOM     37  O13 YKI d           1.739  11.816  22.812  0.00  0.00    -0.268 OA
ATOM     38  H5  YKI d           3.129  11.561  25.521  0.00  0.00     0.163 HD
BRANCH  36  39
ATOM     39  C12 YKI d           0.675  11.130  24.835  0.00  0.00     0.047 A 
ATOM     40  C14 YKI d          -0.684  11.570  24.633  0.00  0.00    -0.050 A 
ATOM     41  C15 YKI d          -1.701  11.034  25.497  0.00  0.00     0.005 A 
ATOM     42  H10 YKI d          -0.930  12.282  23.854  0.00  0.00     0.087 H 
ATOM     43  N5  YKI d          -1.371  10.126  26.499  0.00  0.00    -0.242 NA
ATOM     44  H11 YKI d          -2.734  11.340  25.366  0.00  0.00     0.114 H 
ATOM     45  C26 YKI d          -0.058   9.690  26.705  0.00  0.00     0.138 A 
ATOM     46  N6  YKI d           0.377   8.801  27.661  0.00  0.00    -0.350 N 
ATOM     47  C25 YKI d           0.980  10.157  25.927  0.00  0.00     0.027 A 
ATOM     48  C27 YKI d           1.745   8.678  27.489  0.00  0.00    -0.020 A 
ATOM     49  H6  YKI d          -0.201   8.322  28.366  0.00  0.00     0.166 HD
ATOM     50  C28 YKI d           2.161   9.499  26.421  0.00  0.00    -0.053 A 
ATOM     51  H17 YKI d           2.399   8.044  28.087  0.00  0.00     0.111 H 
ATOM     52  H18 YKI d           3.176   9.612  26.043  0.00  0.00     0.087 H 
ENDBRANCH  36  39
ENDBRANCH  14  35
TORSDOF 2
ENDMDL
