MODEL 1
REMARK VINA RESULT:      -9.5      0.000      0.000
REMARK  4 active torsions:
REMARK  status: ('A' for Active; 'I' for Inactive)
REMARK    1  A    between atoms: CAS_21  and  CAD_10 
REMARK    2  A    between atoms: NAQ_19  and  CAT_22 
REMARK    3  A    between atoms: CAV_24  and  NAQ_19 
REMARK    4  A    between atoms: CAR_20  and  CAU_23 
ROOT
ATOM      1  CAA E1B d          23.333 -26.525  11.402  0.00  0.00    -0.149 C 
ATOM      2  CAD E1B d          23.149 -26.309  12.570  0.00  0.00    -0.078 C 
ATOM      3  H3  E1B d          23.493 -26.716  10.376  0.00  0.00     0.166 H 
ENDROOT
BRANCH   2   4
ATOM      4  CAS E1B d          22.920 -26.039  14.010  0.00  0.00     0.019 A 
ATOM      5  CAG E1B d          22.843 -24.753  14.519  0.00  0.00    -0.065 A 
ATOM      6  CAE E1B d          22.625 -24.563  15.873  0.00  0.00    -0.079 A 
ATOM      7  H5  E1B d          22.952 -23.899  13.859  0.00  0.00     0.085 H 
ATOM      8  CAH E1B d          22.497 -25.646  16.730  0.00  0.00    -0.057 A 
ATOM      9  H4  E1B d          22.552 -23.556  16.268  0.00  0.00     0.083 H 
ATOM     10  CAT E1B d          22.588 -26.921  16.204  0.00  0.00     0.035 A 
ATOM     11  H6  E1B d          22.330 -25.496  17.790  0.00  0.00     0.086 H 
ATOM     12  CAL E1B d          22.799 -27.117  14.854  0.00  0.00    -0.039 A 
ATOM     13  H9  E1B d          22.868 -28.124  14.458  0.00  0.00     0.089 H 
BRANCH  10  14
ATOM     14  NAQ E1B d          22.484 -28.103  16.963  0.00  0.00    -0.339 N 
ATOM     15  H11 E1B d          22.489 -27.821  17.953  0.00  0.00     0.167 HD
BRANCH  14  16
ATOM     16  CAV E1B d          22.377 -29.510  16.942  0.00  0.00     0.158 A 
ATOM     17  C4  E1B d          22.216 -30.339  18.099  0.00  0.00     0.116 A 
ATOM     18  N3  E1B d          22.123 -29.817  19.378  0.00  0.00    -0.237 NA
ATOM     19  C5  E1B d          22.161 -31.708  17.914  0.00  0.00     0.027 A 
ATOM     20  C2  E1B d          21.977 -30.627  20.442  0.00  0.00     0.087 A 
ATOM     21  N1  E1B d          21.923 -31.974  20.298  0.00  0.00    -0.253 NA
ATOM     22  H1  E1B d          21.902 -30.195  21.433  0.00  0.00     0.146 H 
ATOM     23  C6  E1B d          22.005 -32.538  19.068  0.00  0.00     0.017 A 
ATOM     24  H2  E1B d          21.954 -33.615  18.959  0.00  0.00     0.116 H 
ATOM     25  CAY E1B d          22.269 -32.229  16.537  0.00  0.00     0.007 A 
ATOM     26  CAJ E1B d          22.206 -33.631  16.292  0.00  0.00    -0.069 A 
ATOM     27  CAW E1B d          22.403 -31.369  15.468  0.00  0.00     0.071 A 
ATOM     28  CAI E1B d          22.307 -34.092  14.974  0.00  0.00    -0.066 A 
ATOM     29  H8  E1B d          22.083 -34.328  17.113  0.00  0.00     0.085 H 
ATOM     30  CAU E1B d          22.444 -33.207  13.885  0.00  0.00     0.043 A 
ATOM     31  H7  E1B d          22.277 -35.159  14.786  0.00  0.00     0.085 H 
ATOM     32  CAM E1B d          22.503 -31.836  14.124  0.00  0.00    -0.038 A 
ATOM     33  H10 E1B d          22.622 -31.137  13.304  0.00  0.00     0.088 H 
ATOM     34  NAP E1B d          22.455 -30.017  15.709  0.00  0.00    -0.228 NA
BRANCH  30  35
ATOM     35  CAR E1B d          22.563 -33.732  12.488  0.00  0.00     0.209 C 
ATOM     36  OAB E1B d          22.038 -34.871  12.389  0.00  0.00    -0.644 OA
ATOM     37  OAC E1B d          23.075 -32.857  11.747  0.00  0.00    -0.644 OA
ENDBRANCH  30  35
ENDBRANCH  14  16
ENDBRANCH  10  14
ENDBRANCH   2   4
TORSDOF 4
ENDMDL
MODEL 2
REMARK VINA RESULT:      -9.1      3.499      7.928
REMARK  4 active torsions:
REMARK  status: ('A' for Active; 'I' for Inactive)
REMARK    1  A    between atoms: CAS_21  and  CAD_10 
REMARK    2  A    between atoms: NAQ_19  and  CAT_22 
REMARK    3  A    between atoms: CAV_24  and  NAQ_19 
REMARK    4  A    between atoms: CAR_20  and  CAU_23 
ROOT
ATOM      1  CAA E1B d          22.670 -33.742  18.147  0.00  0.00    -0.149 C 
ATOM      2  CAD E1B d          22.679 -33.503  16.968  0.00  0.00    -0.078 C 
ATOM      3  H3  E1B d          22.662 -33.952  19.182  0.00  0.00     0.166 H 
ENDROOT
BRANCH   2   4
ATOM      4  CAS E1B d          22.688 -33.209  15.515  0.00  0.00     0.019 A 
ATOM      5  CAG E1B d          22.570 -34.205  14.559  0.00  0.00    -0.065 A 
ATOM      6  CAE E1B d          22.582 -33.871  13.215  0.00  0.00    -0.079 A 
ATOM      7  H5  E1B d          22.470 -35.241  14.862  0.00  0.00     0.085 H 
ATOM      8  CAH E1B d          22.725 -32.550  12.815  0.00  0.00    -0.057 A 
ATOM      9  H4  E1B d          22.479 -34.649  12.468  0.00  0.00     0.083 H 
ATOM     10  CAT E1B d          22.850 -31.574  13.784  0.00  0.00     0.035 A 
ATOM     11  H6  E1B d          22.737 -32.290  11.762  0.00  0.00     0.086 H 
ATOM     12  CAL E1B d          22.832 -31.899  15.125  0.00  0.00    -0.039 A 
ATOM     13  H9  E1B d          22.933 -31.121  15.872  0.00  0.00     0.089 H 
BRANCH  10  14
ATOM     14  NAQ E1B d          23.008 -30.200  13.512  0.00  0.00    -0.339 N 
ATOM     15  H11 E1B d          23.358 -30.127  12.546  0.00  0.00     0.167 HD
BRANCH  14  16
ATOM     16  CAV E1B d          22.891 -28.882  14.003  0.00  0.00     0.158 A 
ATOM     17  C4  E1B d          23.037 -27.696  13.214  0.00  0.00     0.116 A 
ATOM     18  N3  E1B d          23.290 -27.737  11.853  0.00  0.00    -0.237 NA
ATOM     19  C5  E1B d          22.927 -26.474  13.851  0.00  0.00     0.027 A 
ATOM     20  C2  E1B d          23.428 -26.602  11.145  0.00  0.00     0.087 A 
ATOM     21  N1  E1B d          23.329 -25.387  11.737  0.00  0.00    -0.253 NA
ATOM     22  H1  E1B d          23.620 -26.659  10.080  0.00  0.00     0.146 H 
ATOM     23  C6  E1B d          23.079 -25.288  13.066  0.00  0.00     0.017 A 
ATOM     24  H2  E1B d          22.994 -24.314  13.533  0.00  0.00     0.116 H 
ATOM     25  CAY E1B d          22.663 -26.469  15.304  0.00  0.00     0.007 A 
ATOM     26  CAJ E1B d          22.529 -25.237  16.005  0.00  0.00    -0.069 A 
ATOM     27  CAW E1B d          22.514 -27.652  15.996  0.00  0.00     0.071 A 
ATOM     28  CAI E1B d          22.274 -25.266  17.381  0.00  0.00    -0.066 A 
ATOM     29  H8  E1B d          22.624 -24.292  15.482  0.00  0.00     0.085 H 
ATOM     30  CAU E1B d          22.123 -26.479  18.083  0.00  0.00     0.043 A 
ATOM     31  H7  E1B d          22.189 -24.330  17.921  0.00  0.00     0.085 H 
ATOM     32  CAM E1B d          22.251 -27.685  17.397  0.00  0.00    -0.038 A 
ATOM     33  H10 E1B d          22.152 -28.630  17.919  0.00  0.00     0.088 H 
ATOM     34  NAP E1B d          22.636 -28.838  15.313  0.00  0.00    -0.228 NA
BRANCH  30  35
ATOM     35  CAR E1B d          21.864 -26.478  19.558  0.00  0.00     0.209 C 
ATOM     36  OAB E1B d          22.155 -27.591  20.066  0.00  0.00    -0.644 OA
ATOM     37  OAC E1B d          21.511 -25.331  19.928  0.00  0.00    -0.644 OA
ENDBRANCH  30  35
ENDBRANCH  14  16
ENDBRANCH  10  14
ENDBRANCH   2   4
TORSDOF 4
ENDMDL
MODEL 3
REMARK VINA RESULT:      -9.1      2.905      5.035
REMARK  4 active torsions:
REMARK  status: ('A' for Active; 'I' for Inactive)
REMARK    1  A    between atoms: CAS_21  and  CAD_10 
REMARK    2  A    between atoms: NAQ_19  and  CAT_22 
REMARK    3  A    between atoms: CAV_24  and  NAQ_19 
REMARK    4  A    between atoms: CAR_20  and  CAU_23 
ROOT
ATOM      1  CAA E1B d          22.517 -24.516  17.379  0.00  0.00    -0.149 C 
ATOM      2  CAD E1B d          22.671 -24.941  16.265  0.00  0.00    -0.078 C 
ATOM      3  H3  E1B d          22.383 -24.144  18.358  0.00  0.00     0.166 H 
ENDROOT
BRANCH   2   4
ATOM      4  CAS E1B d          22.864 -25.462  14.890  0.00  0.00     0.019 A 
ATOM      5  CAG E1B d          22.941 -24.628  13.787  0.00  0.00    -0.065 A 
ATOM      6  CAE E1B d          23.124 -25.172  12.527  0.00  0.00    -0.079 A 
ATOM      7  H5  E1B d          22.858 -23.554  13.910  0.00  0.00     0.085 H 
ATOM      8  CAH E1B d          23.216 -26.545  12.354  0.00  0.00    -0.057 A 
ATOM      9  H4  E1B d          23.196 -24.518  11.665  0.00  0.00     0.083 H 
ATOM     10  CAT E1B d          23.127 -27.360  13.466  0.00  0.00     0.035 A 
ATOM     11  H6  E1B d          23.356 -26.970  11.366  0.00  0.00     0.086 H 
ATOM     12  CAL E1B d          22.951 -26.824  14.726  0.00  0.00    -0.039 A 
ATOM     13  H9  E1B d          22.882 -27.478  15.588  0.00  0.00     0.089 H 
BRANCH  10  14
ATOM     14  NAQ E1B d          23.198 -28.767  13.428  0.00  0.00    -0.339 N 
ATOM     15  H11 E1B d          23.633 -29.018  12.530  0.00  0.00     0.167 HD
BRANCH  14  16
ATOM     16  CAV E1B d          22.924 -29.978  14.100  0.00  0.00     0.158 A 
ATOM     17  C4  E1B d          22.828 -31.261  13.472  0.00  0.00     0.116 A 
ATOM     18  N3  E1B d          23.025 -31.439  12.113  0.00  0.00    -0.237 NA
ATOM     19  C5  E1B d          22.519 -32.351  14.265  0.00  0.00     0.027 A 
ATOM     20  C2  E1B d          22.922 -32.660  11.557  0.00  0.00     0.087 A 
ATOM     21  N1  E1B d          22.616 -33.749  12.304  0.00  0.00    -0.253 NA
ATOM     22  H1  E1B d          23.085 -32.775  10.492  0.00  0.00     0.146 H 
ATOM     23  C6  E1B d          22.417 -33.632  13.640  0.00  0.00     0.017 A 
ATOM     24  H2  E1B d          22.180 -34.509  14.233  0.00  0.00     0.116 H 
ATOM     25  CAY E1B d          22.309 -32.122  15.709  0.00  0.00     0.007 A 
ATOM     26  CAJ E1B d          21.999 -33.213  16.571  0.00  0.00    -0.069 A 
ATOM     27  CAW E1B d          22.437 -30.860  16.247  0.00  0.00     0.071 A 
ATOM     28  CAI E1B d          21.812 -32.965  17.936  0.00  0.00    -0.066 A 
ATOM     29  H8  E1B d          21.910 -34.219  16.176  0.00  0.00     0.085 H 
ATOM     30  CAU E1B d          21.944 -31.671  18.480  0.00  0.00     0.043 A 
ATOM     31  H7  E1B d          21.559 -33.789  18.591  0.00  0.00     0.085 H 
ATOM     32  CAM E1B d          22.249 -30.604  17.638  0.00  0.00    -0.038 A 
ATOM     33  H10 E1B d          22.342 -29.599  18.032  0.00  0.00     0.088 H 
ATOM     34  NAP E1B d          22.744 -29.812  15.413  0.00  0.00    -0.228 NA
BRANCH  30  35
ATOM     35  CAR E1B d          21.724 -31.434  19.942  0.00  0.00     0.209 C 
ATOM     36  OAB E1B d          21.511 -32.517  20.546  0.00  0.00    -0.644 OA
ATOM     37  OAC E1B d          21.903 -30.221  20.209  0.00  0.00    -0.644 OA
ENDBRANCH  30  35
ENDBRANCH  14  16
ENDBRANCH  10  14
ENDBRANCH   2   4
TORSDOF 4
ENDMDL
MODEL 4
REMARK VINA RESULT:      -8.5      1.454      2.161
REMARK  4 active torsions:
REMARK  status: ('A' for Active; 'I' for Inactive)
REMARK    1  A    between atoms: CAS_21  and  CAD_10 
REMARK    2  A    between atoms: NAQ_19  and  CAT_22 
REMARK    3  A    between atoms: CAV_24  and  NAQ_19 
REMARK    4  A    between atoms: CAR_20  and  CAU_23 
ROOT
ATOM      1  CAA E1B d          23.053 -24.402  13.974  0.00  0.00    -0.149 C 
ATOM      2  CAD E1B d          22.756 -24.783  15.076  0.00  0.00    -0.078 C 
ATOM      3  H3  E1B d          23.313 -24.068  13.007  0.00  0.00     0.166 H 
ENDROOT
BRANCH   2   4
ATOM      4  CAS E1B d          22.387 -25.252  16.433  0.00  0.00     0.019 A 
ATOM      5  CAG E1B d          22.071 -24.374  17.458  0.00  0.00    -0.065 A 
ATOM      6  CAE E1B d          21.732 -24.870  18.705  0.00  0.00    -0.079 A 
ATOM      7  H5  E1B d          22.090 -23.304  17.283  0.00  0.00     0.085 H 
ATOM      8  CAH E1B d          21.719 -26.236  18.946  0.00  0.00    -0.057 A 
ATOM      9  H4  E1B d          21.473 -24.183  19.503  0.00  0.00     0.083 H 
ATOM     10  CAT E1B d          22.047 -27.093  17.913  0.00  0.00     0.035 A 
ATOM     11  H6  E1B d          21.457 -26.623  19.924  0.00  0.00     0.086 H 
ATOM     12  CAL E1B d          22.380 -26.606  16.665  0.00  0.00    -0.039 A 
ATOM     13  H9  E1B d          22.636 -27.293  15.867  0.00  0.00     0.089 H 
BRANCH  10  14
ATOM     14  NAQ E1B d          22.080 -28.497  18.026  0.00  0.00    -0.339 N 
ATOM     15  H11 E1B d          21.913 -28.719  19.018  0.00  0.00     0.167 HD
BRANCH  14  16
ATOM     16  CAV E1B d          22.245 -29.729  17.356  0.00  0.00     0.158 A 
ATOM     17  C4  E1B d          22.269 -31.012  17.992  0.00  0.00     0.116 A 
ATOM     18  N3  E1B d          22.103 -31.167  19.358  0.00  0.00    -0.237 NA
ATOM     19  C5  E1B d          22.475 -32.126  17.199  0.00  0.00     0.027 A 
ATOM     20  C2  E1B d          22.138 -32.389  19.920  0.00  0.00     0.087 A 
ATOM     21  N1  E1B d          22.341 -33.501  19.173  0.00  0.00    -0.253 NA
ATOM     22  H1  E1B d          22.000 -32.485  20.991  0.00  0.00     0.146 H 
ATOM     23  C6  E1B d          22.505 -33.408  17.831  0.00  0.00     0.017 A 
ATOM     24  H2  E1B d          22.660 -34.302  17.238  0.00  0.00     0.116 H 
ATOM     25  CAY E1B d          22.654 -31.922  15.747  0.00  0.00     0.007 A 
ATOM     26  CAJ E1B d          22.858 -33.037  14.885  0.00  0.00    -0.069 A 
ATOM     27  CAW E1B d          22.599 -30.657  15.202  0.00  0.00     0.071 A 
ATOM     28  CAI E1B d          23.019 -32.811  13.513  0.00  0.00    -0.066 A 
ATOM     29  H8  E1B d          22.887 -34.044  15.285  0.00  0.00     0.085 H 
ATOM     30  CAU E1B d          22.962 -31.514  12.962  0.00  0.00     0.043 A 
ATOM     31  H7  E1B d          23.191 -33.655  12.856  0.00  0.00     0.085 H 
ATOM     32  CAM E1B d          22.760 -30.423  13.804  0.00  0.00    -0.038 A 
ATOM     33  H10 E1B d          22.727 -29.416  13.405  0.00  0.00     0.088 H 
ATOM     34  NAP E1B d          22.395 -29.585  16.037  0.00  0.00    -0.228 NA
BRANCH  30  35
ATOM     35  CAR E1B d          23.152 -31.303  11.492  0.00  0.00     0.209 C 
ATOM     36  OAB E1B d          23.391 -30.094  11.239  0.00  0.00    -0.644 OA
ATOM     37  OAC E1B d          23.118 -32.406  10.894  0.00  0.00    -0.644 OA
ENDBRANCH  30  35
ENDBRANCH  14  16
ENDBRANCH  10  14
ENDBRANCH   2   4
TORSDOF 4
ENDMDL
MODEL 5
REMARK VINA RESULT:      -7.7      2.063      5.843
REMARK  4 active torsions:
REMARK  status: ('A' for Active; 'I' for Inactive)
REMARK    1  A    between atoms: CAS_21  and  CAD_10 
REMARK    2  A    between atoms: NAQ_19  and  CAT_22 
REMARK    3  A    between atoms: CAV_24  and  NAQ_19 
REMARK    4  A    between atoms: CAR_20  and  CAU_23 
ROOT
ATOM      1  CAA E1B d          22.351 -32.937  19.063  0.00  0.00    -0.149 C 
ATOM      2  CAD E1B d          22.403 -31.738  19.142  0.00  0.00    -0.078 C 
ATOM      3  H3  E1B d          22.305 -33.989  18.993  0.00  0.00     0.166 H 
ENDROOT
BRANCH   2   4
ATOM      4  CAS E1B d          22.470 -30.260  19.237  0.00  0.00     0.019 A 
ATOM      5  CAG E1B d          22.431 -29.595  20.452  0.00  0.00    -0.065 A 
ATOM      6  CAE E1B d          22.499 -28.212  20.480  0.00  0.00    -0.079 A 
ATOM      7  H5  E1B d          22.347 -30.155  21.377  0.00  0.00     0.085 H 
ATOM      8  CAH E1B d          22.592 -27.483  19.303  0.00  0.00    -0.057 A 
ATOM      9  H4  E1B d          22.481 -27.693  21.432  0.00  0.00     0.083 H 
ATOM     10  CAT E1B d          22.619 -28.165  18.102  0.00  0.00     0.035 A 
ATOM     11  H6  E1B d          22.642 -26.401  19.326  0.00  0.00     0.086 H 
ATOM     12  CAL E1B d          22.557 -29.544  18.068  0.00  0.00    -0.039 A 
ATOM     13  H9  E1B d          22.578 -30.063  17.116  0.00  0.00     0.089 H 
BRANCH  10  14
ATOM     14  NAQ E1B d          22.703 -27.547  16.839  0.00  0.00    -0.339 N 
ATOM     15  H11 E1B d          22.671 -26.531  17.004  0.00  0.00     0.167 HD
BRANCH  14  16
ATOM     16  CAV E1B d          22.811 -27.730  15.443  0.00  0.00     0.158 A 
ATOM     17  C4  E1B d          22.911 -26.673  14.482  0.00  0.00     0.116 A 
ATOM     18  N3  E1B d          22.936 -25.337  14.848  0.00  0.00    -0.237 NA
ATOM     19  C5  E1B d          22.976 -27.015  13.145  0.00  0.00     0.027 A 
ATOM     20  C2  E1B d          23.025 -24.371  13.916  0.00  0.00     0.087 A 
ATOM     21  N1  E1B d          23.087 -24.671  12.596  0.00  0.00    -0.253 NA
ATOM     22  H1  E1B d          23.048 -23.333  14.227  0.00  0.00     0.146 H 
ATOM     23  C6  E1B d          23.070 -25.962  12.182  0.00  0.00     0.017 A 
ATOM     24  H2  E1B d          23.128 -26.195  11.125  0.00  0.00     0.116 H 
ATOM     25  CAY E1B d          22.941 -28.449  12.792  0.00  0.00     0.007 A 
ATOM     26  CAJ E1B d          23.017 -28.855  11.428  0.00  0.00    -0.069 A 
ATOM     27  CAW E1B d          22.863 -29.413  13.773  0.00  0.00     0.071 A 
ATOM     28  CAI E1B d          22.987 -30.222  11.127  0.00  0.00    -0.066 A 
ATOM     29  H8  E1B d          23.097 -28.117  10.638  0.00  0.00     0.085 H 
ATOM     30  CAU E1B d          22.907 -31.203  12.136  0.00  0.00     0.043 A 
ATOM     31  H7  E1B d          23.026 -30.533  10.090  0.00  0.00     0.085 H 
ATOM     32  CAM E1B d          22.835 -30.807  13.470  0.00  0.00    -0.038 A 
ATOM     33  H10 E1B d          22.759 -31.543  14.261  0.00  0.00     0.088 H 
ATOM     34  NAP E1B d          22.798 -29.016  15.087  0.00  0.00    -0.228 NA
BRANCH  30  35
ATOM     35  CAR E1B d          22.862 -32.657  11.782  0.00  0.00     0.209 C 
ATOM     36  OAB E1B d          23.008 -32.823  10.543  0.00  0.00    -0.644 OA
ATOM     37  OAC E1B d          22.786 -33.348  12.827  0.00  0.00    -0.644 OA
ENDBRANCH  30  35
ENDBRANCH  14  16
ENDBRANCH  10  14
ENDBRANCH   2   4
TORSDOF 4
ENDMDL
MODEL 6
REMARK VINA RESULT:      -6.9      2.573      7.004
REMARK  4 active torsions:
REMARK  status: ('A' for Active; 'I' for Inactive)
REMARK    1  A    between atoms: CAS_21  and  CAD_10 
REMARK    2  A    between atoms: NAQ_19  and  CAT_22 
REMARK    3  A    between atoms: CAV_24  and  NAQ_19 
REMARK    4  A    between atoms: CAR_20  and  CAU_23 
ROOT
ATOM      1  CAA E1B d          22.340 -34.536  20.559  0.00  0.00    -0.149 C 
ATOM      2  CAD E1B d          22.344 -33.938  19.516  0.00  0.00    -0.078 C 
ATOM      3  H3  E1B d          22.337 -35.062  21.474  0.00  0.00     0.166 H 
ENDROOT
BRANCH   2   4
ATOM      4  CAS E1B d          22.349 -33.203  18.228  0.00  0.00     0.019 A 
ATOM      5  CAG E1B d          22.690 -33.811  17.030  0.00  0.00    -0.065 A 
ATOM      6  CAE E1B d          22.674 -33.074  15.858  0.00  0.00    -0.079 A 
ATOM      7  H5  E1B d          22.967 -34.859  17.012  0.00  0.00     0.085 H 
ATOM      8  CAH E1B d          22.336 -31.729  15.871  0.00  0.00    -0.057 A 
ATOM      9  H4  E1B d          22.930 -33.554  14.920  0.00  0.00     0.083 H 
ATOM     10  CAT E1B d          22.010 -31.139  17.077  0.00  0.00     0.035 A 
ATOM     11  H6  E1B d          22.328 -31.152  14.953  0.00  0.00     0.086 H 
ATOM     12  CAL E1B d          22.016 -31.870  18.248  0.00  0.00    -0.039 A 
ATOM     13  H9  E1B d          21.759 -31.391  19.186  0.00  0.00     0.089 H 
BRANCH  10  14
ATOM     14  NAQ E1B d          21.656 -29.784  17.228  0.00  0.00    -0.339 N 
ATOM     15  H11 E1B d          20.848 -29.758  17.866  0.00  0.00     0.167 HD
BRANCH  14  16
ATOM     16  CAV E1B d          21.940 -28.447  16.876  0.00  0.00     0.158 A 
ATOM     17  C4  E1B d          21.933 -27.339  17.785  0.00  0.00     0.116 A 
ATOM     18  N3  E1B d          21.663 -27.489  19.135  0.00  0.00    -0.237 NA
ATOM     19  C5  E1B d          22.199 -26.081  17.278  0.00  0.00     0.027 A 
ATOM     20  C2  E1B d          21.660 -26.424  19.957  0.00  0.00     0.087 A 
ATOM     21  N1  E1B d          21.913 -25.177  19.493  0.00  0.00    -0.253 NA
ATOM     22  H1  E1B d          21.451 -26.567  21.011  0.00  0.00     0.146 H 
ATOM     23  C6  E1B d          22.187 -24.973  18.181  0.00  0.00     0.017 A 
ATOM     24  H2  E1B d          22.396 -23.974  17.817  0.00  0.00     0.116 H 
ATOM     25  CAY E1B d          22.477 -25.959  15.832  0.00  0.00     0.007 A 
ATOM     26  CAJ E1B d          22.768 -24.687  15.262  0.00  0.00    -0.069 A 
ATOM     27  CAW E1B d          22.486 -27.073  15.021  0.00  0.00     0.071 A 
ATOM     28  CAI E1B d          23.032 -24.605  13.890  0.00  0.00    -0.066 A 
ATOM     29  H8  E1B d          22.785 -23.797  15.881  0.00  0.00     0.085 H 
ATOM     30  CAU E1B d          23.039 -25.749  13.065  0.00  0.00     0.043 A 
ATOM     31  H7  E1B d          23.237 -23.636  13.449  0.00  0.00     0.085 H 
ATOM     32  CAM E1B d          22.757 -26.994  13.623  0.00  0.00    -0.038 A 
ATOM     33  H10 E1B d          22.743 -27.885  13.006  0.00  0.00     0.088 H 
ATOM     34  NAP E1B d          22.211 -28.299  15.577  0.00  0.00    -0.228 NA
BRANCH  30  35
ATOM     35  CAR E1B d          23.311 -25.628  11.598  0.00  0.00     0.209 C 
ATOM     36  OAB E1B d          23.232 -26.749  11.032  0.00  0.00    -0.644 OA
ATOM     37  OAC E1B d          23.455 -24.419  11.289  0.00  0.00    -0.644 OA
ENDBRANCH  30  35
ENDBRANCH  14  16
ENDBRANCH  10  14
ENDBRANCH   2   4
TORSDOF 4
ENDMDL
