REMARK  2 active torsions:
REMARK  status: ('A' for Active; 'I' for Inactive)
REMARK       I    between atoms: N4_8  and  C11_17 
REMARK    1  A    between atoms: C16_22  and  N4_8 
REMARK    2  A    between atoms: C11_17  and  C12_18 
ROOT
ATOM      1  C1  YKI d          13.310  14.405  26.485  0.00  0.00     0.004 A 
ATOM      2  N1  YKI d          13.026  14.614  27.834  0.00  0.00    -0.271 NA
ATOM      3  C2  YKI d          11.716  14.696  28.295  0.00  0.00     0.030 A 
ATOM      4  N2  YKI d           9.291  14.593  27.488  0.00  0.00    -0.337 N 
ATOM      5  C3  YKI d          12.283  14.261  25.522  0.00  0.00    -0.036 A 
ATOM      6  N3  YKI d           9.740  14.258  25.343  0.00  0.00    -0.228 NA
ATOM      7  C4  YKI d           8.758  14.411  26.268  0.00  0.00     0.140 A 
ATOM      8  C5  YKI d          10.953  14.344  25.969  0.00  0.00     0.088 A 
ATOM      9  C6  YKI d          10.658  14.559  27.374  0.00  0.00     0.080 A 
ATOM     10  C7  YKI d           7.331  14.405  26.030  0.00  0.00     0.022 A 
ATOM     11  C8  YKI d           4.475  14.576  25.639  0.00  0.00    -0.074 A 
ATOM     12  C9  YKI d           5.159  15.577  26.392  0.00  0.00    -0.081 A 
ATOM     13  C10 YKI d           6.578  15.475  26.577  0.00  0.00    -0.068 A 
ATOM     14  C16 YKI d           4.571  12.387  24.272  0.00  0.00     0.065 A 
ATOM     15  C17 YKI d           5.196  13.465  25.065  0.00  0.00    -0.019 A 
ATOM     16  C18 YKI d           6.585  13.335  25.230  0.00  0.00    -0.003 A 
ATOM     17  C19 YKI d           5.824  11.517  23.956  0.00  0.00    -0.020 A 
ATOM     18  C20 YKI d           7.009  12.105  24.525  0.00  0.00    -0.016 A 
ATOM     19  C21 YKI d           8.293  11.433  24.326  0.00  0.00    -0.072 A 
ATOM     20  C22 YKI d           8.370  10.214  23.575  0.00  0.00    -0.082 A 
ATOM     21  C23 YKI d           7.160   9.637  23.009  0.00  0.00    -0.082 A 
ATOM     22  C24 YKI d           5.896  10.288  23.198  0.00  0.00    -0.074 A 
ATOM     23  H1  YKI d          14.345  14.351  26.166  0.00  0.00     0.114 H 
ATOM     24  H2  YKI d          11.512  14.863  29.346  0.00  0.00     0.118 H 
ATOM     25  H3  YKI d           8.763  14.734  28.361  0.00  0.00     0.167 HD
ATOM     26  H4  YKI d          12.514  14.093  24.476  0.00  0.00     0.089 H 
ATOM     27  H7  YKI d           3.403  14.651  25.497  0.00  0.00     0.084 H 
ATOM     28  H8  YKI d           4.611  16.408  26.821  0.00  0.00     0.083 H 
ATOM     29  H9  YKI d           7.090  16.238  27.152  0.00  0.00     0.085 H 
ATOM     30  H12 YKI d           4.278  12.833  23.310  0.00  0.00     0.088 H 
ATOM     31  H13 YKI d           9.194  11.860  24.750  0.00  0.00     0.084 H 
ATOM     32  H14 YKI d           9.326   9.724  23.429  0.00  0.00     0.083 H 
ATOM     33  H15 YKI d           7.214   8.714  22.444  0.00  0.00     0.083 H 
ATOM     34  H16 YKI d           4.996   9.859  22.773  0.00  0.00     0.084 H 
ENDROOT
BRANCH  14  35
ATOM     35  N4  YKI d           3.569  11.956  24.655  0.00  0.00    -0.344 N 
ATOM     36  C11 YKI d           2.444  11.485  24.079  0.00  0.00     0.253 C 
ATOM     37  O13 YKI d           2.424  11.480  22.839  0.00  0.00    -0.268 OA
ATOM     38  H5  YKI d           3.526  11.925  25.654  0.00  0.00     0.163 HD
BRANCH  36  39
ATOM     39  C12 YKI d           1.243  11.011  24.859  0.00  0.00     0.047 A 
ATOM     40  C14 YKI d           1.292  10.182  26.038  0.00  0.00    -0.050 A 
ATOM     41  C15 YKI d           0.047   9.826  26.664  0.00  0.00     0.005 A 
ATOM     42  H10 YKI d           2.238   9.838  26.440  0.00  0.00     0.087 H 
ATOM     43  N5  YKI d          -1.162  10.267  26.134  0.00  0.00    -0.242 NA
ATOM     44  H11 YKI d           0.050   9.209  27.556  0.00  0.00     0.114 H 
ATOM     45  C26 YKI d          -1.224  11.073  24.992  0.00  0.00     0.138 A 
ATOM     46  N6  YKI d          -2.359  11.562  24.386  0.00  0.00    -0.350 N 
ATOM     47  C25 YKI d          -0.080  11.456  24.325  0.00  0.00     0.027 A 
ATOM     48  C27 YKI d          -1.935  12.299  23.294  0.00  0.00    -0.020 A 
ATOM     49  H6  YKI d          -3.332  11.409  24.686  0.00  0.00     0.166 HD
ATOM     50  C28 YKI d          -0.527  12.264  23.221  0.00  0.00    -0.053 A 
ATOM     51  H17 YKI d          -2.588  12.825  22.599  0.00  0.00     0.111 H 
ATOM     52  H18 YKI d           0.099  12.752  22.476  0.00  0.00     0.087 H 
ENDBRANCH  36  39
ENDBRANCH  14  35
TORSDOF 2
