MODEL 1
REMARK VINA RESULT:      -8.1      0.000      0.000
REMARK  17 active torsions:
REMARK  status: ('A' for Active; 'I' for Inactive)
REMARK    1  A    between atoms: CBD_3  and  OAI_4 
REMARK    2  A    between atoms: CBF_7  and  CAV_8 
REMARK    3  A    between atoms: CAV_8  and  CBI_9 
REMARK    4  A    between atoms: CBI_9  and  PBK_10 
REMARK    5  A    between atoms: CBI_9  and  NAY_14 
REMARK       I    between atoms: NAY_14  and  C_15 
REMARK    6  A    between atoms: C_15  and  CA_17 
REMARK    7  A    between atoms: CA_17  and  N_18 
REMARK    8  A    between atoms: CA_17  and  CB_30 
REMARK       I    between atoms: N_18  and  CBB_19 
REMARK    9  A    between atoms: CBB_19  and  CBJ_21 
REMARK   10  A    between atoms: CBJ_21  and  CBG_22 
REMARK   11  A    between atoms: CBJ_21  and  NAX_26 
REMARK   12  A    between atoms: CBG_22  and  CAC_23 
REMARK   13  A    between atoms: CBG_22  and  CAT_24 
REMARK   14  A    between atoms: CAT_24  and  CAA_25 
REMARK       I    between atoms: NAX_26  and  CAZ_27 
REMARK   15  A    between atoms: CAZ_27  and  CAB_28 
REMARK   16  A    between atoms: CB_30  and  CG_31 
REMARK   17  A    between atoms: CZ_34  and  OH_35 
ROOT
ATOM      1  CA  K26 d          -9.176  22.484 -13.624  0.00  0.00     0.093 C 
ATOM      2  H10 K26 d          -8.959  21.612 -12.989  0.00  0.00     0.088 H 
ENDROOT
BRANCH   1   3
ATOM      3  C   K26 d          -7.907  23.333 -13.741  0.00  0.00     0.241 C 
ATOM      4  NAY K26 d          -6.768  22.644 -13.841  0.00  0.00    -0.342 N 
ATOM      5  H9  K26 d          -6.811  21.648 -13.917  0.00  0.00     0.163 HD
ATOM      6  O   K26 d          -7.987  24.561 -13.700  0.00  0.00    -0.271 OA
BRANCH   4   7
ATOM      7  CBI K26 d          -5.449  23.300 -13.843  0.00  0.00     0.124 C 
ATOM      8  H8  K26 d          -5.582  24.369 -13.622  0.00  0.00     0.095 H 
BRANCH   7   9
ATOM      9  CAV K26 d          -4.601  22.663 -12.718  0.00  0.00    -0.010 C 
ATOM     10  H6  K26 d          -5.077  21.724 -12.401  0.00  0.00     0.044 H 
ATOM     11  H7  K26 d          -3.594  22.451 -13.107  0.00  0.00     0.044 H 
BRANCH   9  12
ATOM     12  CBF K26 d          -4.479  23.596 -11.503  0.00  0.00    -0.055 A 
ATOM     13  CAR K26 d          -3.281  24.271 -11.275  0.00  0.00    -0.074 A 
ATOM     14  CAN K26 d          -3.152  25.130 -10.187  0.00  0.00    -0.051 A 
ATOM     15  H1  K26 d          -2.445  24.126 -11.950  0.00  0.00     0.084 H 
ATOM     16  CBD K26 d          -4.228  25.319  -9.319  0.00  0.00     0.065 A 
ATOM     17  H2  K26 d          -2.217  25.651 -10.015  0.00  0.00     0.087 H 
ATOM     18  CAO K26 d          -5.439  24.656  -9.542  0.00  0.00    -0.051 A 
ATOM     19  CAS K26 d          -5.559  23.793 -10.632  0.00  0.00    -0.074 A 
ATOM     20  H4  K26 d          -6.277  24.810  -8.872  0.00  0.00     0.087 H 
ATOM     21  H5  K26 d          -6.494  23.272 -10.806  0.00  0.00     0.084 H 
BRANCH  16  22
ATOM     22  OAI K26 d          -4.085  26.161  -8.259  0.00  0.00    -0.361 OA
ATOM     23  H3  K26 d          -3.325  25.902  -7.751  0.00  0.00     0.217 HD
ENDBRANCH  16  22
ENDBRANCH   9  12
ENDBRANCH   7   9
BRANCH   7  24
ATOM     24  PBK K26 d          -4.646  23.154 -15.495  0.00  0.00     0.283 P 
ATOM     25  OAJ K26 d          -4.497  24.634 -16.037  0.00  0.00    -0.638 OA
ATOM     26  OAK K26 d          -3.155  22.593 -15.143  0.00  0.00    -0.638 OA
ATOM     27  OAG K26 d          -5.396  22.283 -16.439  0.00  0.00    -0.638 OA
ENDBRANCH   7  24
ENDBRANCH   4   7
ENDBRANCH   1   3
BRANCH   1  28
ATOM     28  N   K26 d         -10.236  23.294 -12.989  0.00  0.00    -0.346 N 
ATOM     29  CBB K26 d         -10.485  23.312 -11.674  0.00  0.00     0.241 C 
ATOM     30  OAF K26 d          -9.884  22.638 -10.836  0.00  0.00    -0.271 OA
ATOM     31  H11 K26 d         -10.804  23.867 -13.580  0.00  0.00     0.163 HD
BRANCH  29  32
ATOM     32  CBJ K26 d         -11.675  24.197 -11.261  0.00  0.00     0.092 C 
ATOM     33  H12 K26 d         -12.087  24.676 -12.160  0.00  0.00     0.088 H 
BRANCH  32  34
ATOM     34  CBG K26 d         -11.276  25.310 -10.284  0.00  0.00    -0.030 C 
ATOM     35  H13 K26 d         -12.030  26.110 -10.338  0.00  0.00     0.043 H 
BRANCH  34  36
ATOM     36  CAC K26 d         -11.242  24.763  -8.852  0.00  0.00    -0.071 C 
ATOM     37  H14 K26 d         -11.604  25.534  -8.156  0.00  0.00     0.028 H 
ATOM     38  H15 K26 d         -10.210  24.487  -8.589  0.00  0.00     0.028 H 
ATOM     39  H16 K26 d         -11.887  23.874  -8.783  0.00  0.00     0.028 H 
ENDBRANCH  34  36
BRANCH  34  40
ATOM     40  CAT K26 d          -9.907  25.904 -10.656  0.00  0.00    -0.063 C 
ATOM     41  H17 K26 d          -9.220  25.079 -10.899  0.00  0.00     0.033 H 
ATOM     42  H18 K26 d          -9.519  26.462  -9.792  0.00  0.00     0.033 H 
BRANCH  40  43
ATOM     43  CAA K26 d          -9.983  26.848 -11.856  0.00  0.00    -0.076 C 
ATOM     44  H19 K26 d          -9.017  27.359 -11.980  0.00  0.00     0.027 H 
ATOM     45  H20 K26 d         -10.774  27.594 -11.686  0.00  0.00     0.027 H 
ATOM     46  H21 K26 d         -10.213  26.270 -12.763  0.00  0.00     0.027 H 
ENDBRANCH  40  43
ENDBRANCH  34  40
ENDBRANCH  32  34
BRANCH  32  47
ATOM     47  NAX K26 d         -12.696  23.294 -10.692  0.00  0.00    -0.348 N 
ATOM     48  CAZ K26 d         -13.821  22.995 -11.344  0.00  0.00     0.214 C 
ATOM     49  OAD K26 d         -14.142  23.478 -12.429  0.00  0.00    -0.274 OA
ATOM     50  H22 K26 d         -12.539  22.894  -9.789  0.00  0.00     0.163 HD
BRANCH  48  51
ATOM     51  CAB K26 d         -14.749  22.009 -10.632  0.00  0.00    -0.003 C 
ATOM     52  H23 K26 d         -15.621  21.801 -11.268  0.00  0.00     0.040 H 
ATOM     53  H24 K26 d         -15.084  22.444  -9.679  0.00  0.00     0.040 H 
ATOM     54  H25 K26 d         -14.206  21.072 -10.436  0.00  0.00     0.040 H 
ENDBRANCH  48  51
ENDBRANCH  32  47
ENDBRANCH  29  32
ENDBRANCH   1  28
BRANCH   1  55
ATOM     55  CB  K26 d          -9.662  21.988 -14.979  0.00  0.00    -0.014 C 
ATOM     56  H26 K26 d         -10.625  21.471 -14.860  0.00  0.00     0.043 H 
ATOM     57  H27 K26 d          -8.924  21.293 -15.405  0.00  0.00     0.043 H 
BRANCH  55  58
ATOM     58  CG  K26 d          -9.836  23.194 -15.916  0.00  0.00    -0.056 A 
ATOM     59  CD1 K26 d          -8.892  23.444 -16.910  0.00  0.00    -0.074 A 
ATOM     60  CE1 K26 d          -9.054  24.529 -17.775  0.00  0.00    -0.051 A 
ATOM     61  H28 K26 d          -8.030  22.794 -17.014  0.00  0.00     0.084 H 
ATOM     62  CZ  K26 d         -10.162  25.367 -17.649  0.00  0.00     0.065 A 
ATOM     63  H29 K26 d          -8.316  24.721 -18.547  0.00  0.00     0.087 H 
ATOM     64  CE2 K26 d         -11.109  25.113 -16.657  0.00  0.00    -0.051 A 
ATOM     65  CD2 K26 d         -10.951  24.026 -15.794  0.00  0.00    -0.074 A 
ATOM     66  H31 K26 d         -11.972  25.761 -16.555  0.00  0.00     0.087 H 
ATOM     67  H32 K26 d         -11.694  23.827 -15.030  0.00  0.00     0.084 H 
BRANCH  62  68
ATOM     68  OH  K26 d         -10.312  26.436 -18.490  0.00  0.00    -0.361 OA
ATOM     69  H30 K26 d          -9.699  27.119 -18.244  0.00  0.00     0.217 HD
ENDBRANCH  62  68
ENDBRANCH  55  58
ENDBRANCH   1  55
TORSDOF 17
ENDMDL
MODEL 2
REMARK VINA RESULT:      -7.7      2.258      6.056
REMARK  17 active torsions:
REMARK  status: ('A' for Active; 'I' for Inactive)
REMARK    1  A    between atoms: CBD_3  and  OAI_4 
REMARK    2  A    between atoms: CBF_7  and  CAV_8 
REMARK    3  A    between atoms: CAV_8  and  CBI_9 
REMARK    4  A    between atoms: CBI_9  and  PBK_10 
REMARK    5  A    between atoms: CBI_9  and  NAY_14 
REMARK       I    between atoms: NAY_14  and  C_15 
REMARK    6  A    between atoms: C_15  and  CA_17 
REMARK    7  A    between atoms: CA_17  and  N_18 
REMARK    8  A    between atoms: CA_17  and  CB_30 
REMARK       I    between atoms: N_18  and  CBB_19 
REMARK    9  A    between atoms: CBB_19  and  CBJ_21 
REMARK   10  A    between atoms: CBJ_21  and  CBG_22 
REMARK   11  A    between atoms: CBJ_21  and  NAX_26 
REMARK   12  A    between atoms: CBG_22  and  CAC_23 
REMARK   13  A    between atoms: CBG_22  and  CAT_24 
REMARK   14  A    between atoms: CAT_24  and  CAA_25 
REMARK       I    between atoms: NAX_26  and  CAZ_27 
REMARK   15  A    between atoms: CAZ_27  and  CAB_28 
REMARK   16  A    between atoms: CB_30  and  CG_31 
REMARK   17  A    between atoms: CZ_34  and  OH_35 
ROOT
ATOM      1  CA  K26 d          -8.993  24.536 -11.425  0.00  0.00     0.093 C 
ATOM      2  H10 K26 d          -9.658  25.333 -11.063  0.00  0.00     0.088 H 
ENDROOT
BRANCH   1   3
ATOM      3  C   K26 d          -7.615  24.719 -10.784  0.00  0.00     0.241 C 
ATOM      4  NAY K26 d          -6.593  24.203 -11.471  0.00  0.00    -0.342 N 
ATOM      5  H9  K26 d          -6.766  23.814 -12.376  0.00  0.00     0.163 HD
ATOM      6  O   K26 d          -7.518  25.277  -9.690  0.00  0.00    -0.271 OA
BRANCH   4   7
ATOM      7  CBI K26 d          -5.218  24.187 -10.943  0.00  0.00     0.124 C 
ATOM      8  H8  K26 d          -5.258  24.129  -9.845  0.00  0.00     0.095 H 
BRANCH   7   9
ATOM      9  CAV K26 d          -4.518  22.917 -11.480  0.00  0.00    -0.010 C 
ATOM     10  H6  K26 d          -3.460  22.939 -11.180  0.00  0.00     0.044 H 
ATOM     11  H7  K26 d          -5.004  22.031 -11.045  0.00  0.00     0.044 H 
BRANCH   9  12
ATOM     12  CBF K26 d          -4.601  22.828 -13.012  0.00  0.00    -0.055 A 
ATOM     13  CAR K26 d          -3.460  23.072 -13.774  0.00  0.00    -0.074 A 
ATOM     14  CAN K26 d          -3.509  22.985 -15.163  0.00  0.00    -0.051 A 
ATOM     15  H1  K26 d          -2.529  23.330 -13.282  0.00  0.00     0.084 H 
ATOM     16  CBD K26 d          -4.705  22.651 -15.798  0.00  0.00     0.065 A 
ATOM     17  H2  K26 d          -2.618  23.177 -15.750  0.00  0.00     0.087 H 
ATOM     18  CAO K26 d          -5.855  22.394 -15.044  0.00  0.00    -0.051 A 
ATOM     19  CAS K26 d          -5.800  22.487 -13.653  0.00  0.00    -0.074 A 
ATOM     20  H4  K26 d          -6.782  22.126 -15.538  0.00  0.00     0.087 H 
ATOM     21  H5  K26 d          -6.690  22.294 -13.064  0.00  0.00     0.084 H 
BRANCH  16  22
ATOM     22  OAI K26 d          -4.736  22.572 -17.156  0.00  0.00    -0.361 OA
ATOM     23  H3  K26 d          -5.606  22.798 -17.465  0.00  0.00     0.217 HD
ENDBRANCH  16  22
ENDBRANCH   9  12
ENDBRANCH   7   9
BRANCH   7  24
ATOM     24  PBK K26 d          -4.320  25.729 -11.403  0.00  0.00     0.283 P 
ATOM     25  OAJ K26 d          -5.036  26.275 -12.705  0.00  0.00    -0.638 OA
ATOM     26  OAK K26 d          -4.661  26.746 -10.174  0.00  0.00    -0.638 OA
ATOM     27  OAG K26 d          -2.861  25.521 -11.608  0.00  0.00    -0.638 OA
ENDBRANCH   7  24
ENDBRANCH   4   7
ENDBRANCH   1   3
BRANCH   1  28
ATOM     28  N   K26 d          -8.857  24.645 -12.892  0.00  0.00    -0.346 N 
ATOM     29  CBB K26 d          -9.761  25.223 -13.692  0.00  0.00     0.241 C 
ATOM     30  OAF K26 d         -10.827  25.710 -13.310  0.00  0.00    -0.271 OA
ATOM     31  H11 K26 d          -8.036  24.262 -13.315  0.00  0.00     0.163 HD
BRANCH  29  32
ATOM     32  CBJ K26 d          -9.417  25.168 -15.190  0.00  0.00     0.092 C 
ATOM     33  H12 K26 d          -9.822  26.067 -15.679  0.00  0.00     0.088 H 
BRANCH  32  34
ATOM     34  CBG K26 d         -10.022  23.947 -15.894  0.00  0.00    -0.030 C 
ATOM     35  H13 K26 d         -10.869  24.283 -16.512  0.00  0.00     0.043 H 
BRANCH  34  36
ATOM     36  CAC K26 d          -8.975  23.297 -16.807  0.00  0.00    -0.071 C 
ATOM     37  H14 K26 d          -9.067  23.709 -17.823  0.00  0.00     0.028 H 
ATOM     38  H15 K26 d          -9.139  22.210 -16.836  0.00  0.00     0.028 H 
ATOM     39  H16 K26 d          -7.968  23.505 -16.416  0.00  0.00     0.028 H 
ENDBRANCH  34  36
BRANCH  34  40
ATOM     40  CAT K26 d         -10.541  22.924 -14.871  0.00  0.00    -0.063 C 
ATOM     41  H17 K26 d         -11.534  22.576 -15.194  0.00  0.00     0.033 H 
ATOM     42  H18 K26 d         -10.626  23.418 -13.892  0.00  0.00     0.033 H 
BRANCH  40  43
ATOM     43  CAA K26 d          -9.619  21.713 -14.730  0.00  0.00    -0.076 C 
ATOM     44  H19 K26 d         -10.051  20.859 -15.272  0.00  0.00     0.027 H 
ATOM     45  H20 K26 d          -9.512  21.456 -13.666  0.00  0.00     0.027 H 
ATOM     46  H21 K26 d          -8.632  21.954 -15.151  0.00  0.00     0.027 H 
ENDBRANCH  40  43
ENDBRANCH  34  40
ENDBRANCH  32  34
BRANCH  32  47
ATOM     47  NAX K26 d          -7.944  25.196 -15.287  0.00  0.00    -0.348 N 
ATOM     48  CAZ K26 d          -7.292  26.187 -15.897  0.00  0.00     0.214 C 
ATOM     49  OAD K26 d          -7.840  27.121 -16.481  0.00  0.00    -0.274 OA
ATOM     50  H22 K26 d          -7.418  24.448 -14.883  0.00  0.00     0.163 HD
BRANCH  48  51
ATOM     51  CAB K26 d          -5.766  26.084 -15.867  0.00  0.00    -0.003 C 
ATOM     52  H23 K26 d          -5.434  25.328 -16.594  0.00  0.00     0.040 H 
ATOM     53  H24 K26 d          -5.439  25.791 -14.858  0.00  0.00     0.040 H 
ATOM     54  H25 K26 d          -5.327  27.059 -16.125  0.00  0.00     0.040 H 
ENDBRANCH  48  51
ENDBRANCH  32  47
ENDBRANCH  29  32
ENDBRANCH   1  28
BRANCH   1  55
ATOM     55  CB  K26 d          -9.614  23.190 -11.074  0.00  0.00    -0.014 C 
ATOM     56  H26 K26 d          -9.113  22.771 -10.189  0.00  0.00     0.043 H 
ATOM     57  H27 K26 d          -9.500  22.498 -11.921  0.00  0.00     0.043 H 
BRANCH  55  58
ATOM     58  CG  K26 d         -11.107  23.397 -10.773  0.00  0.00    -0.056 A 
ATOM     59  CD1 K26 d         -11.505  24.381  -9.871  0.00  0.00    -0.074 A 
ATOM     60  CE1 K26 d         -12.862  24.584  -9.606  0.00  0.00    -0.051 A 
ATOM     61  H28 K26 d         -10.760  24.992  -9.373  0.00  0.00     0.084 H 
ATOM     62  CZ  K26 d         -13.825  23.802 -10.245  0.00  0.00     0.065 A 
ATOM     63  H29 K26 d         -13.167  25.350  -8.902  0.00  0.00     0.087 H 
ATOM     64  CE2 K26 d         -13.426  22.821 -11.153  0.00  0.00    -0.051 A 
ATOM     65  CD2 K26 d         -12.070  22.620 -11.421  0.00  0.00    -0.074 A 
ATOM     66  H31 K26 d         -14.171  22.212 -11.651  0.00  0.00     0.087 H 
ATOM     67  H32 K26 d         -11.765  21.862 -12.133  0.00  0.00     0.084 H 
BRANCH  62  68
ATOM     68  OH  K26 d         -15.152  23.996  -9.975  0.00  0.00    -0.361 OA
ATOM     69  H30 K26 d         -15.613  23.169 -10.049  0.00  0.00     0.217 HD
ENDBRANCH  62  68
ENDBRANCH  55  58
ENDBRANCH   1  55
TORSDOF 17
ENDMDL
MODEL 3
REMARK VINA RESULT:      -7.4      2.644      7.893
REMARK  17 active torsions:
REMARK  status: ('A' for Active; 'I' for Inactive)
REMARK    1  A    between atoms: CBD_3  and  OAI_4 
REMARK    2  A    between atoms: CBF_7  and  CAV_8 
REMARK    3  A    between atoms: CAV_8  and  CBI_9 
REMARK    4  A    between atoms: CBI_9  and  PBK_10 
REMARK    5  A    between atoms: CBI_9  and  NAY_14 
REMARK       I    between atoms: NAY_14  and  C_15 
REMARK    6  A    between atoms: C_15  and  CA_17 
REMARK    7  A    between atoms: CA_17  and  N_18 
REMARK    8  A    between atoms: CA_17  and  CB_30 
REMARK       I    between atoms: N_18  and  CBB_19 
REMARK    9  A    between atoms: CBB_19  and  CBJ_21 
REMARK   10  A    between atoms: CBJ_21  and  CBG_22 
REMARK   11  A    between atoms: CBJ_21  and  NAX_26 
REMARK   12  A    between atoms: CBG_22  and  CAC_23 
REMARK   13  A    between atoms: CBG_22  and  CAT_24 
REMARK   14  A    between atoms: CAT_24  and  CAA_25 
REMARK       I    between atoms: NAX_26  and  CAZ_27 
REMARK   15  A    between atoms: CAZ_27  and  CAB_28 
REMARK   16  A    between atoms: CB_30  and  CG_31 
REMARK   17  A    between atoms: CZ_34  and  OH_35 
ROOT
ATOM      1  CA  K26 d          -6.816  23.819 -12.577  0.00  0.00     0.093 C 
ATOM      2  H10 K26 d          -6.605  22.980 -11.898  0.00  0.00     0.088 H 
ENDROOT
BRANCH   1   3
ATOM      3  C   K26 d          -8.220  23.636 -13.161  0.00  0.00     0.241 C 
ATOM      4  NAY K26 d          -8.671  24.659 -13.892  0.00  0.00    -0.342 N 
ATOM      5  H9  K26 d          -8.057  25.424 -14.083  0.00  0.00     0.163 HD
ATOM      6  O   K26 d          -8.859  22.614 -12.908  0.00  0.00    -0.271 OA
BRANCH   4   7
ATOM      7  CBI K26 d         -10.042  24.698 -14.427  0.00  0.00     0.124 C 
ATOM      8  H8  K26 d         -10.495  23.700 -14.322  0.00  0.00     0.095 H 
BRANCH   7   9
ATOM      9  CAV K26 d         -10.855  25.702 -13.578  0.00  0.00    -0.010 C 
ATOM     10  H6  K26 d         -10.157  26.367 -13.048  0.00  0.00     0.044 H 
ATOM     11  H7  K26 d         -11.494  26.298 -14.246  0.00  0.00     0.044 H 
BRANCH   9  12
ATOM     12  CBF K26 d         -11.742  24.986 -12.547  0.00  0.00    -0.055 A 
ATOM     13  CAR K26 d         -12.170  23.684 -12.799  0.00  0.00    -0.074 A 
ATOM     14  CAN K26 d         -12.964  23.013 -11.874  0.00  0.00    -0.051 A 
ATOM     15  H1  K26 d         -11.882  23.192 -13.721  0.00  0.00     0.084 H 
ATOM     16  CBD K26 d         -13.334  23.644 -10.686  0.00  0.00     0.065 A 
ATOM     17  H2  K26 d         -13.295  22.000 -12.076  0.00  0.00     0.087 H 
ATOM     18  CAO K26 d         -12.904  24.947 -10.417  0.00  0.00    -0.051 A 
ATOM     19  CAS K26 d         -12.111  25.615 -11.350  0.00  0.00    -0.074 A 
ATOM     20  H4  K26 d         -13.184  25.434  -9.490  0.00  0.00     0.087 H 
ATOM     21  H5  K26 d         -11.779  26.628 -11.149  0.00  0.00     0.084 H 
BRANCH  16  22
ATOM     22  OAI K26 d         -14.113  22.974  -9.793  0.00  0.00    -0.361 OA
ATOM     23  H3  K26 d         -13.825  22.071  -9.739  0.00  0.00     0.217 HD
ENDBRANCH  16  22
ENDBRANCH   9  12
ENDBRANCH   7   9
BRANCH   7  24
ATOM     24  PBK K26 d         -10.036  25.137 -16.217  0.00  0.00     0.283 P 
ATOM     25  OAJ K26 d         -11.556  25.184 -16.656  0.00  0.00    -0.638 OA
ATOM     26  OAK K26 d          -9.458  26.662 -16.231  0.00  0.00    -0.638 OA
ATOM     27  OAG K26 d          -9.239  24.197 -17.050  0.00  0.00    -0.638 OA
ENDBRANCH   7  24
ENDBRANCH   4   7
ENDBRANCH   1   3
BRANCH   1  28
ATOM     28  N   K26 d          -5.834  23.810 -13.680  0.00  0.00    -0.346 N 
ATOM     29  CBB K26 d          -5.277  22.701 -14.184  0.00  0.00     0.241 C 
ATOM     30  OAF K26 d          -5.492  21.559 -13.775  0.00  0.00    -0.271 OA
ATOM     31  H11 K26 d          -5.567  24.688 -14.076  0.00  0.00     0.163 HD
BRANCH  29  32
ATOM     32  CBJ K26 d          -4.244  22.954 -15.296  0.00  0.00     0.092 C 
ATOM     33  H12 K26 d          -3.946  21.987 -15.727  0.00  0.00     0.088 H 
BRANCH  32  34
ATOM     34  CBG K26 d          -2.974  23.643 -14.781  0.00  0.00    -0.030 C 
ATOM     35  H13 K26 d          -2.115  23.272 -15.361  0.00  0.00     0.043 H 
BRANCH  34  36
ATOM     36  CAC K26 d          -3.084  25.159 -14.980  0.00  0.00    -0.071 C 
ATOM     37  H14 K26 d          -4.023  25.521 -14.534  0.00  0.00     0.028 H 
ATOM     38  H15 K26 d          -3.076  25.390 -16.055  0.00  0.00     0.028 H 
ATOM     39  H16 K26 d          -2.232  25.656 -14.492  0.00  0.00     0.028 H 
ENDBRANCH  34  36
BRANCH  34  40
ATOM     40  CAT K26 d          -2.735  23.319 -13.297  0.00  0.00    -0.063 C 
ATOM     41  H17 K26 d          -1.862  22.655 -13.218  0.00  0.00     0.033 H 
ATOM     42  H18 K26 d          -3.624  22.805 -12.902  0.00  0.00     0.033 H 
BRANCH  40  43
ATOM     43  CAA K26 d          -2.478  24.569 -12.457  0.00  0.00    -0.076 C 
ATOM     44  H19 K26 d          -1.591  25.092 -12.841  0.00  0.00     0.027 H 
ATOM     45  H20 K26 d          -2.308  24.278 -11.409  0.00  0.00     0.027 H 
ATOM     46  H21 K26 d          -3.352  25.236 -12.514  0.00  0.00     0.027 H 
ENDBRANCH  40  43
ENDBRANCH  34  40
ENDBRANCH  32  34
BRANCH  32  47
ATOM     47  NAX K26 d          -4.928  23.748 -16.336  0.00  0.00    -0.348 N 
ATOM     48  CAZ K26 d          -5.189  23.255 -17.548  0.00  0.00     0.214 C 
ATOM     49  OAD K26 d          -4.840  22.140 -17.932  0.00  0.00    -0.274 OA
ATOM     50  H22 K26 d          -5.204  24.687 -16.125  0.00  0.00     0.163 HD
BRANCH  48  51
ATOM     51  CAB K26 d          -5.945  24.196 -18.489  0.00  0.00    -0.003 C 
ATOM     52  H23 K26 d          -5.748  23.908 -19.531  0.00  0.00     0.040 H 
ATOM     53  H24 K26 d          -5.607  25.229 -18.322  0.00  0.00     0.040 H 
ATOM     54  H25 K26 d          -7.025  24.126 -18.287  0.00  0.00     0.040 H 
ENDBRANCH  48  51
ENDBRANCH  32  47
ENDBRANCH  29  32
ENDBRANCH   1  28
BRANCH   1  55
ATOM     55  CB  K26 d          -6.686  25.120 -11.794  0.00  0.00    -0.014 C 
ATOM     56  H26 K26 d          -7.125  25.945 -12.373  0.00  0.00     0.043 H 
ATOM     57  H27 K26 d          -5.623  25.332 -11.604  0.00  0.00     0.043 H 
BRANCH  55  58
ATOM     58  CG  K26 d          -7.430  24.972 -10.458  0.00  0.00    -0.056 A 
ATOM     59  CD1 K26 d          -6.923  24.130  -9.470  0.00  0.00    -0.074 A 
ATOM     60  CE1 K26 d          -7.587  24.005  -8.246  0.00  0.00    -0.051 A 
ATOM     61  H28 K26 d          -6.012  23.571  -9.650  0.00  0.00     0.084 H 
ATOM     62  CZ  K26 d          -8.760  24.723  -8.008  0.00  0.00     0.065 A 
ATOM     63  H29 K26 d          -7.191  23.347  -7.481  0.00  0.00     0.087 H 
ATOM     64  CE2 K26 d          -9.262  25.570  -8.996  0.00  0.00    -0.051 A 
ATOM     65  CD2 K26 d          -8.597  25.699 -10.218  0.00  0.00    -0.074 A 
ATOM     66  H31 K26 d         -10.172  26.130  -8.815  0.00  0.00     0.087 H 
ATOM     67  H32 K26 d          -8.987  26.365 -10.980  0.00  0.00     0.084 H 
BRANCH  62  68
ATOM     68  OH  K26 d          -9.413  24.589  -6.814  0.00  0.00    -0.361 OA
ATOM     69  H30 K26 d          -8.854  24.132  -6.198  0.00  0.00     0.217 HD
ENDBRANCH  62  68
ENDBRANCH  55  58
ENDBRANCH   1  55
TORSDOF 17
ENDMDL
MODEL 4
REMARK VINA RESULT:      -7.2      2.653      6.185
REMARK  17 active torsions:
REMARK  status: ('A' for Active; 'I' for Inactive)
REMARK    1  A    between atoms: CBD_3  and  OAI_4 
REMARK    2  A    between atoms: CBF_7  and  CAV_8 
REMARK    3  A    between atoms: CAV_8  and  CBI_9 
REMARK    4  A    between atoms: CBI_9  and  PBK_10 
REMARK    5  A    between atoms: CBI_9  and  NAY_14 
REMARK       I    between atoms: NAY_14  and  C_15 
REMARK    6  A    between atoms: C_15  and  CA_17 
REMARK    7  A    between atoms: CA_17  and  N_18 
REMARK    8  A    between atoms: CA_17  and  CB_30 
REMARK       I    between atoms: N_18  and  CBB_19 
REMARK    9  A    between atoms: CBB_19  and  CBJ_21 
REMARK   10  A    between atoms: CBJ_21  and  CBG_22 
REMARK   11  A    between atoms: CBJ_21  and  NAX_26 
REMARK   12  A    between atoms: CBG_22  and  CAC_23 
REMARK   13  A    between atoms: CBG_22  and  CAT_24 
REMARK   14  A    between atoms: CAT_24  and  CAA_25 
REMARK       I    between atoms: NAX_26  and  CAZ_27 
REMARK   15  A    between atoms: CAZ_27  and  CAB_28 
REMARK   16  A    between atoms: CB_30  and  CG_31 
REMARK   17  A    between atoms: CZ_34  and  OH_35 
ROOT
ATOM      1  CA  K26 d          -8.367  24.675 -11.947  0.00  0.00     0.093 C 
ATOM      2  H10 K26 d          -8.788  25.609 -11.547  0.00  0.00     0.088 H 
ENDROOT
BRANCH   1   3
ATOM      3  C   K26 d          -7.195  24.246 -11.061  0.00  0.00     0.241 C 
ATOM      4  NAY K26 d          -6.023  24.118 -11.688  0.00  0.00    -0.342 N 
ATOM      5  H9  K26 d          -5.958  24.383 -12.650  0.00  0.00     0.163 HD
ATOM      6  O   K26 d          -7.385  24.009  -9.867  0.00  0.00    -0.271 OA
BRANCH   4   7
ATOM      7  CBI K26 d          -4.821  23.601 -11.012  0.00  0.00     0.124 C 
ATOM      8  H8  K26 d          -5.120  23.130 -10.064  0.00  0.00     0.095 H 
BRANCH   7   9
ATOM      9  CAV K26 d          -4.190  22.523 -11.923  0.00  0.00    -0.010 C 
ATOM     10  H6  K26 d          -3.103  22.506 -11.754  0.00  0.00     0.044 H 
ATOM     11  H7  K26 d          -4.617  21.543 -11.665  0.00  0.00     0.044 H 
BRANCH   9  12
ATOM     12  CBF K26 d          -4.459  22.808 -13.409  0.00  0.00    -0.055 A 
ATOM     13  CAR K26 d          -3.560  23.591 -14.130  0.00  0.00    -0.074 A 
ATOM     14  CAN K26 d          -3.778  23.852 -15.480  0.00  0.00    -0.051 A 
ATOM     15  H1  K26 d          -2.686  23.999 -13.636  0.00  0.00     0.084 H 
ATOM     16  CBD K26 d          -4.901  23.326 -16.118  0.00  0.00     0.065 A 
ATOM     17  H2  K26 d          -3.075  24.463 -16.035  0.00  0.00     0.087 H 
ATOM     18  CAO K26 d          -5.807  22.531 -15.408  0.00  0.00    -0.051 A 
ATOM     19  CAS K26 d          -5.585  22.277 -14.055  0.00  0.00    -0.074 A 
ATOM     20  H4  K26 d          -6.675  22.115 -15.907  0.00  0.00     0.087 H 
ATOM     21  H5  K26 d          -6.286  21.665 -13.498  0.00  0.00     0.084 H 
BRANCH  16  22
ATOM     22  OAI K26 d          -5.101  23.591 -17.438  0.00  0.00    -0.361 OA
ATOM     23  H3  K26 d          -6.034  23.645 -17.611  0.00  0.00     0.217 HD
ENDBRANCH  16  22
ENDBRANCH   9  12
ENDBRANCH   7   9
BRANCH   7  24
ATOM     24  PBK K26 d          -3.646  24.967 -10.625  0.00  0.00     0.283 P 
ATOM     25  OAJ K26 d          -3.999  26.139 -11.629  0.00  0.00    -0.638 OA
ATOM     26  OAK K26 d          -4.090  25.435  -9.126  0.00  0.00    -0.638 OA
ATOM     27  OAG K26 d          -2.219  24.559 -10.717  0.00  0.00    -0.638 OA
ENDBRANCH   7  24
ENDBRANCH   4   7
ENDBRANCH   1   3
BRANCH   1  28
ATOM     28  N   K26 d          -7.868  24.915 -13.317  0.00  0.00    -0.346 N 
ATOM     29  CBB K26 d          -8.342  25.862 -14.136  0.00  0.00     0.241 C 
ATOM     30  OAF K26 d          -9.266  26.630 -13.863  0.00  0.00    -0.271 OA
ATOM     31  H11 K26 d          -7.129  24.333 -13.655  0.00  0.00     0.163 HD
BRANCH  29  32
ATOM     32  CBJ K26 d          -7.694  25.883 -15.532  0.00  0.00     0.092 C 
ATOM     33  H12 K26 d          -7.170  24.929 -15.691  0.00  0.00     0.088 H 
BRANCH  32  34
ATOM     34  CBG K26 d          -6.666  27.009 -15.693  0.00  0.00    -0.030 C 
ATOM     35  H13 K26 d          -7.174  27.972 -15.534  0.00  0.00     0.043 H 
BRANCH  34  36
ATOM     36  CAC K26 d          -5.557  26.859 -14.645  0.00  0.00    -0.071 C 
ATOM     37  H14 K26 d          -5.663  27.646 -13.884  0.00  0.00     0.028 H 
ATOM     38  H15 K26 d          -4.576  26.952 -15.134  0.00  0.00     0.028 H 
ATOM     39  H16 K26 d          -5.635  25.872 -14.166  0.00  0.00     0.028 H 
ENDBRANCH  34  36
BRANCH  34  40
ATOM     40  CAT K26 d          -6.063  27.004 -17.107  0.00  0.00    -0.063 C 
ATOM     41  H17 K26 d          -6.482  27.850 -17.672  0.00  0.00     0.033 H 
ATOM     42  H18 K26 d          -6.337  26.061 -17.603  0.00  0.00     0.033 H 
BRANCH  40  43
ATOM     43  CAA K26 d          -4.540  27.128 -17.097  0.00  0.00    -0.076 C 
ATOM     44  H19 K26 d          -4.101  26.296 -17.666  0.00  0.00     0.027 H 
ATOM     45  H20 K26 d          -4.176  27.095 -16.060  0.00  0.00     0.027 H 
ATOM     46  H21 K26 d          -4.247  28.083 -17.558  0.00  0.00     0.027 H 
ENDBRANCH  40  43
ENDBRANCH  34  40
ENDBRANCH  32  34
BRANCH  32  47
ATOM     47  NAX K26 d          -8.797  25.989 -16.508  0.00  0.00    -0.348 N 
ATOM     48  CAZ K26 d          -9.182  24.955 -17.259  0.00  0.00     0.214 C 
ATOM     49  OAD K26 d          -8.631  23.856 -17.258  0.00  0.00    -0.274 OA
ATOM     50  H22 K26 d          -9.271  26.864 -16.611  0.00  0.00     0.163 HD
BRANCH  48  51
ATOM     51  CAB K26 d         -10.370  25.224 -18.185  0.00  0.00    -0.003 C 
ATOM     52  H23 K26 d         -10.129  26.060 -18.858  0.00  0.00     0.040 H 
ATOM     53  H24 K26 d         -11.254  25.481 -17.582  0.00  0.00     0.040 H 
ATOM     54  H25 K26 d         -10.582  24.324 -18.780  0.00  0.00     0.040 H 
ENDBRANCH  48  51
ENDBRANCH  32  47
ENDBRANCH  29  32
ENDBRANCH   1  28
BRANCH   1  55
ATOM     55  CB  K26 d          -9.470  23.625 -11.988  0.00  0.00    -0.014 C 
ATOM     56  H26 K26 d          -9.104  22.687 -11.546  0.00  0.00     0.043 H 
ATOM     57  H27 K26 d          -9.771  23.445 -13.031  0.00  0.00     0.043 H 
BRANCH  55  58
ATOM     58  CG  K26 d         -10.675  24.140 -11.185  0.00  0.00    -0.056 A 
ATOM     59  CD1 K26 d         -11.685  23.258 -10.805  0.00  0.00    -0.074 A 
ATOM     60  CE1 K26 d         -12.774  23.718 -10.060  0.00  0.00    -0.051 A 
ATOM     61  H28 K26 d         -11.625  22.213 -11.087  0.00  0.00     0.084 H 
ATOM     62  CZ  K26 d         -12.854  25.062  -9.691  0.00  0.00     0.065 A 
ATOM     63  H29 K26 d         -13.559  23.030  -9.768  0.00  0.00     0.087 H 
ATOM     64  CE2 K26 d         -11.839  25.941 -10.067  0.00  0.00    -0.051 A 
ATOM     65  CD2 K26 d         -10.748  25.482 -10.808  0.00  0.00    -0.074 A 
ATOM     66  H31 K26 d         -11.898  26.986  -9.783  0.00  0.00     0.087 H 
ATOM     67  H32 K26 d          -9.958  26.168 -11.091  0.00  0.00     0.084 H 
BRANCH  62  68
ATOM     68  OH  K26 d         -13.928  25.511  -8.972  0.00  0.00    -0.361 OA
ATOM     69  H30 K26 d         -13.631  25.828  -8.128  0.00  0.00     0.217 HD
ENDBRANCH  62  68
ENDBRANCH  55  58
ENDBRANCH   1  55
TORSDOF 17
ENDMDL
MODEL 5
REMARK VINA RESULT:      -7.2      2.390      6.119
REMARK  17 active torsions:
REMARK  status: ('A' for Active; 'I' for Inactive)
REMARK    1  A    between atoms: CBD_3  and  OAI_4 
REMARK    2  A    between atoms: CBF_7  and  CAV_8 
REMARK    3  A    between atoms: CAV_8  and  CBI_9 
REMARK    4  A    between atoms: CBI_9  and  PBK_10 
REMARK    5  A    between atoms: CBI_9  and  NAY_14 
REMARK       I    between atoms: NAY_14  and  C_15 
REMARK    6  A    between atoms: C_15  and  CA_17 
REMARK    7  A    between atoms: CA_17  and  N_18 
REMARK    8  A    between atoms: CA_17  and  CB_30 
REMARK       I    between atoms: N_18  and  CBB_19 
REMARK    9  A    between atoms: CBB_19  and  CBJ_21 
REMARK   10  A    between atoms: CBJ_21  and  CBG_22 
REMARK   11  A    between atoms: CBJ_21  and  NAX_26 
REMARK   12  A    between atoms: CBG_22  and  CAC_23 
REMARK   13  A    between atoms: CBG_22  and  CAT_24 
REMARK   14  A    between atoms: CAT_24  and  CAA_25 
REMARK       I    between atoms: NAX_26  and  CAZ_27 
REMARK   15  A    between atoms: CAZ_27  and  CAB_28 
REMARK   16  A    between atoms: CB_30  and  CG_31 
REMARK   17  A    between atoms: CZ_34  and  OH_35 
ROOT
ATOM      1  CA  K26 d          -9.343  24.681 -11.305  0.00  0.00     0.093 C 
ATOM      2  H10 K26 d          -9.347  23.581 -11.301  0.00  0.00     0.088 H 
ENDROOT
BRANCH   1   3
ATOM      3  C   K26 d          -9.365  25.167 -12.756  0.00  0.00     0.241 C 
ATOM      4  NAY K26 d          -8.702  24.399 -13.625  0.00  0.00    -0.342 N 
ATOM      5  H9  K26 d          -8.314  23.535 -13.307  0.00  0.00     0.163 HD
ATOM      6  O   K26 d          -9.936  26.221 -13.040  0.00  0.00    -0.271 OA
BRANCH   4   7
ATOM      7  CBI K26 d          -8.524  24.782 -15.036  0.00  0.00     0.124 C 
ATOM      8  H8  K26 d          -9.254  25.565 -15.288  0.00  0.00     0.095 H 
BRANCH   7   9
ATOM      9  CAV K26 d          -7.100  25.363 -15.194  0.00  0.00    -0.010 C 
ATOM     10  H6  K26 d          -6.906  25.545 -16.261  0.00  0.00     0.044 H 
ATOM     11  H7  K26 d          -7.039  26.312 -14.642  0.00  0.00     0.044 H 
BRANCH   9  12
ATOM     12  CBF K26 d          -6.031  24.401 -14.650  0.00  0.00    -0.055 A 
ATOM     13  CAR K26 d          -6.264  23.724 -13.455  0.00  0.00    -0.074 A 
ATOM     14  CAN K26 d          -5.315  22.839 -12.950  0.00  0.00    -0.051 A 
ATOM     15  H1  K26 d          -7.190  23.888 -12.915  0.00  0.00     0.084 H 
ATOM     16  CBD K26 d          -4.124  22.626 -13.644  0.00  0.00     0.065 A 
ATOM     17  H2  K26 d          -5.502  22.317 -12.018  0.00  0.00     0.087 H 
ATOM     18  CAO K26 d          -3.882  23.292 -14.849  0.00  0.00    -0.051 A 
ATOM     19  CAS K26 d          -4.835  24.180 -15.347  0.00  0.00    -0.074 A 
ATOM     20  H4  K26 d          -2.960  23.119 -15.393  0.00  0.00     0.087 H 
ATOM     21  H5  K26 d          -4.651  24.703 -16.279  0.00  0.00     0.084 H 
BRANCH  16  22
ATOM     22  OAI K26 d          -3.206  21.760 -13.136  0.00  0.00    -0.361 OA
ATOM     23  H3  K26 d          -2.681  21.405 -13.844  0.00  0.00     0.217 HD
ENDBRANCH  16  22
ENDBRANCH   9  12
ENDBRANCH   7   9
BRANCH   7  24
ATOM     24  PBK K26 d          -8.822  23.343 -16.149  0.00  0.00     0.283 P 
ATOM     25  OAJ K26 d          -8.928  22.079 -15.203  0.00  0.00    -0.638 OA
ATOM     26  OAK K26 d         -10.304  23.641 -16.763  0.00  0.00    -0.638 OA
ATOM     27  OAG K26 d          -7.773  23.179 -17.191  0.00  0.00    -0.638 OA
ENDBRANCH   7  24
ENDBRANCH   4   7
ENDBRANCH   1   3
BRANCH   1  28
ATOM     28  N   K26 d          -8.105  25.163 -10.658  0.00  0.00    -0.346 N 
ATOM     29  CBB K26 d          -7.231  24.374 -10.021  0.00  0.00     0.241 C 
ATOM     30  OAF K26 d          -7.361  23.158  -9.872  0.00  0.00    -0.271 OA
ATOM     31  H11 K26 d          -7.907  26.142 -10.698  0.00  0.00     0.163 HD
BRANCH  29  32
ATOM     32  CBJ K26 d          -6.043  25.118  -9.386  0.00  0.00     0.092 C 
ATOM     33  H12 K26 d          -5.343  24.377  -8.972  0.00  0.00     0.088 H 
BRANCH  32  34
ATOM     34  CBG K26 d          -6.467  26.044  -8.240  0.00  0.00    -0.030 C 
ATOM     35  H13 K26 d          -7.305  26.669  -8.586  0.00  0.00     0.043 H 
BRANCH  34  36
ATOM     36  CAC K26 d          -6.937  25.213  -7.040  0.00  0.00    -0.071 C 
ATOM     37  H14 K26 d          -7.638  25.806  -6.434  0.00  0.00     0.028 H 
ATOM     38  H15 K26 d          -6.069  24.932  -6.426  0.00  0.00     0.028 H 
ATOM     39  H16 K26 d          -7.441  24.303  -7.399  0.00  0.00     0.028 H 
ENDBRANCH  34  36
BRANCH  34  40
ATOM     40  CAT K26 d          -5.311  26.968  -7.823  0.00  0.00    -0.063 C 
ATOM     41  H17 K26 d          -5.720  27.797  -7.226  0.00  0.00     0.033 H 
ATOM     42  H18 K26 d          -4.836  27.369  -8.731  0.00  0.00     0.033 H 
BRANCH  40  43
ATOM     43  CAA K26 d          -4.250  26.245  -6.994  0.00  0.00    -0.076 C 
ATOM     44  H19 K26 d          -4.224  25.183  -7.279  0.00  0.00     0.027 H 
ATOM     45  H20 K26 d          -4.496  26.332  -5.926  0.00  0.00     0.027 H 
ATOM     46  H21 K26 d          -3.266  26.699  -7.181  0.00  0.00     0.027 H 
ENDBRANCH  40  43
ENDBRANCH  34  40
ENDBRANCH  32  34
BRANCH  32  47
ATOM     47  NAX K26 d          -5.371  25.850 -10.477  0.00  0.00    -0.348 N 
ATOM     48  CAZ K26 d          -4.163  25.503 -10.926  0.00  0.00     0.214 C 
ATOM     49  OAD K26 d          -3.479  24.601 -10.447  0.00  0.00    -0.274 OA
ATOM     50  H22 K26 d          -5.835  26.633 -10.893  0.00  0.00     0.163 HD
BRANCH  48  51
ATOM     51  CAB K26 d          -3.632  26.340 -12.092  0.00  0.00    -0.003 C 
ATOM     52  H23 K26 d          -3.896  27.396 -11.936  0.00  0.00     0.040 H 
ATOM     53  H24 K26 d          -4.081  25.984 -13.032  0.00  0.00     0.040 H 
ATOM     54  H25 K26 d          -2.538  26.239 -12.148  0.00  0.00     0.040 H 
ENDBRANCH  48  51
ENDBRANCH  32  47
ENDBRANCH  29  32
ENDBRANCH   1  28
BRANCH   1  55
ATOM     55  CB  K26 d         -10.549  25.173 -10.516  0.00  0.00    -0.014 C 
ATOM     56  H26 K26 d         -10.866  26.154 -10.898  0.00  0.00     0.043 H 
ATOM     57  H27 K26 d         -10.284  25.262  -9.452  0.00  0.00     0.043 H 
BRANCH  55  58
ATOM     58  CG  K26 d         -11.695  24.161 -10.679  0.00  0.00    -0.056 A 
ATOM     59  CD1 K26 d         -11.439  22.903 -11.222  0.00  0.00    -0.074 A 
ATOM     60  CE1 K26 d         -12.473  21.974 -11.358  0.00  0.00    -0.051 A 
ATOM     61  H28 K26 d         -10.435  22.645 -11.540  0.00  0.00     0.084 H 
ATOM     62  CZ  K26 d         -13.767  22.300 -10.948  0.00  0.00     0.065 A 
ATOM     63  H29 K26 d         -12.271  20.997 -11.782  0.00  0.00     0.087 H 
ATOM     64  CE2 K26 d         -14.020  23.557 -10.398  0.00  0.00    -0.051 A 
ATOM     65  CD2 K26 d         -12.986  24.485 -10.259  0.00  0.00    -0.074 A 
ATOM     66  H31 K26 d         -15.023  23.813 -10.079  0.00  0.00     0.087 H 
ATOM     67  H32 K26 d         -13.186  25.458  -9.824  0.00  0.00     0.084 H 
BRANCH  62  68
ATOM     68  OH  K26 d         -14.780  21.391 -11.092  0.00  0.00    -0.361 OA
ATOM     69  H30 K26 d         -15.213  21.532 -11.925  0.00  0.00     0.217 HD
ENDBRANCH  62  68
ENDBRANCH  55  58
ENDBRANCH   1  55
TORSDOF 17
ENDMDL
MODEL 6
REMARK VINA RESULT:      -7.1      2.781      6.887
REMARK  17 active torsions:
REMARK  status: ('A' for Active; 'I' for Inactive)
REMARK    1  A    between atoms: CBD_3  and  OAI_4 
REMARK    2  A    between atoms: CBF_7  and  CAV_8 
REMARK    3  A    between atoms: CAV_8  and  CBI_9 
REMARK    4  A    between atoms: CBI_9  and  PBK_10 
REMARK    5  A    between atoms: CBI_9  and  NAY_14 
REMARK       I    between atoms: NAY_14  and  C_15 
REMARK    6  A    between atoms: C_15  and  CA_17 
REMARK    7  A    between atoms: CA_17  and  N_18 
REMARK    8  A    between atoms: CA_17  and  CB_30 
REMARK       I    between atoms: N_18  and  CBB_19 
REMARK    9  A    between atoms: CBB_19  and  CBJ_21 
REMARK   10  A    between atoms: CBJ_21  and  CBG_22 
REMARK   11  A    between atoms: CBJ_21  and  NAX_26 
REMARK   12  A    between atoms: CBG_22  and  CAC_23 
REMARK   13  A    between atoms: CBG_22  and  CAT_24 
REMARK   14  A    between atoms: CAT_24  and  CAA_25 
REMARK       I    between atoms: NAX_26  and  CAZ_27 
REMARK   15  A    between atoms: CAZ_27  and  CAB_28 
REMARK   16  A    between atoms: CB_30  and  CG_31 
REMARK   17  A    between atoms: CZ_34  and  OH_35 
ROOT
ATOM      1  CA  K26 d          -8.692  24.878 -12.652  0.00  0.00     0.093 C 
ATOM      2  H10 K26 d          -9.295  25.783 -12.816  0.00  0.00     0.088 H 
ENDROOT
BRANCH   1   3
ATOM      3  C   K26 d          -7.912  25.037 -11.344  0.00  0.00     0.241 C 
ATOM      4  NAY K26 d          -7.600  23.897 -10.724  0.00  0.00    -0.342 N 
ATOM      5  H9  K26 d          -7.810  23.029 -11.173  0.00  0.00     0.163 HD
ATOM      6  O   K26 d          -7.653  26.165 -10.920  0.00  0.00    -0.271 OA
BRANCH   4   7
ATOM      7  CBI K26 d          -6.958  23.873  -9.399  0.00  0.00     0.124 C 
ATOM      8  H8  K26 d          -6.723  22.831  -9.135  0.00  0.00     0.095 H 
BRANCH   7   9
ATOM      9  CAV K26 d          -5.636  24.668  -9.498  0.00  0.00    -0.010 C 
ATOM     10  H6  K26 d          -5.869  25.725  -9.693  0.00  0.00     0.044 H 
ATOM     11  H7  K26 d          -5.095  24.582  -8.544  0.00  0.00     0.044 H 
BRANCH   9  12
ATOM     12  CBF K26 d          -4.739  24.140 -10.629  0.00  0.00    -0.055 A 
ATOM     13  CAR K26 d          -5.087  22.960 -11.284  0.00  0.00    -0.074 A 
ATOM     14  CAN K26 d          -4.296  22.469 -12.319  0.00  0.00    -0.051 A 
ATOM     15  H1  K26 d          -5.979  22.422 -10.985  0.00  0.00     0.084 H 
ATOM     16  CBD K26 d          -3.148  23.162 -12.706  0.00  0.00     0.065 A 
ATOM     17  H2  K26 d          -4.571  21.550 -12.824  0.00  0.00     0.087 H 
ATOM     18  CAO K26 d          -2.793  24.352 -12.063  0.00  0.00    -0.051 A 
ATOM     19  CAS K26 d          -3.588  24.836 -11.024  0.00  0.00    -0.074 A 
ATOM     20  H4  K26 d          -1.906  24.894 -12.370  0.00  0.00     0.087 H 
ATOM     21  H5  K26 d          -3.314  25.756 -10.519  0.00  0.00     0.084 H 
BRANCH  16  22
ATOM     22  OAI K26 d          -2.384  22.668 -13.718  0.00  0.00    -0.361 OA
ATOM     23  H3  K26 d          -1.910  23.380 -14.132  0.00  0.00     0.217 HD
ENDBRANCH  16  22
ENDBRANCH   9  12
ENDBRANCH   7   9
BRANCH   7  24
ATOM     24  PBK K26 d          -8.087  24.549  -8.109  0.00  0.00     0.283 P 
ATOM     25  OAJ K26 d          -7.950  23.582  -6.863  0.00  0.00    -0.638 OA
ATOM     26  OAK K26 d          -7.403  25.977  -7.718  0.00  0.00    -0.638 OA
ATOM     27  OAG K26 d          -9.496  24.676  -8.569  0.00  0.00    -0.638 OA
ENDBRANCH   7  24
ENDBRANCH   4   7
ENDBRANCH   1   3
BRANCH   1  28
ATOM     28  N   K26 d          -7.732  24.727 -13.766  0.00  0.00    -0.346 N 
ATOM     29  CBB K26 d          -7.913  25.238 -14.990  0.00  0.00     0.241 C 
ATOM     30  OAF K26 d          -8.907  25.870 -15.348  0.00  0.00    -0.271 OA
ATOM     31  H11 K26 d          -6.894  24.210 -13.594  0.00  0.00     0.163 HD
BRANCH  29  32
ATOM     32  CBJ K26 d          -6.795  24.902 -15.993  0.00  0.00     0.092 C 
ATOM     33  H12 K26 d          -6.931  25.520 -16.893  0.00  0.00     0.088 H 
BRANCH  32  34
ATOM     34  CBG K26 d          -6.812  23.433 -16.433  0.00  0.00    -0.030 C 
ATOM     35  H13 K26 d          -7.736  22.967 -16.060  0.00  0.00     0.043 H 
BRANCH  34  36
ATOM     36  CAC K26 d          -6.801  23.345 -17.964  0.00  0.00    -0.071 C 
ATOM     37  H14 K26 d          -5.773  23.483 -18.332  0.00  0.00     0.028 H 
ATOM     38  H15 K26 d          -7.448  24.129 -18.382  0.00  0.00     0.028 H 
ATOM     39  H16 K26 d          -7.173  22.358 -18.277  0.00  0.00     0.028 H 
ENDBRANCH  34  36
BRANCH  34  40
ATOM     40  CAT K26 d          -5.611  22.671 -15.850  0.00  0.00    -0.063 C 
ATOM     41  H17 K26 d          -5.983  21.779 -15.324  0.00  0.00     0.033 H 
ATOM     42  H18 K26 d          -5.091  23.327 -15.137  0.00  0.00     0.033 H 
BRANCH  40  43
ATOM     43  CAA K26 d          -4.618  22.228 -16.923  0.00  0.00    -0.076 C 
ATOM     44  H19 K26 d          -3.895  23.035 -17.108  0.00  0.00     0.027 H 
ATOM     45  H20 K26 d          -5.160  22.002 -17.854  0.00  0.00     0.027 H 
ATOM     46  H21 K26 d          -4.085  21.328 -16.581  0.00  0.00     0.027 H 
ENDBRANCH  40  43
ENDBRANCH  34  40
ENDBRANCH  32  34
BRANCH  32  47
ATOM     47  NAX K26 d          -5.521  25.277 -15.348  0.00  0.00    -0.348 N 
ATOM     48  CAZ K26 d          -4.495  25.777 -16.039  0.00  0.00     0.214 C 
ATOM     49  OAD K26 d          -4.485  25.914 -17.261  0.00  0.00    -0.274 OA
ATOM     50  H22 K26 d          -5.424  25.152 -14.360  0.00  0.00     0.163 HD
BRANCH  48  51
ATOM     51  CAB K26 d          -3.267  26.155 -15.208  0.00  0.00    -0.003 C 
ATOM     52  H23 K26 d          -2.689  25.250 -14.975  0.00  0.00     0.040 H 
ATOM     53  H24 K26 d          -3.592  26.635 -14.272  0.00  0.00     0.040 H 
ATOM     54  H25 K26 d          -2.639  26.855 -15.779  0.00  0.00     0.040 H 
ENDBRANCH  48  51
ENDBRANCH  32  47
ENDBRANCH  29  32
ENDBRANCH   1  28
BRANCH   1  55
ATOM     55  CB  K26 d          -9.623  23.673 -12.622  0.00  0.00    -0.014 C 
ATOM     56  H26 K26 d          -9.109  22.819 -12.158  0.00  0.00     0.043 H 
ATOM     57  H27 K26 d          -9.920  23.409 -13.648  0.00  0.00     0.043 H 
BRANCH  55  58
ATOM     58  CG  K26 d         -10.872  24.032 -11.800  0.00  0.00    -0.056 A 
ATOM     59  CD1 K26 d         -11.516  23.051 -11.049  0.00  0.00    -0.074 A 
ATOM     60  CE1 K26 d         -12.641  23.376 -10.287  0.00  0.00    -0.051 A 
ATOM     61  H28 K26 d         -11.143  22.033 -11.056  0.00  0.00     0.084 H 
ATOM     62  CZ  K26 d         -13.123  24.686 -10.272  0.00  0.00     0.065 A 
ATOM     63  H29 K26 d         -13.141  22.609  -9.706  0.00  0.00     0.087 H 
ATOM     64  CE2 K26 d         -12.474  25.668 -11.019  0.00  0.00    -0.051 A 
ATOM     65  CD2 K26 d         -11.346  25.345 -11.778  0.00  0.00    -0.074 A 
ATOM     66  H31 K26 d         -12.845  26.686 -11.010  0.00  0.00     0.087 H 
ATOM     67  H32 K26 d         -10.840  26.114 -12.351  0.00  0.00     0.084 H 
BRANCH  62  68
ATOM     68  OH  K26 d         -14.232  24.998  -9.534  0.00  0.00    -0.361 OA
ATOM     69  H30 K26 d         -14.606  24.202  -9.174  0.00  0.00     0.217 HD
ENDBRANCH  62  68
ENDBRANCH  55  58
ENDBRANCH   1  55
TORSDOF 17
ENDMDL
MODEL 7
REMARK VINA RESULT:      -7.0      1.680      2.209
REMARK  17 active torsions:
REMARK  status: ('A' for Active; 'I' for Inactive)
REMARK    1  A    between atoms: CBD_3  and  OAI_4 
REMARK    2  A    between atoms: CBF_7  and  CAV_8 
REMARK    3  A    between atoms: CAV_8  and  CBI_9 
REMARK    4  A    between atoms: CBI_9  and  PBK_10 
REMARK    5  A    between atoms: CBI_9  and  NAY_14 
REMARK       I    between atoms: NAY_14  and  C_15 
REMARK    6  A    between atoms: C_15  and  CA_17 
REMARK    7  A    between atoms: CA_17  and  N_18 
REMARK    8  A    between atoms: CA_17  and  CB_30 
REMARK       I    between atoms: N_18  and  CBB_19 
REMARK    9  A    between atoms: CBB_19  and  CBJ_21 
REMARK   10  A    between atoms: CBJ_21  and  CBG_22 
REMARK   11  A    between atoms: CBJ_21  and  NAX_26 
REMARK   12  A    between atoms: CBG_22  and  CAC_23 
REMARK   13  A    between atoms: CBG_22  and  CAT_24 
REMARK   14  A    between atoms: CAT_24  and  CAA_25 
REMARK       I    between atoms: NAX_26  and  CAZ_27 
REMARK   15  A    between atoms: CAZ_27  and  CAB_28 
REMARK   16  A    between atoms: CB_30  and  CG_31 
REMARK   17  A    between atoms: CZ_34  and  OH_35 
ROOT
ATOM      1  CA  K26 d          -8.688  22.268 -14.565  0.00  0.00     0.093 C 
ATOM      2  H10 K26 d          -8.562  21.300 -14.058  0.00  0.00     0.088 H 
ENDROOT
BRANCH   1   3
ATOM      3  C   K26 d          -7.313  22.926 -14.714  0.00  0.00     0.241 C 
ATOM      4  NAY K26 d          -6.893  23.616 -13.651  0.00  0.00    -0.342 N 
ATOM      5  H9  K26 d          -7.440  23.596 -12.815  0.00  0.00     0.163 HD
ATOM      6  O   K26 d          -6.700  22.827 -15.778  0.00  0.00    -0.271 OA
BRANCH   4   7
ATOM      7  CBI K26 d          -5.650  24.406 -13.668  0.00  0.00     0.124 C 
ATOM      8  H8  K26 d          -5.503  24.819 -14.677  0.00  0.00     0.095 H 
BRANCH   7   9
ATOM      9  CAV K26 d          -5.820  25.579 -12.674  0.00  0.00    -0.010 C 
ATOM     10  H6  K26 d          -4.849  26.077 -12.542  0.00  0.00     0.044 H 
ATOM     11  H7  K26 d          -6.547  26.294 -13.087  0.00  0.00     0.044 H 
BRANCH   9  12
ATOM     12  CBF K26 d          -6.322  25.094 -11.305  0.00  0.00    -0.055 A 
ATOM     13  CAR K26 d          -6.340  25.980 -10.230  0.00  0.00    -0.074 A 
ATOM     14  CAN K26 d          -6.802  25.566  -8.983  0.00  0.00    -0.051 A 
ATOM     15  H1  K26 d          -5.993  26.998 -10.365  0.00  0.00     0.084 H 
ATOM     16  CBD K26 d          -7.250  24.257  -8.807  0.00  0.00     0.065 A 
ATOM     17  H2  K26 d          -6.812  26.260  -8.150  0.00  0.00     0.087 H 
ATOM     18  CAO K26 d          -7.246  23.360  -9.881  0.00  0.00    -0.051 A 
ATOM     19  CAS K26 d          -6.778  23.781 -11.126  0.00  0.00    -0.074 A 
ATOM     20  H4  K26 d          -7.603  22.345  -9.745  0.00  0.00     0.087 H 
ATOM     21  H5  K26 d          -6.768  23.088 -11.960  0.00  0.00     0.084 H 
BRANCH  16  22
ATOM     22  OAI K26 d          -7.696  23.866  -7.582  0.00  0.00    -0.361 OA
ATOM     23  H3  K26 d          -8.376  23.211  -7.688  0.00  0.00     0.217 HD
ENDBRANCH  16  22
ENDBRANCH   9  12
ENDBRANCH   7   9
BRANCH   7  24
ATOM     24  PBK K26 d          -4.195  23.351 -13.264  0.00  0.00     0.283 P 
ATOM     25  OAJ K26 d          -4.784  21.945 -12.837  0.00  0.00    -0.638 OA
ATOM     26  OAK K26 d          -3.448  23.169 -14.704  0.00  0.00    -0.638 OA
ATOM     27  OAG K26 d          -3.317  23.935 -12.215  0.00  0.00    -0.638 OA
ENDBRANCH   7  24
ENDBRANCH   4   7
ENDBRANCH   1   3
BRANCH   1  28
ATOM     28  N   K26 d          -9.548  23.140 -13.738  0.00  0.00    -0.346 N 
ATOM     29  CBB K26 d         -10.385  22.695 -12.793  0.00  0.00     0.241 C 
ATOM     30  OAF K26 d         -10.563  21.508 -12.514  0.00  0.00    -0.271 OA
ATOM     31  H11 K26 d          -9.502  24.127 -13.895  0.00  0.00     0.163 HD
BRANCH  29  32
ATOM     32  CBJ K26 d         -11.212  23.794 -12.103  0.00  0.00     0.092 C 
ATOM     33  H12 K26 d         -11.720  24.390 -12.874  0.00  0.00     0.088 H 
BRANCH  32  34
ATOM     34  CBG K26 d         -10.350  24.752 -11.271  0.00  0.00    -0.030 C 
ATOM     35  H13 K26 d          -9.298  24.438 -11.354  0.00  0.00     0.043 H 
BRANCH  34  36
ATOM     36  CAC K26 d         -10.481  26.180 -11.814  0.00  0.00    -0.071 C 
ATOM     37  H14 K26 d         -10.249  26.899 -11.014  0.00  0.00     0.028 H 
ATOM     38  H15 K26 d         -11.509  26.345 -12.167  0.00  0.00     0.028 H 
ATOM     39  H16 K26 d          -9.779  26.321 -12.649  0.00  0.00     0.028 H 
ENDBRANCH  34  36
BRANCH  34  40
ATOM     40  CAT K26 d         -10.755  24.709  -9.789  0.00  0.00    -0.063 C 
ATOM     41  H17 K26 d         -10.173  23.922  -9.287  0.00  0.00     0.033 H 
ATOM     42  H18 K26 d         -11.827  24.471  -9.723  0.00  0.00     0.033 H 
BRANCH  40  43
ATOM     43  CAA K26 d         -10.504  26.036  -9.072  0.00  0.00    -0.076 C 
ATOM     44  H19 K26 d         -11.459  26.443  -8.709  0.00  0.00     0.027 H 
ATOM     45  H20 K26 d         -10.044  26.749  -9.772  0.00  0.00     0.027 H 
ATOM     46  H21 K26 d          -9.827  25.870  -8.221  0.00  0.00     0.027 H 
ENDBRANCH  40  43
ENDBRANCH  34  40
ENDBRANCH  32  34
BRANCH  32  47
ATOM     47  NAX K26 d         -12.230  23.106 -11.285  0.00  0.00    -0.348 N 
ATOM     48  CAZ K26 d         -13.523  23.105 -11.614  0.00  0.00     0.214 C 
ATOM     49  OAD K26 d         -13.993  23.714 -12.573  0.00  0.00    -0.274 OA
ATOM     50  H22 K26 d         -11.942  22.625 -10.456  0.00  0.00     0.163 HD
BRANCH  48  51
ATOM     51  CAB K26 d         -14.436  22.305 -10.683  0.00  0.00    -0.003 C 
ATOM     52  H23 K26 d         -13.966  22.219  -9.692  0.00  0.00     0.040 H 
ATOM     53  H24 K26 d         -14.598  21.301 -11.101  0.00  0.00     0.040 H 
ATOM     54  H25 K26 d         -15.403  22.821 -10.585  0.00  0.00     0.040 H 
ENDBRANCH  48  51
ENDBRANCH  32  47
ENDBRANCH  29  32
ENDBRANCH   1  28
BRANCH   1  55
ATOM     55  CB  K26 d          -9.358  22.027 -15.911  0.00  0.00    -0.014 C 
ATOM     56  H26 K26 d         -10.262  21.417 -15.769  0.00  0.00     0.043 H 
ATOM     57  H27 K26 d          -8.662  21.501 -16.581  0.00  0.00     0.043 H 
BRANCH  55  58
ATOM     58  CG  K26 d          -9.741  23.383 -16.525  0.00  0.00    -0.056 A 
ATOM     59  CD1 K26 d          -8.869  24.018 -17.406  0.00  0.00    -0.074 A 
ATOM     60  CE1 K26 d          -9.219  25.243 -17.980  0.00  0.00    -0.051 A 
ATOM     61  H28 K26 d          -7.916  23.561 -17.648  0.00  0.00     0.084 H 
ATOM     62  CZ  K26 d         -10.446  25.835 -17.674  0.00  0.00     0.065 A 
ATOM     63  H29 K26 d          -8.537  25.735 -18.664  0.00  0.00     0.087 H 
ATOM     64  CE2 K26 d         -11.320  25.195 -16.797  0.00  0.00    -0.051 A 
ATOM     65  CD2 K26 d         -10.973  23.968 -16.226  0.00  0.00    -0.074 A 
ATOM     66  H31 K26 d         -12.274  25.651 -16.557  0.00  0.00     0.087 H 
ATOM     67  H32 K26 d         -11.660  23.471 -15.550  0.00  0.00     0.084 H 
BRANCH  62  68
ATOM     68  OH  K26 d         -10.781  27.040 -18.229  0.00  0.00    -0.361 OA
ATOM     69  H30 K26 d         -11.725  27.140 -18.218  0.00  0.00     0.217 HD
ENDBRANCH  62  68
ENDBRANCH  55  58
ENDBRANCH   1  55
TORSDOF 17
ENDMDL
MODEL 8
REMARK VINA RESULT:      -6.8      2.620      8.171
REMARK  17 active torsions:
REMARK  status: ('A' for Active; 'I' for Inactive)
REMARK    1  A    between atoms: CBD_3  and  OAI_4 
REMARK    2  A    between atoms: CBF_7  and  CAV_8 
REMARK    3  A    between atoms: CAV_8  and  CBI_9 
REMARK    4  A    between atoms: CBI_9  and  PBK_10 
REMARK    5  A    between atoms: CBI_9  and  NAY_14 
REMARK       I    between atoms: NAY_14  and  C_15 
REMARK    6  A    between atoms: C_15  and  CA_17 
REMARK    7  A    between atoms: CA_17  and  N_18 
REMARK    8  A    between atoms: CA_17  and  CB_30 
REMARK       I    between atoms: N_18  and  CBB_19 
REMARK    9  A    between atoms: CBB_19  and  CBJ_21 
REMARK   10  A    between atoms: CBJ_21  and  CBG_22 
REMARK   11  A    between atoms: CBJ_21  and  NAX_26 
REMARK   12  A    between atoms: CBG_22  and  CAC_23 
REMARK   13  A    between atoms: CBG_22  and  CAT_24 
REMARK   14  A    between atoms: CAT_24  and  CAA_25 
REMARK       I    between atoms: NAX_26  and  CAZ_27 
REMARK   15  A    between atoms: CAZ_27  and  CAB_28 
REMARK   16  A    between atoms: CB_30  and  CG_31 
REMARK   17  A    between atoms: CZ_34  and  OH_35 
ROOT
ATOM      1  CA  K26 d          -7.050  23.396 -11.819  0.00  0.00     0.093 C 
ATOM      2  H10 K26 d          -7.418  22.535 -12.395  0.00  0.00     0.088 H 
ENDROOT
BRANCH   1   3
ATOM      3  C   K26 d          -8.161  24.447 -11.745  0.00  0.00     0.241 C 
ATOM      4  NAY K26 d          -9.402  23.975 -11.892  0.00  0.00    -0.342 N 
ATOM      5  H9  K26 d          -9.539  22.987 -11.954  0.00  0.00     0.163 HD
ATOM      6  O   K26 d          -7.871  25.635 -11.598  0.00  0.00    -0.271 OA
BRANCH   4   7
ATOM      7  CBI K26 d         -10.576  24.861 -11.965  0.00  0.00     0.124 C 
ATOM      8  H8  K26 d         -10.235  25.894 -12.132  0.00  0.00     0.095 H 
BRANCH   7   9
ATOM      9  CAV K26 d         -11.429  24.420 -13.177  0.00  0.00    -0.010 C 
ATOM     10  H6  K26 d         -12.048  23.560 -12.882  0.00  0.00     0.044 H 
ATOM     11  H7  K26 d         -12.080  25.254 -13.478  0.00  0.00     0.044 H 
BRANCH   9  12
ATOM     12  CBF K26 d         -10.551  24.017 -14.372  0.00  0.00    -0.055 A 
ATOM     13  CAR K26 d          -9.884  25.003 -15.095  0.00  0.00    -0.074 A 
ATOM     14  CAN K26 d          -9.073  24.660 -16.174  0.00  0.00    -0.051 A 
ATOM     15  H1  K26 d          -9.997  26.045 -14.815  0.00  0.00     0.084 H 
ATOM     16  CBD K26 d          -8.925  23.320 -16.534  0.00  0.00     0.065 A 
ATOM     17  H2  K26 d          -8.558  25.433 -16.733  0.00  0.00     0.087 H 
ATOM     18  CAO K26 d          -9.581  22.319 -15.810  0.00  0.00    -0.051 A 
ATOM     19  CAS K26 d         -10.395  22.671 -14.733  0.00  0.00    -0.074 A 
ATOM     20  H4  K26 d          -9.459  21.278 -16.085  0.00  0.00     0.087 H 
ATOM     21  H5  K26 d         -10.910  21.900 -14.172  0.00  0.00     0.084 H 
BRANCH  16  22
ATOM     22  OAI K26 d          -8.131  23.001 -17.592  0.00  0.00    -0.361 OA
ATOM     23  H3  K26 d          -7.444  23.651 -17.678  0.00  0.00     0.217 HD
ENDBRANCH  16  22
ENDBRANCH   9  12
ENDBRANCH   7   9
BRANCH   7  24
ATOM     24  PBK K26 d         -11.527  24.822 -10.387  0.00  0.00     0.283 P 
ATOM     25  OAJ K26 d         -10.900  25.954  -9.475  0.00  0.00    -0.638 OA
ATOM     26  OAK K26 d         -13.021  25.303 -10.834  0.00  0.00    -0.638 OA
ATOM     27  OAG K26 d         -11.510  23.491  -9.723  0.00  0.00    -0.638 OA
ENDBRANCH   7  24
ENDBRANCH   4   7
ENDBRANCH   1   3
BRANCH   1  28
ATOM     28  N   K26 d          -5.884  23.982 -12.512  0.00  0.00    -0.346 N 
ATOM     29  CBB K26 d          -4.928  23.264 -13.115  0.00  0.00     0.241 C 
ATOM     30  OAF K26 d          -4.886  22.034 -13.145  0.00  0.00    -0.271 OA
ATOM     31  H11 K26 d          -5.803  24.978 -12.531  0.00  0.00     0.163 HD
BRANCH  29  32
ATOM     32  CBJ K26 d          -3.789  24.101 -13.724  0.00  0.00     0.092 C 
ATOM     33  H12 K26 d          -3.101  23.428 -14.255  0.00  0.00     0.088 H 
BRANCH  32  34
ATOM     34  CBG K26 d          -2.974  24.854 -12.665  0.00  0.00    -0.030 C 
ATOM     35  H13 K26 d          -1.915  24.840 -12.963  0.00  0.00     0.043 H 
BRANCH  34  36
ATOM     36  CAC K26 d          -3.442  26.312 -12.583  0.00  0.00    -0.071 C 
ATOM     37  H14 K26 d          -3.862  26.507 -11.585  0.00  0.00     0.028 H 
ATOM     38  H15 K26 d          -4.213  26.494 -13.346  0.00  0.00     0.028 H 
ATOM     39  H16 K26 d          -2.588  26.983 -12.759  0.00  0.00     0.028 H 
ENDBRANCH  34  36
BRANCH  34  40
ATOM     40  CAT K26 d          -3.102  24.179 -11.290  0.00  0.00    -0.063 C 
ATOM     41  H17 K26 d          -2.859  23.112 -11.398  0.00  0.00     0.033 H 
ATOM     42  H18 K26 d          -4.140  24.286 -10.941  0.00  0.00     0.033 H 
BRANCH  40  43
ATOM     43  CAA K26 d          -2.169  24.791 -10.245  0.00  0.00    -0.076 C 
ATOM     44  H19 K26 d          -2.031  24.080  -9.417  0.00  0.00     0.027 H 
ATOM     45  H20 K26 d          -2.610  25.722  -9.860  0.00  0.00     0.027 H 
ATOM     46  H21 K26 d          -1.196  25.011 -10.708  0.00  0.00     0.027 H 
ENDBRANCH  40  43
ENDBRANCH  34  40
ENDBRANCH  32  34
BRANCH  32  47
ATOM     47  NAX K26 d          -4.412  25.014 -14.702  0.00  0.00    -0.348 N 
ATOM     48  CAZ K26 d          -4.756  24.614 -15.928  0.00  0.00     0.214 C 
ATOM     49  OAD K26 d          -4.537  23.490 -16.376  0.00  0.00    -0.274 OA
ATOM     50  H22 K26 d          -4.582  25.964 -14.439  0.00  0.00     0.163 HD
BRANCH  48  51
ATOM     51  CAB K26 d          -5.433  25.675 -16.799  0.00  0.00    -0.003 C 
ATOM     52  H23 K26 d          -6.404  25.297 -17.149  0.00  0.00     0.040 H 
ATOM     53  H24 K26 d          -4.793  25.900 -17.665  0.00  0.00     0.040 H 
ATOM     54  H25 K26 d          -5.586  26.590 -16.208  0.00  0.00     0.040 H 
ENDBRANCH  48  51
ENDBRANCH  32  47
ENDBRANCH  29  32
ENDBRANCH   1  28
BRANCH   1  55
ATOM     55  CB  K26 d          -6.626  22.910 -10.439  0.00  0.00    -0.014 C 
ATOM     56  H26 K26 d          -5.561  22.639 -10.453  0.00  0.00     0.043 H 
ATOM     57  H27 K26 d          -7.224  22.031 -10.157  0.00  0.00     0.043 H 
BRANCH  55  58
ATOM     58  CG  K26 d          -6.859  24.039  -9.422  0.00  0.00    -0.056 A 
ATOM     59  CD1 K26 d          -5.948  25.089  -9.329  0.00  0.00    -0.074 A 
ATOM     60  CE1 K26 d          -6.163  26.127  -8.418  0.00  0.00    -0.051 A 
ATOM     61  H28 K26 d          -5.070  25.102  -9.965  0.00  0.00     0.084 H 
ATOM     62  CZ  K26 d          -7.292  26.117  -7.599  0.00  0.00     0.065 A 
ATOM     63  H29 K26 d          -5.451  26.941  -8.347  0.00  0.00     0.087 H 
ATOM     64  CE2 K26 d          -8.207  25.069  -7.697  0.00  0.00    -0.051 A 
ATOM     65  CD2 K26 d          -7.994  24.033  -8.610  0.00  0.00    -0.074 A 
ATOM     66  H31 K26 d          -9.085  25.057  -7.062  0.00  0.00     0.087 H 
ATOM     67  H32 K26 d          -8.712  23.224  -8.689  0.00  0.00     0.084 H 
BRANCH  62  68
ATOM     68  OH  K26 d          -7.494  27.128  -6.700  0.00  0.00    -0.361 OA
ATOM     69  H30 K26 d          -8.060  27.786  -7.086  0.00  0.00     0.217 HD
ENDBRANCH  62  68
ENDBRANCH  55  58
ENDBRANCH   1  55
TORSDOF 17
ENDMDL
MODEL 9
REMARK VINA RESULT:      -6.7      2.688      6.448
REMARK  17 active torsions:
REMARK  status: ('A' for Active; 'I' for Inactive)
REMARK    1  A    between atoms: CBD_3  and  OAI_4 
REMARK    2  A    between atoms: CBF_7  and  CAV_8 
REMARK    3  A    between atoms: CAV_8  and  CBI_9 
REMARK    4  A    between atoms: CBI_9  and  PBK_10 
REMARK    5  A    between atoms: CBI_9  and  NAY_14 
REMARK       I    between atoms: NAY_14  and  C_15 
REMARK    6  A    between atoms: C_15  and  CA_17 
REMARK    7  A    between atoms: CA_17  and  N_18 
REMARK    8  A    between atoms: CA_17  and  CB_30 
REMARK       I    between atoms: N_18  and  CBB_19 
REMARK    9  A    between atoms: CBB_19  and  CBJ_21 
REMARK   10  A    between atoms: CBJ_21  and  CBG_22 
REMARK   11  A    between atoms: CBJ_21  and  NAX_26 
REMARK   12  A    between atoms: CBG_22  and  CAC_23 
REMARK   13  A    between atoms: CBG_22  and  CAT_24 
REMARK   14  A    between atoms: CAT_24  and  CAA_25 
REMARK       I    between atoms: NAX_26  and  CAZ_27 
REMARK   15  A    between atoms: CAZ_27  and  CAB_28 
REMARK   16  A    between atoms: CB_30  and  CG_31 
REMARK   17  A    between atoms: CZ_34  and  OH_35 
ROOT
ATOM      1  CA  K26 d          -8.984  24.954 -12.716  0.00  0.00     0.093 C 
ATOM      2  H10 K26 d          -9.646  25.831 -12.778  0.00  0.00     0.088 H 
ENDROOT
BRANCH   1   3
ATOM      3  C   K26 d          -8.067  25.116 -11.502  0.00  0.00     0.241 C 
ATOM      4  NAY K26 d          -7.769  23.985 -10.857  0.00  0.00    -0.342 N 
ATOM      5  H9  K26 d          -8.080  23.115 -11.239  0.00  0.00     0.163 HD
ATOM      6  O   K26 d          -7.692  26.239 -11.163  0.00  0.00    -0.271 OA
BRANCH   4   7
ATOM      7  CBI K26 d          -6.998  23.974  -9.603  0.00  0.00     0.124 C 
ATOM      8  H8  K26 d          -6.648  22.949  -9.408  0.00  0.00     0.095 H 
BRANCH   7   9
ATOM      9  CAV K26 d          -5.767  24.889  -9.794  0.00  0.00    -0.010 C 
ATOM     10  H6  K26 d          -6.105  25.867 -10.168  0.00  0.00     0.044 H 
ATOM     11  H7  K26 d          -5.265  25.021  -8.824  0.00  0.00     0.044 H 
BRANCH   9  12
ATOM     12  CBF K26 d          -4.765  24.291 -10.795  0.00  0.00    -0.055 A 
ATOM     13  CAR K26 d          -5.031  23.051 -11.371  0.00  0.00    -0.074 A 
ATOM     14  CAN K26 d          -4.144  22.496 -12.289  0.00  0.00    -0.051 A 
ATOM     15  H1  K26 d          -5.934  22.515 -11.102  0.00  0.00     0.084 H 
ATOM     16  CBD K26 d          -2.982  23.185 -12.638  0.00  0.00     0.065 A 
ATOM     17  H2  K26 d          -4.356  21.530 -12.733  0.00  0.00     0.087 H 
ATOM     18  CAO K26 d          -2.708  24.435 -12.075  0.00  0.00    -0.051 A 
ATOM     19  CAS K26 d          -3.600  24.984 -11.152  0.00  0.00    -0.074 A 
ATOM     20  H4  K26 d          -1.810  24.974 -12.353  0.00  0.00     0.087 H 
ATOM     21  H5  K26 d          -3.390  25.951 -10.708  0.00  0.00     0.084 H 
BRANCH  16  22
ATOM     22  OAI K26 d          -2.124  22.628 -13.536  0.00  0.00    -0.361 OA
ATOM     23  H3  K26 d          -2.026  23.209 -14.281  0.00  0.00     0.217 HD
ENDBRANCH  16  22
ENDBRANCH   9  12
ENDBRANCH   7   9
BRANCH   7  24
ATOM     24  PBK K26 d          -8.048  24.499  -8.182  0.00  0.00     0.283 P 
ATOM     25  OAJ K26 d          -7.642  25.998  -7.875  0.00  0.00    -0.638 OA
ATOM     26  OAK K26 d          -9.555  24.501  -8.806  0.00  0.00    -0.638 OA
ATOM     27  OAG K26 d          -7.904  23.623  -6.989  0.00  0.00    -0.638 OA
ENDBRANCH   7  24
ENDBRANCH   4   7
ENDBRANCH   1   3
BRANCH   1  28
ATOM     28  N   K26 d          -8.154  24.886 -13.937  0.00  0.00    -0.346 N 
ATOM     29  CBB K26 d          -7.589  23.766 -14.402  0.00  0.00     0.241 C 
ATOM     30  OAF K26 d          -7.666  22.662 -13.861  0.00  0.00    -0.271 OA
ATOM     31  H11 K26 d          -8.005  25.732 -14.448  0.00  0.00     0.163 HD
BRANCH  29  32
ATOM     32  CBJ K26 d          -6.728  23.960 -15.663  0.00  0.00     0.092 C 
ATOM     33  H12 K26 d          -6.861  23.087 -16.319  0.00  0.00     0.088 H 
BRANCH  32  34
ATOM     34  CBG K26 d          -5.232  24.080 -15.349  0.00  0.00    -0.030 C 
ATOM     35  H13 K26 d          -5.088  23.927 -14.269  0.00  0.00     0.043 H 
BRANCH  34  36
ATOM     36  CAC K26 d          -4.450  23.002 -16.108  0.00  0.00    -0.071 C 
ATOM     37  H14 K26 d          -4.697  22.011 -15.696  0.00  0.00     0.028 H 
ATOM     38  H15 K26 d          -3.371  23.185 -15.998  0.00  0.00     0.028 H 
ATOM     39  H16 K26 d          -4.720  23.033 -17.174  0.00  0.00     0.028 H 
ENDBRANCH  34  36
BRANCH  34  40
ATOM     40  CAT K26 d          -4.703  25.476 -15.719  0.00  0.00    -0.063 C 
ATOM     41  H17 K26 d          -5.225  26.224 -15.104  0.00  0.00     0.033 H 
ATOM     42  H18 K26 d          -4.916  25.663 -16.781  0.00  0.00     0.033 H 
BRANCH  40  43
ATOM     43  CAA K26 d          -3.199  25.615 -15.488  0.00  0.00    -0.076 C 
ATOM     44  H19 K26 d          -2.680  24.750 -15.926  0.00  0.00     0.027 H 
ATOM     45  H20 K26 d          -2.996  25.656 -14.408  0.00  0.00     0.027 H 
ATOM     46  H21 K26 d          -2.839  26.539 -15.964  0.00  0.00     0.027 H 
ENDBRANCH  40  43
ENDBRANCH  34  40
ENDBRANCH  32  34
BRANCH  32  47
ATOM     47  NAX K26 d          -7.253  25.157 -16.352  0.00  0.00    -0.348 N 
ATOM     48  CAZ K26 d          -8.041  25.070 -17.425  0.00  0.00     0.214 C 
ATOM     49  OAD K26 d          -8.350  24.013 -17.973  0.00  0.00    -0.274 OA
ATOM     50  H22 K26 d          -7.009  26.062 -16.003  0.00  0.00     0.163 HD
BRANCH  48  51
ATOM     51  CAB K26 d          -8.532  26.405 -17.987  0.00  0.00    -0.003 C 
ATOM     52  H23 K26 d          -9.584  26.310 -18.293  0.00  0.00     0.040 H 
ATOM     53  H24 K26 d          -7.920  26.684 -18.858  0.00  0.00     0.040 H 
ATOM     54  H25 K26 d          -8.445  27.183 -17.214  0.00  0.00     0.040 H 
ENDBRANCH  48  51
ENDBRANCH  32  47
ENDBRANCH  29  32
ENDBRANCH   1  28
BRANCH   1  55
ATOM     55  CB  K26 d          -9.847  23.702 -12.622  0.00  0.00    -0.014 C 
ATOM     56  H26 K26 d          -9.276  22.896 -12.138  0.00  0.00     0.043 H 
ATOM     57  H27 K26 d         -10.147  23.383 -13.631  0.00  0.00     0.043 H 
BRANCH  55  58
ATOM     58  CG  K26 d         -11.097  24.023 -11.787  0.00  0.00    -0.056 A 
ATOM     59  CD1 K26 d         -11.782  22.998 -11.139  0.00  0.00    -0.074 A 
ATOM     60  CE1 K26 d         -12.910  23.286 -10.366  0.00  0.00    -0.051 A 
ATOM     61  H28 K26 d         -11.440  21.974 -11.234  0.00  0.00     0.084 H 
ATOM     62  CZ  K26 d         -13.354  24.604 -10.238  0.00  0.00     0.065 A 
ATOM     63  H29 K26 d         -13.442  22.486  -9.865  0.00  0.00     0.087 H 
ATOM     64  CE2 K26 d         -12.663  25.629 -10.882  0.00  0.00    -0.051 A 
ATOM     65  CD2 K26 d         -11.533  25.342 -11.652  0.00  0.00    -0.074 A 
ATOM     66  H31 K26 d         -13.004  26.654 -10.785  0.00  0.00     0.087 H 
ATOM     67  H32 K26 d         -10.995  26.145 -12.145  0.00  0.00     0.084 H 
BRANCH  62  68
ATOM     68  OH  K26 d         -14.465  24.881  -9.490  0.00  0.00    -0.361 OA
ATOM     69  H30 K26 d         -14.247  25.530  -8.831  0.00  0.00     0.217 HD
ENDBRANCH  62  68
ENDBRANCH  55  58
ENDBRANCH   1  55
TORSDOF 17
ENDMDL
MODEL 10
REMARK VINA RESULT:      -6.7      2.771      7.311
REMARK  17 active torsions:
REMARK  status: ('A' for Active; 'I' for Inactive)
REMARK    1  A    between atoms: CBD_3  and  OAI_4 
REMARK    2  A    between atoms: CBF_7  and  CAV_8 
REMARK    3  A    between atoms: CAV_8  and  CBI_9 
REMARK    4  A    between atoms: CBI_9  and  PBK_10 
REMARK    5  A    between atoms: CBI_9  and  NAY_14 
REMARK       I    between atoms: NAY_14  and  C_15 
REMARK    6  A    between atoms: C_15  and  CA_17 
REMARK    7  A    between atoms: CA_17  and  N_18 
REMARK    8  A    between atoms: CA_17  and  CB_30 
REMARK       I    between atoms: N_18  and  CBB_19 
REMARK    9  A    between atoms: CBB_19  and  CBJ_21 
REMARK   10  A    between atoms: CBJ_21  and  CBG_22 
REMARK   11  A    between atoms: CBJ_21  and  NAX_26 
REMARK   12  A    between atoms: CBG_22  and  CAC_23 
REMARK   13  A    between atoms: CBG_22  and  CAT_24 
REMARK   14  A    between atoms: CAT_24  and  CAA_25 
REMARK       I    between atoms: NAX_26  and  CAZ_27 
REMARK   15  A    between atoms: CAZ_27  and  CAB_28 
REMARK   16  A    between atoms: CB_30  and  CG_31 
REMARK   17  A    between atoms: CZ_34  and  OH_35 
ROOT
ATOM      1  CA  K26 d          -6.775  23.533 -12.188  0.00  0.00     0.093 C 
ATOM      2  H10 K26 d          -7.137  22.522 -11.951  0.00  0.00     0.088 H 
ENDROOT
BRANCH   1   3
ATOM      3  C   K26 d          -7.710  24.555 -11.534  0.00  0.00     0.241 C 
ATOM      4  NAY K26 d          -7.739  24.529 -10.199  0.00  0.00    -0.342 N 
ATOM      5  H9  K26 d          -7.107  23.924  -9.714  0.00  0.00     0.163 HD
ATOM      6  O   K26 d          -8.394  25.297 -12.240  0.00  0.00    -0.271 OA
BRANCH   4   7
ATOM      7  CBI K26 d          -8.668  25.360  -9.417  0.00  0.00     0.124 C 
ATOM      8  H8  K26 d          -9.089  26.138 -10.071  0.00  0.00     0.095 H 
BRANCH   7   9
ATOM      9  CAV K26 d          -9.819  24.451  -8.926  0.00  0.00    -0.010 C 
ATOM     10  H6  K26 d          -9.410  23.461  -8.676  0.00  0.00     0.044 H 
ATOM     11  H7  K26 d         -10.269  24.899  -8.027  0.00  0.00     0.044 H 
BRANCH   9  12
ATOM     12  CBF K26 d         -10.908  24.285  -9.998  0.00  0.00    -0.055 A 
ATOM     13  CAR K26 d         -11.100  23.038 -10.590  0.00  0.00    -0.074 A 
ATOM     14  CAN K26 d         -12.088  22.862 -11.555  0.00  0.00    -0.051 A 
ATOM     15  H1  K26 d         -10.477  22.201 -10.297  0.00  0.00     0.084 H 
ATOM     16  CBD K26 d         -12.893  23.937 -11.931  0.00  0.00     0.065 A 
ATOM     17  H2  K26 d         -12.233  21.890 -12.012  0.00  0.00     0.087 H 
ATOM     18  CAO K26 d         -12.717  25.191 -11.338  0.00  0.00    -0.051 A 
ATOM     19  CAS K26 d         -11.722  25.362 -10.375  0.00  0.00    -0.074 A 
ATOM     20  H4  K26 d         -13.348  26.024 -11.625  0.00  0.00     0.087 H 
ATOM     21  H5  K26 d         -11.577  26.333  -9.915  0.00  0.00     0.084 H 
BRANCH  16  22
ATOM     22  OAI K26 d         -13.853  23.749 -12.877  0.00  0.00    -0.361 OA
ATOM     23  H3  K26 d         -13.913  22.825 -13.087  0.00  0.00     0.217 HD
ENDBRANCH  16  22
ENDBRANCH   9  12
ENDBRANCH   7   9
BRANCH   7  24
ATOM     24  PBK K26 d          -7.792  26.194  -8.026  0.00  0.00     0.283 P 
ATOM     25  OAJ K26 d          -7.189  25.033  -7.136  0.00  0.00    -0.638 OA
ATOM     26  OAK K26 d          -6.555  26.960  -8.764  0.00  0.00    -0.638 OA
ATOM     27  OAG K26 d          -8.667  27.106  -7.243  0.00  0.00    -0.638 OA
ENDBRANCH   7  24
ENDBRANCH   4   7
ENDBRANCH   1   3
BRANCH   1  28
ATOM     28  N   K26 d          -6.803  23.728 -13.652  0.00  0.00    -0.346 N 
ATOM     29  CBB K26 d          -7.615  23.064 -14.485  0.00  0.00     0.241 C 
ATOM     30  OAF K26 d          -8.416  22.194 -14.141  0.00  0.00    -0.271 OA
ATOM     31  H11 K26 d          -6.175  24.398 -14.047  0.00  0.00     0.163 HD
BRANCH  29  32
ATOM     32  CBJ K26 d          -7.421  23.405 -15.973  0.00  0.00     0.092 C 
ATOM     33  H12 K26 d          -7.786  22.563 -16.579  0.00  0.00     0.088 H 
BRANCH  32  34
ATOM     34  CBG K26 d          -5.951  23.638 -16.343  0.00  0.00    -0.030 C 
ATOM     35  H13 K26 d          -5.535  24.399 -15.665  0.00  0.00     0.043 H 
BRANCH  34  36
ATOM     36  CAC K26 d          -5.155  22.338 -16.170  0.00  0.00    -0.071 C 
ATOM     37  H14 K26 d          -4.250  22.376 -16.794  0.00  0.00     0.028 H 
ATOM     38  H15 K26 d          -5.776  21.484 -16.477  0.00  0.00     0.028 H 
ATOM     39  H16 K26 d          -4.868  22.221 -15.114  0.00  0.00     0.028 H 
ENDBRANCH  34  36
BRANCH  34  40
ATOM     40  CAT K26 d          -5.822  24.149 -17.787  0.00  0.00    -0.063 C 
ATOM     41  H17 K26 d          -6.807  24.087 -18.272  0.00  0.00     0.033 H 
ATOM     42  H18 K26 d          -5.108  23.508 -18.325  0.00  0.00     0.033 H 
BRANCH  40  43
ATOM     43  CAA K26 d          -5.331  25.595 -17.857  0.00  0.00    -0.076 C 
ATOM     44  H19 K26 d          -4.375  25.631 -18.400  0.00  0.00     0.027 H 
ATOM     45  H20 K26 d          -5.188  25.984 -16.838  0.00  0.00     0.027 H 
ATOM     46  H21 K26 d          -6.076  26.210 -18.383  0.00  0.00     0.027 H 
ENDBRANCH  40  43
ENDBRANCH  34  40
ENDBRANCH  32  34
BRANCH  32  47
ATOM     47  NAX K26 d          -8.260  24.589 -16.248  0.00  0.00    -0.348 N 
ATOM     48  CAZ K26 d          -9.512  24.483 -16.696  0.00  0.00     0.214 C 
ATOM     49  OAD K26 d         -10.058  23.418 -16.979  0.00  0.00    -0.274 OA
ATOM     50  H22 K26 d          -7.877  25.501 -16.093  0.00  0.00     0.163 HD
BRANCH  48  51
ATOM     51  CAB K26 d         -10.256  25.807 -16.884  0.00  0.00    -0.003 C 
ATOM     52  H23 K26 d         -10.269  26.358 -15.933  0.00  0.00     0.040 H 
ATOM     53  H24 K26 d         -11.288  25.605 -17.206  0.00  0.00     0.040 H 
ATOM     54  H25 K26 d          -9.744  26.409 -17.650  0.00  0.00     0.040 H 
ENDBRANCH  48  51
ENDBRANCH  32  47
ENDBRANCH  29  32
ENDBRANCH   1  28
BRANCH   1  55
ATOM     55  CB  K26 d          -5.342  23.664 -11.688  0.00  0.00    -0.014 C 
ATOM     56  H26 K26 d          -4.956  22.673 -11.408  0.00  0.00     0.043 H 
ATOM     57  H27 K26 d          -5.316  24.329 -10.811  0.00  0.00     0.043 H 
BRANCH  55  58
ATOM     58  CG  K26 d          -4.477  24.257 -12.812  0.00  0.00    -0.056 A 
ATOM     59  CD1 K26 d          -4.791  25.505 -13.346  0.00  0.00    -0.074 A 
ATOM     60  CE1 K26 d          -3.997  26.056 -14.356  0.00  0.00    -0.051 A 
ATOM     61  H28 K26 d          -5.652  26.050 -12.978  0.00  0.00     0.084 H 
ATOM     62  CZ  K26 d          -2.886  25.359 -14.833  0.00  0.00     0.065 A 
ATOM     63  H29 K26 d          -4.246  27.026 -14.771  0.00  0.00     0.087 H 
ATOM     64  CE2 K26 d          -2.569  24.113 -14.292  0.00  0.00    -0.051 A 
ATOM     65  CD2 K26 d          -3.359  23.563 -13.280  0.00  0.00    -0.074 A 
ATOM     66  H31 K26 d          -1.707  23.569 -14.659  0.00  0.00     0.087 H 
ATOM     67  H32 K26 d          -3.104  22.598 -12.857  0.00  0.00     0.084 H 
BRANCH  62  68
ATOM     68  OH  K26 d          -2.118  25.896 -15.829  0.00  0.00    -0.361 OA
ATOM     69  H30 K26 d          -1.898  25.219 -16.458  0.00  0.00     0.217 HD
ENDBRANCH  62  68
ENDBRANCH  55  58
ENDBRANCH   1  55
TORSDOF 17
ENDMDL
