MODEL 1
REMARK VINA RESULT:      -8.2      0.000      0.000
REMARK  10 active torsions:
REMARK  status: ('A' for Active; 'I' for Inactive)
REMARK    1  A    between atoms: C3_3  and  C10_10 
REMARK    2  A    between atoms: C6_6  and  N7_7 
REMARK    3  A    between atoms: C10_10  and  N11_11 
REMARK    4  A    between atoms: N11_11  and  C17_17 
REMARK    5  A    between atoms: N11_11  and  C12_12 
REMARK    6  A    between atoms: C12_12  and  P13_13 
REMARK    7  A    between atoms: C17_17  and  C18_18 
REMARK    8  A    between atoms: C18_18  and  C19_19 
REMARK    9  A    between atoms: C19_19  and  C20_20 
REMARK   10  A    between atoms: C20_20  and  C21_21 
ROOT
ATOM      1  N11 AAH d         -24.098  40.353  15.989  0.00  0.00    -0.055 N 
ATOM      2  H7  AAH d         -24.425  39.837  16.791  0.00  0.00     0.281 HD
ENDROOT
BRANCH   1   3
ATOM      3  C10 AAH d         -22.743  39.802  15.768  0.00  0.00     0.108 C 
ATOM      4  H5  AAH d         -22.508  39.894  14.696  0.00  0.00     0.083 H 
ATOM      5  H6  AAH d         -22.031  40.403  16.352  0.00  0.00     0.083 H 
BRANCH   3   6
ATOM      6  C3  AAH d         -22.566  38.338  16.168  0.00  0.00    -0.032 C 
ATOM      7  C2  AAH d         -23.585  37.702  16.926  0.00  0.00    -0.073 C 
ATOM      8  C1  AAH d         -23.506  36.324  17.157  0.00  0.00    -0.050 C 
ATOM      9  H2  AAH d         -24.415  38.277  17.321  0.00  0.00     0.084 H 
ATOM     10  C6  AAH d         -22.332  35.626  16.843  0.00  0.00     0.102 C 
ATOM     11  H1  AAH d         -24.354  35.796  17.578  0.00  0.00     0.087 H 
ATOM     12  C5  AAH d         -21.307  36.262  16.156  0.00  0.00    -0.050 C 
ATOM     13  C4  AAH d         -21.447  37.618  15.798  0.00  0.00    -0.073 C 
ATOM     14  H4  AAH d         -20.405  35.719  15.896  0.00  0.00     0.087 H 
ATOM     15  H3  AAH d         -20.664  38.103  15.225  0.00  0.00     0.084 H 
BRANCH  10  16
ATOM     16  N7  AAH d         -22.199  34.189  17.242  0.00  0.00    -0.116 N 
ATOM     17  O9  AAH d         -21.395  33.486  16.719  0.00  0.00    -0.532 OA
ATOM     18  O8  AAH d         -23.030  33.681  17.904  0.00  0.00    -0.532 OA
ENDBRANCH  10  16
ENDBRANCH   3   6
ENDBRANCH   1   3
BRANCH   1  19
ATOM     19  C17 AAH d         -24.185  41.824  16.460  0.00  0.00     0.085 C 
ATOM     20  H10 AAH d         -25.170  42.227  16.178  0.00  0.00     0.076 H 
ATOM     21  H11 AAH d         -23.395  42.402  15.958  0.00  0.00     0.076 H 
BRANCH  19  22
ATOM     22  C18 AAH d         -24.011  41.967  17.981  0.00  0.00    -0.042 C 
ATOM     23  H12 AAH d         -24.486  42.902  18.313  0.00  0.00     0.035 H 
ATOM     24  H13 AAH d         -22.938  41.996  18.220  0.00  0.00     0.035 H 
BRANCH  22  25
ATOM     25  C19 AAH d         -24.662  40.782  18.715  0.00  0.00    -0.055 C 
ATOM     26  H14 AAH d         -23.966  39.930  18.725  0.00  0.00     0.033 H 
ATOM     27  H15 AAH d         -25.589  40.493  18.197  0.00  0.00     0.033 H 
BRANCH  25  28
ATOM     28  C20 AAH d         -24.988  41.191  20.158  0.00  0.00     0.016 C 
ATOM     29  H16 AAH d         -24.133  41.732  20.587  0.00  0.00     0.049 H 
ATOM     30  H17 AAH d         -25.189  40.290  20.756  0.00  0.00     0.049 H 
BRANCH  28  31
ATOM     31  C21 AAH d         -26.212  42.089  20.172  0.00  0.00     0.172 C 
ATOM     32  O23 AAH d         -26.197  43.103  20.862  0.00  0.00    -0.648 OA
ATOM     33  O22 AAH d         -27.331  41.773  19.428  0.00  0.00    -0.648 OA
ENDBRANCH  28  31
ENDBRANCH  25  28
ENDBRANCH  22  25
ENDBRANCH  19  22
ENDBRANCH   1  19
BRANCH   1  34
ATOM     34  C12 AAH d         -25.097  40.004  14.907  0.00  0.00     0.185 C 
ATOM     35  H8  AAH d         -24.840  38.996  14.548  0.00  0.00     0.098 H 
ATOM     36  H9  AAH d         -24.956  40.730  14.094  0.00  0.00     0.098 H 
BRANCH  34  37
ATOM     37  P13 AAH d         -26.906  39.988  15.306  0.00  0.00     0.286 P 
ATOM     38  O16 AAH d         -27.552  39.460  14.122  0.00  0.00    -0.638 OA
ATOM     39  O15 AAH d         -27.512  41.451  15.630  0.00  0.00    -0.638 OA
ATOM     40  O14 AAH d         -27.233  39.084  16.540  0.00  0.00    -0.638 OA
ENDBRANCH  34  37
ENDBRANCH   1  34
TORSDOF 10
ENDMDL
