MODEL 1
REMARK VINA RESULT:      -7.6      0.000      0.000
REMARK  0 active torsions:
REMARK  status: ('A' for Active; 'I' for Inactive)
ROOT
ATOM      1  C1  MOL d          22.965  36.339  41.481  0.00  0.00     0.096 A 
ATOM      2  C2  MOL d          24.383  36.760  41.308  0.00  0.00    -0.012 A 
ATOM      3  C3  MOL d          22.915  36.114  42.976  0.00  0.00     0.237 A 
ATOM      4  C4  MOL d          22.016  37.458  41.137  0.00  0.00    -0.021 C 
ATOM      5  C5  MOL d          22.534  35.123  40.687  0.00  0.00     0.101 C 
ATOM      6  C6  MOL d          25.023  36.814  42.510  0.00  0.00     0.042 A 
ATOM      7  C7  MOL d          25.052  37.076  40.163  0.00  0.00    -0.073 A 
ATOM      8  N1  MOL d          24.152  36.435  43.527  0.00  0.00    -0.326 N 
ATOM      9  O1  MOL d          21.867  35.870  43.567  0.00  0.00    -0.272 OA
ATOM     10  C8  MOL d          20.800  36.803  40.518  0.00  0.00     0.083 C 
ATOM     11  N2  MOL d          21.345  35.575  39.896  0.00  0.00    -0.074 N 
ATOM     12  C9  MOL d          26.333  37.210  42.626  0.00  0.00    -0.057 A 
ATOM     13  C10 MOL d          26.374  37.473  40.250  0.00  0.00    -0.082 A 
ATOM     14  C11 MOL d          27.008  37.526  41.472  0.00  0.00    -0.081 A 
ATOM     15  H1  MOL d          22.484  38.149  40.420  0.00  0.00     0.037 H 
ATOM     16  H2  MOL d          21.731  38.009  42.045  0.00  0.00     0.037 H 
ATOM     17  H3  MOL d          22.259  34.299  41.361  0.00  0.00     0.078 H 
ATOM     18  H4  MOL d          23.341  34.794  40.015  0.00  0.00     0.078 H 
ATOM     19  H5  MOL d          24.556  37.017  39.201  0.00  0.00     0.084 H 
ATOM     20  H6  MOL d          24.380  36.400  44.500  0.00  0.00     0.169 HD
ATOM     21  H7  MOL d          20.345  37.458  39.761  0.00  0.00     0.075 H 
ATOM     22  H8  MOL d          20.054  36.555  41.286  0.00  0.00     0.075 H 
ATOM     23  H9  MOL d          20.643  34.853  39.899  0.00  0.00     0.277 HD
ATOM     24  H10 MOL d          21.624  35.770  38.947  0.00  0.00     0.277 HD
ATOM     25  H11 MOL d          26.818  37.271  43.594  0.00  0.00     0.086 H 
ATOM     26  H12 MOL d          26.914  37.744  39.351  0.00  0.00     0.083 H 
ATOM     27  H13 MOL d          28.050  37.820  41.523  0.00  0.00     0.083 H 
ENDROOT
TORSDOF 0
ENDMDL
MODEL 2
REMARK VINA RESULT:      -6.9      2.377      4.726
REMARK  0 active torsions:
REMARK  status: ('A' for Active; 'I' for Inactive)
ROOT
ATOM      1  C1  MOL d          25.636  36.664  41.917  0.00  0.00     0.096 A 
ATOM      2  C2  MOL d          24.158  36.592  42.082  0.00  0.00    -0.012 A 
ATOM      3  C3  MOL d          25.740  37.313  40.554  0.00  0.00     0.237 A 
ATOM      4  C4  MOL d          26.256  37.589  42.932  0.00  0.00    -0.021 C 
ATOM      5  C5  MOL d          26.376  35.344  42.000  0.00  0.00     0.101 C 
ATOM      6  C6  MOL d          23.523  37.151  41.013  0.00  0.00     0.042 A 
ATOM      7  C7  MOL d          23.432  36.069  43.112  0.00  0.00    -0.073 A 
ATOM      8  N1  MOL d          24.459  37.598  40.087  0.00  0.00    -0.326 N 
ATOM      9  O1  MOL d          26.812  37.674  40.081  0.00  0.00    -0.272 OA
ATOM     10  C8  MOL d          27.603  36.993  43.277  0.00  0.00     0.083 C 
ATOM     11  N2  MOL d          27.405  35.541  43.070  0.00  0.00    -0.074 N 
ATOM     12  C9  MOL d          22.154  37.241  40.939  0.00  0.00    -0.057 A 
ATOM     13  C10 MOL d          22.053  36.142  43.060  0.00  0.00    -0.082 A 
ATOM     14  C11 MOL d          21.423  36.712  41.976  0.00  0.00    -0.081 A 
ATOM     15  H1  MOL d          25.624  37.649  43.830  0.00  0.00     0.037 H 
ATOM     16  H2  MOL d          26.382  38.595  42.505  0.00  0.00     0.037 H 
ATOM     17  H3  MOL d          26.858  35.111  41.039  0.00  0.00     0.078 H 
ATOM     18  H4  MOL d          25.687  34.531  42.272  0.00  0.00     0.078 H 
ATOM     19  H5  MOL d          23.929  35.605  43.956  0.00  0.00     0.084 H 
ATOM     20  H6  MOL d          24.246  38.052  39.222  0.00  0.00     0.169 HD
ATOM     21  H7  MOL d          27.871  37.208  44.322  0.00  0.00     0.075 H 
ATOM     22  H8  MOL d          28.387  37.381  42.610  0.00  0.00     0.075 H 
ATOM     23  H9  MOL d          28.274  35.117  42.786  0.00  0.00     0.277 HD
ATOM     24  H10 MOL d          27.088  35.116  43.927  0.00  0.00     0.277 HD
ATOM     25  H11 MOL d          21.668  37.713  40.093  0.00  0.00     0.086 H 
ATOM     26  H12 MOL d          21.462  35.747  43.878  0.00  0.00     0.083 H 
ATOM     27  H13 MOL d          20.341  36.745  41.940  0.00  0.00     0.083 H 
ENDROOT
TORSDOF 0
ENDMDL
MODEL 3
REMARK VINA RESULT:      -6.6      2.097      4.234
REMARK  0 active torsions:
REMARK  status: ('A' for Active; 'I' for Inactive)
ROOT
ATOM      1  C1  MOL d          25.587  36.388  41.928  0.00  0.00     0.096 A 
ATOM      2  C2  MOL d          24.142  36.688  41.730  0.00  0.00    -0.012 A 
ATOM      3  C3  MOL d          25.518  35.375  43.049  0.00  0.00     0.237 A 
ATOM      4  C4  MOL d          26.177  35.714  40.715  0.00  0.00    -0.021 C 
ATOM      5  C5  MOL d          26.470  37.573  42.258  0.00  0.00     0.101 C 
ATOM      6  C6  MOL d          23.372  35.936  42.566  0.00  0.00     0.042 A 
ATOM      7  C7  MOL d          23.557  37.565  40.866  0.00  0.00    -0.073 A 
ATOM      8  N1  MOL d          24.183  35.133  43.362  0.00  0.00    -0.326 N 
ATOM      9  O1  MOL d          26.506  34.764  43.442  0.00  0.00    -0.272 OA
ATOM     10  C8  MOL d          27.603  36.209  40.611  0.00  0.00     0.083 C 
ATOM     11  N2  MOL d          27.549  37.557  41.219  0.00  0.00    -0.074 N 
ATOM     12  C9  MOL d          22.000  36.001  42.556  0.00  0.00    -0.057 A 
ATOM     13  C10 MOL d          22.178  37.655  40.839  0.00  0.00    -0.082 A 
ATOM     14  C11 MOL d          21.410  36.887  41.686  0.00  0.00    -0.081 A 
ATOM     15  H1  MOL d          25.611  35.989  39.813  0.00  0.00     0.037 H 
ATOM     16  H2  MOL d          26.161  34.622  40.840  0.00  0.00     0.037 H 
ATOM     17  H3  MOL d          26.902  37.465  43.264  0.00  0.00     0.078 H 
ATOM     18  H4  MOL d          25.897  38.510  42.204  0.00  0.00     0.078 H 
ATOM     19  H5  MOL d          24.163  38.181  40.211  0.00  0.00     0.084 H 
ATOM     20  H6  MOL d          23.858  34.485  44.051  0.00  0.00     0.169 HD
ATOM     21  H7  MOL d          27.924  36.265  39.561  0.00  0.00     0.075 H 
ATOM     22  H8  MOL d          28.288  35.554  41.170  0.00  0.00     0.075 H 
ATOM     23  H9  MOL d          28.435  37.772  41.648  0.00  0.00     0.277 HD
ATOM     24  H10 MOL d          27.345  38.242  40.509  0.00  0.00     0.277 HD
ATOM     25  H11 MOL d          21.403  35.376  43.210  0.00  0.00     0.086 H 
ATOM     26  H12 MOL d          21.697  38.335  40.145  0.00  0.00     0.083 H 
ATOM     27  H13 MOL d          20.331  36.982  41.668  0.00  0.00     0.083 H 
ENDROOT
TORSDOF 0
ENDMDL
MODEL 4
REMARK VINA RESULT:      -6.0      1.765      2.536
REMARK  0 active torsions:
REMARK  status: ('A' for Active; 'I' for Inactive)
ROOT
ATOM      1  C1  MOL d          23.425  36.264  41.757  0.00  0.00     0.096 A 
ATOM      2  C2  MOL d          24.897  36.344  41.544  0.00  0.00    -0.012 A 
ATOM      3  C3  MOL d          22.951  37.425  40.910  0.00  0.00     0.237 A 
ATOM      4  C4  MOL d          22.857  34.993  41.181  0.00  0.00    -0.021 C 
ATOM      5  C5  MOL d          22.959  36.354  43.196  0.00  0.00     0.101 C 
ATOM      6  C6  MOL d          25.208  37.352  40.681  0.00  0.00     0.042 A 
ATOM      7  C7  MOL d          25.886  35.572  42.079  0.00  0.00    -0.073 A 
ATOM      8  N1  MOL d          24.048  38.009  40.283  0.00  0.00    -0.326 N 
ATOM      9  O1  MOL d          21.761  37.642  40.704  0.00  0.00    -0.272 OA
ATOM     10  C8  MOL d          21.727  34.583  42.099  0.00  0.00     0.083 C 
ATOM     11  N2  MOL d          22.134  35.124  43.416  0.00  0.00    -0.074 N 
ATOM     12  C9  MOL d          26.500  37.612  40.293  0.00  0.00    -0.057 A 
ATOM     13  C10 MOL d          27.195  35.816  41.709  0.00  0.00    -0.082 A 
ATOM     14  C11 MOL d          27.496  36.836  40.834  0.00  0.00    -0.081 A 
ATOM     15  H1  MOL d          23.629  34.209  41.152  0.00  0.00     0.037 H 
ATOM     16  H2  MOL d          22.477  35.171  40.164  0.00  0.00     0.037 H 
ATOM     17  H3  MOL d          22.351  37.258  43.349  0.00  0.00     0.078 H 
ATOM     18  H4  MOL d          23.819  36.370  43.881  0.00  0.00     0.078 H 
ATOM     19  H5  MOL d          25.649  34.781  42.781  0.00  0.00     0.084 H 
ATOM     20  H6  MOL d          24.009  38.779  39.646  0.00  0.00     0.169 HD
ATOM     21  H7  MOL d          21.629  33.488  42.138  0.00  0.00     0.075 H 
ATOM     22  H8  MOL d          20.775  35.025  41.771  0.00  0.00     0.075 H 
ATOM     23  H9  MOL d          21.315  35.356  43.955  0.00  0.00     0.277 HD
ATOM     24  H10 MOL d          22.678  34.435  43.911  0.00  0.00     0.277 HD
ATOM     25  H11 MOL d          26.725  38.402  39.585  0.00  0.00     0.086 H 
ATOM     26  H12 MOL d          27.991  35.200  42.112  0.00  0.00     0.083 H 
ATOM     27  H13 MOL d          28.529  37.028  40.568  0.00  0.00     0.083 H 
ENDROOT
TORSDOF 0
ENDMDL
MODEL 5
REMARK VINA RESULT:      -5.7      1.750      2.766
REMARK  0 active torsions:
REMARK  status: ('A' for Active; 'I' for Inactive)
ROOT
ATOM      1  C1  MOL d          23.538  35.950  41.922  0.00  0.00     0.096 A 
ATOM      2  C2  MOL d          24.898  36.556  41.870  0.00  0.00    -0.012 A 
ATOM      3  C3  MOL d          23.327  35.600  40.465  0.00  0.00     0.237 A 
ATOM      4  C4  MOL d          23.537  34.673  42.722  0.00  0.00    -0.021 C 
ATOM      5  C5  MOL d          22.441  36.832  42.481  0.00  0.00     0.101 C 
ATOM      6  C6  MOL d          25.400  36.514  40.604  0.00  0.00     0.042 A 
ATOM      7  C7  MOL d          25.635  37.101  42.880  0.00  0.00    -0.073 A 
ATOM      8  N1  MOL d          24.471  35.935  39.746  0.00  0.00    -0.326 N 
ATOM      9  O1  MOL d          22.358  34.954  40.081  0.00  0.00    -0.272 OA
ATOM     10  C8  MOL d          22.197  34.616  43.422  0.00  0.00     0.083 C 
ATOM     11  N2  MOL d          21.836  36.041  43.599  0.00  0.00    -0.074 N 
ATOM     12  C9  MOL d          26.655  36.980  40.298  0.00  0.00    -0.057 A 
ATOM     13  C10 MOL d          26.899  37.582  42.599  0.00  0.00    -0.082 A 
ATOM     14  C11 MOL d          27.397  37.531  41.315  0.00  0.00    -0.081 A 
ATOM     15  H1  MOL d          24.353  34.685  43.460  0.00  0.00     0.037 H 
ATOM     16  H2  MOL d          23.657  33.806  42.057  0.00  0.00     0.037 H 
ATOM     17  H3  MOL d          21.688  37.048  41.709  0.00  0.00     0.078 H 
ATOM     18  H4  MOL d          22.860  37.777  42.859  0.00  0.00     0.078 H 
ATOM     19  H5  MOL d          25.235  37.155  43.887  0.00  0.00     0.084 H 
ATOM     20  H6  MOL d          24.605  35.783  38.766  0.00  0.00     0.169 HD
ATOM     21  H7  MOL d          22.284  34.110  44.394  0.00  0.00     0.075 H 
ATOM     22  H8  MOL d          21.452  34.097  42.802  0.00  0.00     0.075 H 
ATOM     23  H9  MOL d          20.834  36.141  43.582  0.00  0.00     0.277 HD
ATOM     24  H10 MOL d          22.192  36.374  44.481  0.00  0.00     0.277 HD
ATOM     25  H11 MOL d          27.048  36.914  39.289  0.00  0.00     0.086 H 
ATOM     26  H12 MOL d          27.504  38.002  43.394  0.00  0.00     0.083 H 
ATOM     27  H13 MOL d          28.382  37.930  41.105  0.00  0.00     0.083 H 
ENDROOT
TORSDOF 0
ENDMDL
