MODEL 1
REMARK VINA RESULT:      -9.1      0.000      0.000
REMARK  7 active torsions:
REMARK  status: ('A' for Active; 'I' for Inactive)
REMARK    1  A    between atoms: C1_1  and  C6_6 
REMARK    2  A    between atoms: C7_7  and  C2_2 
REMARK    3  A    between atoms: N4_4  and  C33_33 
REMARK       I    between atoms: C6_6  and  N11_11 
REMARK       I    between atoms: N8_8  and  C7_7 
REMARK    4  A    between atoms: C19_19  and  N8_8 
REMARK    5  A    between atoms: N11_11  and  C12_12 
REMARK    6  A    between atoms: N25_25  and  C21_21 
REMARK    7  A    between atoms: C33_33  and  C34_34 
ROOT
ATOM      1  C1  XBV d           8.361  67.851   3.949  0.00  0.00     0.060 C 
ATOM      2  C2  XBV d           7.606  67.374   2.699  0.00  0.00     0.060 C 
ATOM      3  C3  XBV d           6.581  68.493   2.415  0.00  0.00     0.096 C 
ATOM      4  N4  XBV d           7.318  69.710   2.879  0.00  0.00    -0.064 N 
ATOM      5  C5  XBV d           8.041  69.349   4.124  0.00  0.00     0.096 C 
ATOM      6  H1  XBV d           7.963  67.312   4.821  0.00  0.00     0.058 H 
ATOM      7  H2  XBV d           8.294  67.254   1.848  0.00  0.00     0.058 H 
ATOM      8  H3  XBV d           5.655  68.343   2.990  0.00  0.00     0.077 H 
ATOM      9  H4  XBV d           6.342  68.554   1.343  0.00  0.00     0.077 H 
ATOM     10  H5  XBV d           7.981  69.990   2.173  0.00  0.00     0.280 HD
ATOM     11  H6  XBV d           8.966  69.938   4.223  0.00  0.00     0.077 H 
ATOM     12  H7  XBV d           7.405  69.513   5.007  0.00  0.00     0.077 H 
ENDROOT
BRANCH   2  13
ATOM     13  C7  XBV d           6.917  66.055   2.980  0.00  0.00     0.229 C 
ATOM     14  N8  XBV d           7.704  65.014   2.927  0.00  0.00    -0.324 N 
ATOM     15  H8  XBV d           8.674  65.185   2.755  0.00  0.00     0.169 HD
ATOM     16  O9  XBV d           5.739  65.973   3.291  0.00  0.00    -0.273 OA
BRANCH  14  17
ATOM     17  C19 XBV d           7.306  63.670   3.090  0.00  0.00     0.073 A 
ATOM     18  C20 XBV d           6.742  63.153   4.262  0.00  0.00    -0.052 A 
ATOM     19  C23 XBV d           6.439  61.789   4.307  0.00  0.00    -0.054 A 
ATOM     20  H13 XBV d           6.544  63.794   5.113  0.00  0.00     0.087 H 
ATOM     21  C21 XBV d           6.755  60.986   3.206  0.00  0.00     0.045 A 
ATOM     22  H15 XBV d           5.967  61.359   5.182  0.00  0.00     0.087 H 
ATOM     23  C22 XBV d           7.327  61.510   2.038  0.00  0.00    -0.017 A 
ATOM     24  C24 XBV d           7.558  62.891   1.995  0.00  0.00     0.145 A 
ATOM     25  H14 XBV d           7.581  60.871   1.200  0.00  0.00     0.091 H 
ATOM     26  F32 XBV d           8.128  63.418   0.901  0.00  0.00    -0.204 F 
BRANCH  21  27
ATOM     27  N25 XBV d           6.478  59.586   3.188  0.00  0.00    -0.290 N 
ATOM     28  C26 XBV d           7.400  58.685   3.744  0.00  0.00    -0.011 A 
ATOM     29  C29 XBV d           7.170  57.343   3.710  0.00  0.00    -0.067 A 
ATOM     30  H16 XBV d           8.310  59.065   4.209  0.00  0.00     0.112 H 
ATOM     31  C27 XBV d           5.997  56.839   3.135  0.00  0.00    -0.076 A 
ATOM     32  H19 XBV d           7.903  56.658   4.132  0.00  0.00     0.085 H 
ATOM     33  C28 XBV d           5.076  57.704   2.587  0.00  0.00    -0.017 A 
ATOM     34  H17 XBV d           5.814  55.766   3.122  0.00  0.00     0.083 H 
ATOM     35  C30 XBV d           5.292  59.129   2.600  0.00  0.00     0.252 A 
ATOM     36  H18 XBV d           4.168  57.305   2.136  0.00  0.00     0.092 H 
ATOM     37  O31 XBV d           4.493  59.927   2.096  0.00  0.00    -0.268 OA
ENDBRANCH  21  27
ENDBRANCH  14  17
ENDBRANCH   2  13
BRANCH   1  38
ATOM     38  C6  XBV d           9.838  67.551   3.881  0.00  0.00     0.230 C 
ATOM     39  O10 XBV d          10.671  68.418   3.665  0.00  0.00    -0.273 OA
ATOM     40  N11 XBV d          10.190  66.282   4.189  0.00  0.00    -0.311 N 
ATOM     41  H9  XBV d           9.461  65.708   4.562  0.00  0.00     0.170 HD
BRANCH  40  42
ATOM     42  C12 XBV d          11.433  65.667   4.055  0.00  0.00     0.129 A 
ATOM     43  N13 XBV d          12.329  65.775   5.050  0.00  0.00    -0.242 NA
ATOM     44  C16 XBV d          13.611  65.341   4.914  0.00  0.00     0.025 A 
ATOM     45  C14 XBV d          14.046  64.801   3.688  0.00  0.00     0.051 A 
ATOM     46  H11 XBV d          14.298  65.411   5.750  0.00  0.00     0.117 H 
ATOM     47  C15 XBV d          13.128  64.699   2.625  0.00  0.00    -0.057 A 
ATOM     48 CL1  XBV d          15.699  64.332   3.437  0.00  0.00    -0.083 Cl
ATOM     49  C17 XBV d          11.820  65.154   2.809  0.00  0.00    -0.037 A 
ATOM     50  H10 XBV d          13.432  64.272   1.676  0.00  0.00     0.086 H 
ATOM     51  H12 XBV d          11.108  65.111   1.992  0.00  0.00     0.089 H 
ENDBRANCH  40  42
ENDBRANCH   1  38
BRANCH   4  52
ATOM     52  C33 XBV d           6.391  70.826   3.131  0.00  0.00     0.137 C 
ATOM     53  H20 XBV d           5.956  70.710   4.135  0.00  0.00     0.084 H 
ATOM     54  H21 XBV d           5.589  70.800   2.379  0.00  0.00     0.084 H 
BRANCH  52  55
ATOM     55  C34 XBV d           7.105  72.176   3.052  0.00  0.00     0.231 C 
ATOM     56  F35 XBV d           7.609  72.590   4.289  0.00  0.00    -0.213 F 
ATOM     57  F36 XBV d           8.213  71.998   2.250  0.00  0.00    -0.213 F 
ATOM     58  H22 XBV d           6.426  72.938   2.640  0.00  0.00     0.147 H 
ENDBRANCH  52  55
ENDBRANCH   4  52
TORSDOF 7
ENDMDL
MODEL 2
REMARK VINA RESULT:      -6.6      1.515      1.820
REMARK  7 active torsions:
REMARK  status: ('A' for Active; 'I' for Inactive)
REMARK    1  A    between atoms: C1_1  and  C6_6 
REMARK    2  A    between atoms: C7_7  and  C2_2 
REMARK    3  A    between atoms: N4_4  and  C33_33 
REMARK       I    between atoms: C6_6  and  N11_11 
REMARK       I    between atoms: N8_8  and  C7_7 
REMARK    4  A    between atoms: C19_19  and  N8_8 
REMARK    5  A    between atoms: N11_11  and  C12_12 
REMARK    6  A    between atoms: N25_25  and  C21_21 
REMARK    7  A    between atoms: C33_33  and  C34_34 
ROOT
ATOM      1  C1  XBV d           8.165  67.945   2.990  0.00  0.00     0.060 C 
ATOM      2  C2  XBV d           7.563  67.372   1.698  0.00  0.00     0.060 C 
ATOM      3  C3  XBV d           6.639  68.491   1.171  0.00  0.00     0.096 C 
ATOM      4  N4  XBV d           7.364  69.723   1.616  0.00  0.00    -0.064 N 
ATOM      5  C5  XBV d           7.895  69.464   2.977  0.00  0.00     0.096 C 
ATOM      6  H1  XBV d           7.628  67.510   3.845  0.00  0.00     0.058 H 
ATOM      7  H2  XBV d           8.352  67.145   0.965  0.00  0.00     0.058 H 
ATOM      8  H3  XBV d           5.638  68.430   1.624  0.00  0.00     0.077 H 
ATOM      9  H4  XBV d           6.549  68.454   0.075  0.00  0.00     0.077 H 
ATOM     10  H5  XBV d           8.127  69.909   0.985  0.00  0.00     0.280 HD
ATOM     11  H6  XBV d           8.824  70.028   3.148  0.00  0.00     0.077 H 
ATOM     12  H7  XBV d           7.155  69.736   3.744  0.00  0.00     0.077 H 
ENDROOT
BRANCH   2  13
ATOM     13  C7  XBV d           6.782  66.112   2.003  0.00  0.00     0.229 C 
ATOM     14  N8  XBV d           7.508  65.029   2.063  0.00  0.00    -0.324 N 
ATOM     15  H8  XBV d           8.497  65.136   1.950  0.00  0.00     0.169 HD
ATOM     16  O9  XBV d           5.582  66.112   2.235  0.00  0.00    -0.273 OA
BRANCH  14  17
ATOM     17  C19 XBV d           7.023  63.719   2.273  0.00  0.00     0.073 A 
ATOM     18  C20 XBV d           6.271  63.329   3.387  0.00  0.00    -0.052 A 
ATOM     19  C23 XBV d           5.896  61.987   3.495  0.00  0.00    -0.054 A 
ATOM     20  H13 XBV d           5.985  64.049   4.145  0.00  0.00     0.087 H 
ATOM     21  C21 XBV d           6.325  61.079   2.522  0.00  0.00     0.045 A 
ATOM     22  H15 XBV d           5.281  61.653   4.323  0.00  0.00     0.087 H 
ATOM     23  C22 XBV d           7.086  61.477   1.412  0.00  0.00    -0.017 A 
ATOM     24  C24 XBV d           7.390  62.839   1.294  0.00  0.00     0.145 A 
ATOM     25  H14 XBV d           7.425  60.759   0.675  0.00  0.00     0.091 H 
ATOM     26  F32 XBV d           8.138  63.247   0.257  0.00  0.00    -0.204 F 
BRANCH  21  27
ATOM     27  N25 XBV d           5.983  59.694   2.575  0.00  0.00    -0.290 N 
ATOM     28  C26 XBV d           4.957  59.197   1.757  0.00  0.00    -0.011 A 
ATOM     29  C29 XBV d           4.595  57.885   1.815  0.00  0.00    -0.067 A 
ATOM     30  H16 XBV d           4.445  59.868   1.068  0.00  0.00     0.112 H 
ATOM     31  C27 XBV d           5.255  57.004   2.680  0.00  0.00    -0.076 A 
ATOM     32  H19 XBV d           3.786  57.519   1.184  0.00  0.00     0.085 H 
ATOM     33  C28 XBV d           6.268  57.469   3.489  0.00  0.00    -0.017 A 
ATOM     34  H17 XBV d           4.968  55.954   2.712  0.00  0.00     0.083 H 
ATOM     35  C30 XBV d           6.671  58.852   3.458  0.00  0.00     0.252 A 
ATOM     36  H18 XBV d           6.774  56.780   4.164  0.00  0.00     0.092 H 
ATOM     37  O31 XBV d           7.562  59.302   4.189  0.00  0.00    -0.268 OA
ENDBRANCH  21  27
ENDBRANCH  14  17
ENDBRANCH   2  13
BRANCH   1  38
ATOM     38  C6  XBV d           9.622  67.591   3.155  0.00  0.00     0.230 C 
ATOM     39  O10 XBV d          10.505  68.435   3.148  0.00  0.00    -0.273 OA
ATOM     40  N11 XBV d           9.878  66.291   3.426  0.00  0.00    -0.311 N 
ATOM     41  H9  XBV d           9.080  65.724   3.626  0.00  0.00     0.170 HD
BRANCH  40  42
ATOM     42  C12 XBV d          11.107  65.636   3.464  0.00  0.00     0.129 A 
ATOM     43  N13 XBV d          11.881  65.753   4.557  0.00  0.00    -0.242 NA
ATOM     44  C16 XBV d          13.154  65.278   4.591  0.00  0.00     0.025 A 
ATOM     45  C14 XBV d          13.716  64.682   3.445  0.00  0.00     0.051 A 
ATOM     46  H11 XBV d          13.738  65.358   5.501  0.00  0.00     0.117 H 
ATOM     47  C15 XBV d          12.929  64.568   2.282  0.00  0.00    -0.057 A 
ATOM     48 CL1  XBV d          15.371  64.157   3.411  0.00  0.00    -0.083 Cl
ATOM     49  C17 XBV d          11.624  65.067   2.291  0.00  0.00    -0.037 A 
ATOM     50  H10 XBV d          13.331  64.100   1.391  0.00  0.00     0.086 H 
ATOM     51  H12 XBV d          11.015  65.016   1.396  0.00  0.00     0.089 H 
ENDBRANCH  40  42
ENDBRANCH   1  38
BRANCH   4  52
ATOM     52  C33 XBV d           6.464  70.888   1.632  0.00  0.00     0.137 C 
ATOM     53  H20 XBV d           7.063  71.804   1.515  0.00  0.00     0.084 H 
ATOM     54  H21 XBV d           5.933  70.918   2.594  0.00  0.00     0.084 H 
BRANCH  52  55
ATOM     55  C34 XBV d           5.438  70.820   0.500  0.00  0.00     0.231 C 
ATOM     56  F35 XBV d           4.625  69.685   0.580  0.00  0.00    -0.213 F 
ATOM     57  F36 XBV d           4.586  71.891   0.666  0.00  0.00    -0.213 F 
ATOM     58  H22 XBV d           5.948  70.857  -0.475  0.00  0.00     0.147 H 
ENDBRANCH  52  55
ENDBRANCH   4  52
TORSDOF 7
ENDMDL
