MODEL 1
REMARK VINA RESULT:      -5.1      0.000      0.000
REMARK  5 active torsions:
REMARK  status: ('A' for Active; 'I' for Inactive)
REMARK    1  A    between atoms: C4_2  and  C2_3 
REMARK       I    between atoms: C4_2  and  N_7 
REMARK    2  A    between atoms: C2_3  and  C1_4 
REMARK    3  A    between atoms: C2_3  and  C3_6 
REMARK    4  A    between atoms: C1_4  and  S_5 
REMARK    5  A    between atoms: C8_8  and  C9_9 
ROOT
ATOM      1  O1  X8Z d          29.932   3.543 -43.396  0.00  0.00    -0.273 OA
ATOM      2  C4  X8Z d          28.908   4.265 -43.612  0.00  0.00     0.225 C 
ATOM      3  N   X8Z d          29.064   5.473 -44.197  0.00  0.00    -0.337 N 
ATOM      4  C8  X8Z d          30.421   6.010 -44.585  0.00  0.00     0.098 C 
ATOM      5  C5  X8Z d          28.000   6.487 -44.544  0.00  0.00    -0.001 C 
ATOM      6  C6  X8Z d          28.709   7.661 -45.111  0.00  0.00    -0.048 C 
ATOM      7  C7  X8Z d          30.155   7.307 -45.301  0.00  0.00    -0.035 C 
ATOM      8  H8  X8Z d          30.931   5.304 -45.257  0.00  0.00     0.089 H 
ATOM      9  H9  X8Z d          27.444   6.777 -43.641  0.00  0.00     0.064 H 
ATOM     10  H10 X8Z d          27.304   6.069 -45.285  0.00  0.00     0.064 H 
ATOM     11  H11 X8Z d          28.625   8.513 -44.420  0.00  0.00     0.035 H 
ATOM     12  H12 X8Z d          28.263   7.929 -46.080  0.00  0.00     0.035 H 
ATOM     13  H13 X8Z d          30.372   7.191 -46.373  0.00  0.00     0.036 H 
ATOM     14  H14 X8Z d          30.791   8.100 -44.881  0.00  0.00     0.036 H 
ENDROOT
BRANCH   2  15
ATOM     15  C2  X8Z d          27.533   3.742 -43.187  0.00  0.00     0.028 C 
ATOM     16  H1  X8Z d          26.782   3.991 -43.951  0.00  0.00     0.055 H 
BRANCH  15  17
ATOM     17  C1  X8Z d          27.619   2.217 -43.054  0.00  0.00    -0.015 C 
ATOM     18  H2  X8Z d          27.255   1.938 -42.053  0.00  0.00     0.049 H 
ATOM     19  H3  X8Z d          28.673   1.922 -43.156  0.00  0.00     0.049 H 
BRANCH  17  20
ATOM     20  S   X8Z d          26.663   1.306 -44.268  0.00  0.00    -0.181 SA
ATOM     21  H4  X8Z d          25.767   1.752 -44.392  0.00  0.00     0.101 HD
ENDBRANCH  17  20
ENDBRANCH  15  17
BRANCH  15  22
ATOM     22  C3  X8Z d          27.163   4.442 -41.870  0.00  0.00    -0.064 C 
ATOM     23  H5  X8Z d          26.098   4.274 -41.653  0.00  0.00     0.028 H 
ATOM     24  H6  X8Z d          27.352   5.522 -41.963  0.00  0.00     0.028 H 
ATOM     25  H7  X8Z d          27.773   4.032 -41.052  0.00  0.00     0.028 H 
ENDBRANCH  15  22
ENDBRANCH   2  15
BRANCH   4  26
ATOM     26  C9  X8Z d          31.299   6.244 -43.334  0.00  0.00     0.196 C 
ATOM     27  O3  X8Z d          30.909   6.890 -42.381  0.00  0.00    -0.646 OA
ATOM     28  O2  X8Z d          32.472   5.717 -43.348  0.00  0.00    -0.646 OA
ENDBRANCH   4  26
TORSDOF 5
ENDMDL
MODEL 2
REMARK VINA RESULT:      -4.4      2.565      4.650
REMARK  5 active torsions:
REMARK  status: ('A' for Active; 'I' for Inactive)
REMARK    1  A    between atoms: C4_2  and  C2_3 
REMARK       I    between atoms: C4_2  and  N_7 
REMARK    2  A    between atoms: C2_3  and  C1_4 
REMARK    3  A    between atoms: C2_3  and  C3_6 
REMARK    4  A    between atoms: C1_4  and  S_5 
REMARK    5  A    between atoms: C8_8  and  C9_9 
ROOT
ATOM      1  O1  X8Z d          30.819   4.844 -43.700  0.00  0.00    -0.273 OA
ATOM      2  C4  X8Z d          29.967   5.769 -43.891  0.00  0.00     0.225 C 
ATOM      3  N   X8Z d          28.707   5.610 -43.431  0.00  0.00    -0.337 N 
ATOM      4  C8  X8Z d          28.263   4.358 -42.713  0.00  0.00     0.098 C 
ATOM      5  C5  X8Z d          27.544   6.567 -43.545  0.00  0.00    -0.001 C 
ATOM      6  C6  X8Z d          26.378   5.886 -42.930  0.00  0.00    -0.048 C 
ATOM      7  C7  X8Z d          26.851   4.623 -42.269  0.00  0.00    -0.035 C 
ATOM      8  H8  X8Z d          28.907   4.173 -41.841  0.00  0.00     0.089 H 
ATOM      9  H9  X8Z d          27.340   6.792 -44.602  0.00  0.00     0.064 H 
ATOM     10  H10 X8Z d          27.766   7.501 -43.008  0.00  0.00     0.064 H 
ATOM     11  H11 X8Z d          25.639   5.641 -43.708  0.00  0.00     0.035 H 
ATOM     12  H12 X8Z d          25.917   6.546 -42.180  0.00  0.00     0.035 H 
ATOM     13  H13 X8Z d          26.821   4.743 -41.175  0.00  0.00     0.036 H 
ATOM     14  H14 X8Z d          26.204   3.784 -42.564  0.00  0.00     0.036 H 
ENDROOT
BRANCH   2  15
ATOM     15  C2  X8Z d          30.401   7.026 -44.651  0.00  0.00     0.028 C 
ATOM     16  H1  X8Z d          29.517   7.568 -45.018  0.00  0.00     0.055 H 
BRANCH  15  17
ATOM     17  C1  X8Z d          31.173   7.930 -43.683  0.00  0.00    -0.015 C 
ATOM     18  H2  X8Z d          31.241   8.933 -44.130  0.00  0.00     0.049 H 
ATOM     19  H3  X8Z d          32.184   7.515 -43.558  0.00  0.00     0.049 H 
BRANCH  17  20
ATOM     20  S   X8Z d          30.430   8.092 -42.059  0.00  0.00    -0.181 SA
ATOM     21  H4  X8Z d          30.063   7.199 -41.768  0.00  0.00     0.101 HD
ENDBRANCH  17  20
ENDBRANCH  15  17
BRANCH  15  22
ATOM     22  C3  X8Z d          31.245   6.568 -45.851  0.00  0.00    -0.064 C 
ATOM     23  H5  X8Z d          31.063   7.239 -46.704  0.00  0.00     0.028 H 
ATOM     24  H6  X8Z d          30.964   5.541 -46.126  0.00  0.00     0.028 H 
ATOM     25  H7  X8Z d          32.311   6.597 -45.583  0.00  0.00     0.028 H 
ENDBRANCH  15  22
ENDBRANCH   2  15
BRANCH   4  26
ATOM     26  C9  X8Z d          28.320   3.134 -43.656  0.00  0.00     0.196 C 
ATOM     27  O3  X8Z d          27.957   3.191 -44.814  0.00  0.00    -0.646 OA
ATOM     28  O2  X8Z d          28.777   2.042 -43.153  0.00  0.00    -0.646 OA
ENDBRANCH   4  26
TORSDOF 5
ENDMDL
MODEL 3
REMARK VINA RESULT:      -4.3      2.031      2.444
REMARK  5 active torsions:
REMARK  status: ('A' for Active; 'I' for Inactive)
REMARK    1  A    between atoms: C4_2  and  C2_3 
REMARK       I    between atoms: C4_2  and  N_7 
REMARK    2  A    between atoms: C2_3  and  C1_4 
REMARK    3  A    between atoms: C2_3  and  C3_6 
REMARK    4  A    between atoms: C1_4  and  S_5 
REMARK    5  A    between atoms: C8_8  and  C9_9 
ROOT
ATOM      1  O1  X8Z d          28.705   4.551 -43.275  0.00  0.00    -0.273 OA
ATOM      2  C4  X8Z d          28.641   5.812 -43.422  0.00  0.00     0.225 C 
ATOM      3  N   X8Z d          29.610   6.445 -44.119  0.00  0.00    -0.337 N 
ATOM      4  C8  X8Z d          30.785   5.709 -44.716  0.00  0.00     0.098 C 
ATOM      5  C5  X8Z d          29.735   7.921 -44.414  0.00  0.00    -0.001 C 
ATOM      6  C6  X8Z d          31.007   8.093 -45.159  0.00  0.00    -0.048 C 
ATOM      7  C7  X8Z d          31.555   6.737 -45.497  0.00  0.00    -0.035 C 
ATOM      8  H8  X8Z d          30.432   4.910 -45.385  0.00  0.00     0.089 H 
ATOM      9  H9  X8Z d          29.763   8.495 -43.476  0.00  0.00     0.064 H 
ATOM     10  H10 X8Z d          28.887   8.261 -45.026  0.00  0.00     0.064 H 
ATOM     11  H11 X8Z d          31.730   8.640 -44.536  0.00  0.00     0.035 H 
ATOM     12  H12 X8Z d          30.820   8.658 -46.085  0.00  0.00     0.035 H 
ATOM     13  H13 X8Z d          31.441   6.548 -46.575  0.00  0.00     0.036 H 
ATOM     14  H14 X8Z d          32.620   6.689 -45.226  0.00  0.00     0.036 H 
ENDROOT
BRANCH   2  15
ATOM     15  C2  X8Z d          27.471   6.570 -42.788  0.00  0.00     0.028 C 
ATOM     16  H1  X8Z d          27.136   7.375 -43.458  0.00  0.00     0.055 H 
BRANCH  15  17
ATOM     17  C1  X8Z d          26.316   5.585 -42.578  0.00  0.00    -0.015 C 
ATOM     18  H2  X8Z d          26.262   4.926 -43.458  0.00  0.00     0.049 H 
ATOM     19  H3  X8Z d          25.383   6.162 -42.494  0.00  0.00     0.049 H 
BRANCH  17  20
ATOM     20  S   X8Z d          26.470   4.555 -41.118  0.00  0.00    -0.181 SA
ATOM     21  H4  X8Z d          25.764   4.817 -40.447  0.00  0.00     0.101 HD
ENDBRANCH  17  20
ENDBRANCH  15  17
BRANCH  15  22
ATOM     22  C3  X8Z d          27.982   7.188 -41.476  0.00  0.00    -0.064 C 
ATOM     23  H5  X8Z d          27.756   8.265 -41.466  0.00  0.00     0.028 H 
ATOM     24  H6  X8Z d          29.069   7.041 -41.400  0.00  0.00     0.028 H 
ATOM     25  H7  X8Z d          27.486   6.701 -40.624  0.00  0.00     0.028 H 
ENDBRANCH  15  22
ENDBRANCH   2  15
BRANCH   4  26
ATOM     26  C9  X8Z d          31.666   5.089 -43.607  0.00  0.00     0.196 C 
ATOM     27  O3  X8Z d          32.036   3.932 -43.643  0.00  0.00    -0.646 OA
ATOM     28  O2  X8Z d          31.995   5.864 -42.634  0.00  0.00    -0.646 OA
ENDBRANCH   4  26
TORSDOF 5
ENDMDL
MODEL 4
REMARK VINA RESULT:      -3.7      2.131      2.717
REMARK  5 active torsions:
REMARK  status: ('A' for Active; 'I' for Inactive)
REMARK    1  A    between atoms: C4_2  and  C2_3 
REMARK       I    between atoms: C4_2  and  N_7 
REMARK    2  A    between atoms: C2_3  and  C1_4 
REMARK    3  A    between atoms: C2_3  and  C3_6 
REMARK    4  A    between atoms: C1_4  and  S_5 
REMARK    5  A    between atoms: C8_8  and  C9_9 
ROOT
ATOM      1  O1  X8Z d          28.885   5.002 -44.632  0.00  0.00    -0.273 OA
ATOM      2  C4  X8Z d          28.811   5.106 -43.366  0.00  0.00     0.225 C 
ATOM      3  N   X8Z d          29.480   6.103 -42.747  0.00  0.00    -0.337 N 
ATOM      4  C8  X8Z d          30.334   7.092 -43.503  0.00  0.00     0.098 C 
ATOM      5  C5  X8Z d          29.535   6.412 -41.269  0.00  0.00    -0.001 C 
ATOM      6  C6  X8Z d          30.454   7.568 -41.118  0.00  0.00    -0.048 C 
ATOM      7  C7  X8Z d          30.799   8.093 -42.481  0.00  0.00    -0.035 C 
ATOM      8  H8  X8Z d          29.737   7.593 -44.280  0.00  0.00     0.089 H 
ATOM      9  H9  X8Z d          29.920   5.545 -40.714  0.00  0.00     0.064 H 
ATOM     10  H10 X8Z d          28.534   6.671 -40.897  0.00  0.00     0.064 H 
ATOM     11  H11 X8Z d          31.371   7.247 -40.602  0.00  0.00     0.035 H 
ATOM     12  H12 X8Z d          29.961   8.358 -40.532  0.00  0.00     0.035 H 
ATOM     13  H13 X8Z d          30.295   9.057 -42.648  0.00  0.00     0.036 H 
ATOM     14  H14 X8Z d          31.888   8.229 -42.563  0.00  0.00     0.036 H 
ENDROOT
BRANCH   2  15
ATOM     15  C2  X8Z d          27.977   4.084 -42.589  0.00  0.00     0.028 C 
ATOM     16  H1  X8Z d          28.524   3.751 -41.695  0.00  0.00     0.055 H 
BRANCH  15  17
ATOM     17  C1  X8Z d          26.673   4.761 -42.150  0.00  0.00    -0.015 C 
ATOM     18  H2  X8Z d          26.758   5.010 -41.082  0.00  0.00     0.049 H 
ATOM     19  H3  X8Z d          25.849   4.048 -42.297  0.00  0.00     0.049 H 
BRANCH  17  20
ATOM     20  S   X8Z d          26.276   6.265 -43.044  0.00  0.00    -0.181 SA
ATOM     21  H4  X8Z d          27.027   6.929 -42.933  0.00  0.00     0.101 HD
ENDBRANCH  17  20
ENDBRANCH  15  17
BRANCH  15  22
ATOM     22  C3  X8Z d          27.747   2.879 -43.516  0.00  0.00    -0.064 C 
ATOM     23  H5  X8Z d          26.853   2.329 -43.186  0.00  0.00     0.028 H 
ATOM     24  H6  X8Z d          28.623   2.214 -43.477  0.00  0.00     0.028 H 
ATOM     25  H7  X8Z d          27.601   3.232 -44.547  0.00  0.00     0.028 H 
ENDBRANCH  15  22
ENDBRANCH   2  15
BRANCH   4  26
ATOM     26  C9  X8Z d          31.538   6.384 -44.166  0.00  0.00     0.196 C 
ATOM     27  O3  X8Z d          32.329   5.718 -43.528  0.00  0.00    -0.646 OA
ATOM     28  O2  X8Z d          31.664   6.533 -45.438  0.00  0.00    -0.646 OA
ENDBRANCH   4  26
TORSDOF 5
ENDMDL
MODEL 5
REMARK VINA RESULT:      -3.4      2.243      3.135
REMARK  5 active torsions:
REMARK  status: ('A' for Active; 'I' for Inactive)
REMARK    1  A    between atoms: C4_2  and  C2_3 
REMARK       I    between atoms: C4_2  and  N_7 
REMARK    2  A    between atoms: C2_3  and  C1_4 
REMARK    3  A    between atoms: C2_3  and  C3_6 
REMARK    4  A    between atoms: C1_4  and  S_5 
REMARK    5  A    between atoms: C8_8  and  C9_9 
ROOT
ATOM      1  O1  X8Z d          29.381   6.015 -41.400  0.00  0.00    -0.273 OA
ATOM      2  C4  X8Z d          29.569   5.482 -42.539  0.00  0.00     0.225 C 
ATOM      3  N   X8Z d          29.315   6.201 -43.654  0.00  0.00    -0.337 N 
ATOM      4  C8  X8Z d          28.792   7.616 -43.598  0.00  0.00     0.098 C 
ATOM      5  C5  X8Z d          29.465   5.773 -45.095  0.00  0.00    -0.001 C 
ATOM      6  C6  X8Z d          28.997   6.914 -45.922  0.00  0.00    -0.048 C 
ATOM      7  C7  X8Z d          28.756   8.094 -45.024  0.00  0.00    -0.035 C 
ATOM      8  H8  X8Z d          29.468   8.248 -43.004  0.00  0.00     0.089 H 
ATOM      9  H9  X8Z d          28.850   4.883 -45.292  0.00  0.00     0.064 H 
ATOM     10  H10 X8Z d          30.518   5.549 -45.318  0.00  0.00     0.064 H 
ATOM     11  H11 X8Z d          28.061   6.642 -46.433  0.00  0.00     0.035 H 
ATOM     12  H12 X8Z d          29.763   7.168 -46.669  0.00  0.00     0.035 H 
ATOM     13  H13 X8Z d          29.540   8.849 -45.184  0.00  0.00     0.036 H 
ATOM     14  H14 X8Z d          27.772   8.534 -45.244  0.00  0.00     0.036 H 
ENDROOT
BRANCH   2  15
ATOM     15  C2  X8Z d          30.066   4.035 -42.603  0.00  0.00     0.028 C 
ATOM     16  H1  X8Z d          30.178   3.629 -41.587  0.00  0.00     0.055 H 
BRANCH  15  17
ATOM     17  C1  X8Z d          29.024   3.202 -43.359  0.00  0.00    -0.015 C 
ATOM     18  H2  X8Z d          29.338   2.148 -43.328  0.00  0.00     0.049 H 
ATOM     19  H3  X8Z d          29.000   3.548 -44.403  0.00  0.00     0.049 H 
BRANCH  17  20
ATOM     20  S   X8Z d          27.360   3.308 -42.697  0.00  0.00    -0.181 SA
ATOM     21  H4  X8Z d          26.800   3.901 -43.290  0.00  0.00     0.101 HD
ENDBRANCH  17  20
ENDBRANCH  15  17
BRANCH  15  22
ATOM     22  C3  X8Z d          31.439   4.051 -43.293  0.00  0.00    -0.064 C 
ATOM     23  H5  X8Z d          31.570   5.004 -43.826  0.00  0.00     0.028 H 
ATOM     24  H6  X8Z d          31.500   3.219 -44.010  0.00  0.00     0.028 H 
ATOM     25  H7  X8Z d          32.230   3.942 -42.537  0.00  0.00     0.028 H 
ENDBRANCH  15  22
ENDBRANCH   2  15
BRANCH   4  26
ATOM     26  C9  X8Z d          27.379   7.655 -42.972  0.00  0.00     0.196 C 
ATOM     27  O3  X8Z d          27.202   7.833 -41.783  0.00  0.00    -0.646 OA
ATOM     28  O2  X8Z d          26.388   7.490 -43.776  0.00  0.00    -0.646 OA
ENDBRANCH   4  26
TORSDOF 5
ENDMDL
MODEL 6
REMARK VINA RESULT:      -3.0      2.373      4.481
REMARK  5 active torsions:
REMARK  status: ('A' for Active; 'I' for Inactive)
REMARK    1  A    between atoms: C4_2  and  C2_3 
REMARK       I    between atoms: C4_2  and  N_7 
REMARK    2  A    between atoms: C2_3  and  C1_4 
REMARK    3  A    between atoms: C2_3  and  C3_6 
REMARK    4  A    between atoms: C1_4  and  S_5 
REMARK    5  A    between atoms: C8_8  and  C9_9 
ROOT
ATOM      1  O1  X8Z d          30.659   4.751 -43.406  0.00  0.00    -0.273 OA
ATOM      2  C4  X8Z d          29.856   5.683 -43.084  0.00  0.00     0.225 C 
ATOM      3  N   X8Z d          28.644   5.364 -42.579  0.00  0.00    -0.337 N 
ATOM      4  C8  X8Z d          28.197   3.933 -42.401  0.00  0.00     0.098 C 
ATOM      5  C5  X8Z d          27.543   6.298 -42.135  0.00  0.00    -0.001 C 
ATOM      6  C6  X8Z d          26.406   5.437 -41.720  0.00  0.00    -0.048 C 
ATOM      7  C7  X8Z d          26.861   4.007 -41.713  0.00  0.00    -0.035 C 
ATOM      8  H8  X8Z d          28.916   3.385 -41.776  0.00  0.00     0.089 H 
ATOM      9  H9  X8Z d          27.242   6.952 -42.965  0.00  0.00     0.064 H 
ATOM     10  H10 X8Z d          27.883   6.912 -41.288  0.00  0.00     0.064 H 
ATOM     11  H11 X8Z d          25.574   5.557 -42.429  0.00  0.00     0.035 H 
ATOM     12  H12 X8Z d          26.074   5.725 -40.711  0.00  0.00     0.035 H 
ATOM     13  H13 X8Z d          26.957   3.652 -40.676  0.00  0.00     0.036 H 
ATOM     14  H14 X8Z d          26.132   3.382 -42.249  0.00  0.00     0.036 H 
ENDROOT
BRANCH   2  15
ATOM     15  C2  X8Z d          30.289   7.136 -43.296  0.00  0.00     0.028 C 
ATOM     16  H1  X8Z d          31.336   7.173 -43.634  0.00  0.00     0.055 H 
BRANCH  15  17
ATOM     17  C1  X8Z d          29.396   7.752 -44.378  0.00  0.00    -0.015 C 
ATOM     18  H2  X8Z d          29.668   8.813 -44.487  0.00  0.00     0.049 H 
ATOM     19  H3  X8Z d          28.350   7.674 -44.046  0.00  0.00     0.049 H 
BRANCH  17  20
ATOM     20  S   X8Z d          29.530   6.974 -45.989  0.00  0.00    -0.181 SA
ATOM     21  H4  X8Z d          28.639   6.576 -46.244  0.00  0.00     0.101 HD
ENDBRANCH  17  20
ENDBRANCH  15  17
BRANCH  15  22
ATOM     22  C3  X8Z d          30.173   7.851 -41.940  0.00  0.00    -0.064 C 
ATOM     23  H5  X8Z d          29.371   7.386 -41.348  0.00  0.00     0.028 H 
ATOM     24  H6  X8Z d          29.939   8.913 -42.104  0.00  0.00     0.028 H 
ATOM     25  H7  X8Z d          31.126   7.766 -41.397  0.00  0.00     0.028 H 
ENDBRANCH  15  22
ENDBRANCH   2  15
BRANCH   4  26
ATOM     26  C9  X8Z d          28.070   3.223 -43.769  0.00  0.00     0.196 C 
ATOM     27  O3  X8Z d          28.118   3.830 -44.821  0.00  0.00    -0.646 OA
ATOM     28  O2  X8Z d          27.912   1.947 -43.742  0.00  0.00    -0.646 OA
ENDBRANCH   4  26
TORSDOF 5
ENDMDL
MODEL 7
REMARK VINA RESULT:      -3.0      2.702      3.311
REMARK  5 active torsions:
REMARK  status: ('A' for Active; 'I' for Inactive)
REMARK    1  A    between atoms: C4_2  and  C2_3 
REMARK       I    between atoms: C4_2  and  N_7 
REMARK    2  A    between atoms: C2_3  and  C1_4 
REMARK    3  A    between atoms: C2_3  and  C3_6 
REMARK    4  A    between atoms: C1_4  and  S_5 
REMARK    5  A    between atoms: C8_8  and  C9_9 
ROOT
ATOM      1  O1  X8Z d          28.172   5.073 -43.981  0.00  0.00    -0.273 OA
ATOM      2  C4  X8Z d          28.428   6.257 -43.593  0.00  0.00     0.225 C 
ATOM      3  N   X8Z d          29.688   6.731 -43.709  0.00  0.00    -0.337 N 
ATOM      4  C8  X8Z d          30.815   5.896 -44.266  0.00  0.00     0.098 C 
ATOM      5  C5  X8Z d          30.212   8.092 -43.316  0.00  0.00    -0.001 C 
ATOM      6  C6  X8Z d          31.670   8.076 -43.597  0.00  0.00    -0.048 C 
ATOM      7  C7  X8Z d          32.005   6.813 -44.335  0.00  0.00    -0.035 C 
ATOM      8  H8  X8Z d          30.557   5.532 -45.271  0.00  0.00     0.089 H 
ATOM      9  H9  X8Z d          30.033   8.273 -42.246  0.00  0.00     0.064 H 
ATOM     10  H10 X8Z d          29.719   8.876 -43.909  0.00  0.00     0.064 H 
ATOM     11  H11 X8Z d          32.230   8.111 -42.651  0.00  0.00     0.035 H 
ATOM     12  H12 X8Z d          31.937   8.947 -44.214  0.00  0.00     0.035 H 
ATOM     13  H13 X8Z d          32.234   7.046 -45.386  0.00  0.00     0.036 H 
ATOM     14  H14 X8Z d          32.875   6.329 -43.868  0.00  0.00     0.036 H 
ENDROOT
BRANCH   2  15
ATOM     15  C2  X8Z d          27.297   7.097 -42.993  0.00  0.00     0.028 C 
ATOM     16  H1  X8Z d          27.672   7.680 -42.139  0.00  0.00     0.055 H 
BRANCH  15  17
ATOM     17  C1  X8Z d          26.792   8.064 -44.071  0.00  0.00    -0.015 C 
ATOM     18  H2  X8Z d          26.784   9.078 -43.646  0.00  0.00     0.049 H 
ATOM     19  H3  X8Z d          25.768   7.770 -44.342  0.00  0.00     0.049 H 
BRANCH  17  20
ATOM     20  S   X8Z d          27.780   8.093 -45.568  0.00  0.00    -0.181 SA
ATOM     21  H4  X8Z d          28.114   9.031 -45.730  0.00  0.00     0.101 HD
ENDBRANCH  17  20
ENDBRANCH  15  17
BRANCH  15  22
ATOM     22  C3  X8Z d          26.213   6.124 -42.501  0.00  0.00    -0.064 C 
ATOM     23  H5  X8Z d          25.521   5.900 -43.327  0.00  0.00     0.028 H 
ATOM     24  H6  X8Z d          25.657   6.583 -41.671  0.00  0.00     0.028 H 
ATOM     25  H7  X8Z d          26.686   5.193 -42.156  0.00  0.00     0.028 H 
ENDBRANCH  15  22
ENDBRANCH   2  15
BRANCH   4  26
ATOM     26  C9  X8Z d          31.108   4.686 -43.348  0.00  0.00     0.196 C 
ATOM     27  O3  X8Z d          30.470   3.654 -43.413  0.00  0.00    -0.646 OA
ATOM     28  O2  X8Z d          32.070   4.824 -42.505  0.00  0.00    -0.646 OA
ENDBRANCH   4  26
TORSDOF 5
ENDMDL
MODEL 8
REMARK VINA RESULT:      -2.8      2.307      3.179
REMARK  5 active torsions:
REMARK  status: ('A' for Active; 'I' for Inactive)
REMARK    1  A    between atoms: C4_2  and  C2_3 
REMARK       I    between atoms: C4_2  and  N_7 
REMARK    2  A    between atoms: C2_3  and  C1_4 
REMARK    3  A    between atoms: C2_3  and  C3_6 
REMARK    4  A    between atoms: C1_4  and  S_5 
REMARK    5  A    between atoms: C8_8  and  C9_9 
ROOT
ATOM      1  O1  X8Z d          28.527   4.778 -44.755  0.00  0.00    -0.273 OA
ATOM      2  C4  X8Z d          28.681   4.938 -43.504  0.00  0.00     0.225 C 
ATOM      3  N   X8Z d          28.151   6.030 -42.908  0.00  0.00    -0.337 N 
ATOM      4  C8  X8Z d          27.398   7.084 -43.684  0.00  0.00     0.098 C 
ATOM      5  C5  X8Z d          28.211   6.420 -41.451  0.00  0.00    -0.001 C 
ATOM      6  C6  X8Z d          27.527   7.732 -41.339  0.00  0.00    -0.048 C 
ATOM      7  C7  X8Z d          26.880   8.052 -42.656  0.00  0.00    -0.035 C 
ATOM      8  H8  X8Z d          26.561   6.627 -44.231  0.00  0.00     0.089 H 
ATOM      9  H9  X8Z d          29.257   6.507 -41.124  0.00  0.00     0.064 H 
ATOM     10  H10 X8Z d          27.695   5.669 -40.834  0.00  0.00     0.064 H 
ATOM     11  H11 X8Z d          28.261   8.512 -41.089  0.00  0.00     0.035 H 
ATOM     12  H12 X8Z d          26.759   7.684 -40.553  0.00  0.00     0.035 H 
ATOM     13  H13 X8Z d          25.788   7.952 -42.568  0.00  0.00     0.036 H 
ATOM     14  H14 X8Z d          27.132   9.081 -42.954  0.00  0.00     0.036 H 
ENDROOT
BRANCH   2  15
ATOM     15  C2  X8Z d          29.475   3.891 -42.717  0.00  0.00     0.028 C 
ATOM     16  H1  X8Z d          29.379   4.078 -41.637  0.00  0.00     0.055 H 
BRANCH  15  17
ATOM     17  C1  X8Z d          28.894   2.508 -43.035  0.00  0.00    -0.015 C 
ATOM     18  H2  X8Z d          29.071   1.854 -42.169  0.00  0.00     0.049 H 
ATOM     19  H3  X8Z d          29.423   2.108 -43.912  0.00  0.00     0.049 H 
BRANCH  17  20
ATOM     20  S   X8Z d          27.136   2.501 -43.391  0.00  0.00    -0.181 SA
ATOM     21  H4  X8Z d          26.739   3.393 -43.139  0.00  0.00     0.101 HD
ENDBRANCH  17  20
ENDBRANCH  15  17
BRANCH  15  22
ATOM     22  C3  X8Z d          30.950   4.034 -43.124  0.00  0.00    -0.064 C 
ATOM     23  H5  X8Z d          31.584   3.517 -42.389  0.00  0.00     0.028 H 
ATOM     24  H6  X8Z d          31.220   5.099 -43.156  0.00  0.00     0.028 H 
ATOM     25  H7  X8Z d          31.101   3.587 -44.117  0.00  0.00     0.028 H 
ENDBRANCH  15  22
ENDBRANCH   2  15
BRANCH   4  26
ATOM     26  C9  X8Z d          28.331   7.799 -44.689  0.00  0.00     0.196 C 
ATOM     27  O3  X8Z d          29.479   8.088 -44.414  0.00  0.00    -0.646 OA
ATOM     28  O2  X8Z d          27.831   8.074 -45.842  0.00  0.00    -0.646 OA
ENDBRANCH   4  26
TORSDOF 5
ENDMDL
MODEL 9
REMARK VINA RESULT:      -2.3      1.606      2.000
REMARK  5 active torsions:
REMARK  status: ('A' for Active; 'I' for Inactive)
REMARK    1  A    between atoms: C4_2  and  C2_3 
REMARK       I    between atoms: C4_2  and  N_7 
REMARK    2  A    between atoms: C2_3  and  C1_4 
REMARK    3  A    between atoms: C2_3  and  C3_6 
REMARK    4  A    between atoms: C1_4  and  S_5 
REMARK    5  A    between atoms: C8_8  and  C9_9 
ROOT
ATOM      1  O1  X8Z d          30.023   4.724 -44.507  0.00  0.00    -0.273 OA
ATOM      2  C4  X8Z d          28.974   4.967 -43.829  0.00  0.00     0.225 C 
ATOM      3  N   X8Z d          28.262   6.084 -44.095  0.00  0.00    -0.337 N 
ATOM      4  C8  X8Z d          28.679   7.072 -45.158  0.00  0.00     0.098 C 
ATOM      5  C5  X8Z d          26.999   6.567 -43.422  0.00  0.00    -0.001 C 
ATOM      6  C6  X8Z d          26.663   7.871 -44.048  0.00  0.00    -0.048 C 
ATOM      7  C7  X8Z d          27.576   8.093 -45.219  0.00  0.00    -0.035 C 
ATOM      8  H8  X8Z d          28.780   6.565 -46.128  0.00  0.00     0.089 H 
ATOM      9  H9  X8Z d          27.168   6.695 -42.343  0.00  0.00     0.064 H 
ATOM     10  H10 X8Z d          26.183   5.847 -43.582  0.00  0.00     0.064 H 
ATOM     11  H11 X8Z d          26.798   8.679 -43.315  0.00  0.00     0.035 H 
ATOM     12  H12 X8Z d          25.618   7.858 -44.392  0.00  0.00     0.035 H 
ATOM     13  H13 X8Z d          27.014   7.978 -46.157  0.00  0.00     0.036 H 
ATOM     14  H14 X8Z d          28.004   9.106 -45.169  0.00  0.00     0.036 H 
ENDROOT
BRANCH   2  15
ATOM     15  C2  X8Z d          28.566   3.988 -42.725  0.00  0.00     0.028 C 
ATOM     16  H1  X8Z d          27.550   4.220 -42.372  0.00  0.00     0.055 H 
BRANCH  15  17
ATOM     17  C1  X8Z d          28.577   2.571 -43.310  0.00  0.00    -0.015 C 
ATOM     18  H2  X8Z d          29.025   1.896 -42.565  0.00  0.00     0.049 H 
ATOM     19  H3  X8Z d          29.197   2.579 -44.218  0.00  0.00     0.049 H 
BRANCH  17  20
ATOM     20  S   X8Z d          26.959   1.930 -43.744  0.00  0.00    -0.181 SA
ATOM     21  H4  X8Z d          26.496   1.597 -42.912  0.00  0.00     0.101 HD
ENDBRANCH  17  20
ENDBRANCH  15  17
BRANCH  15  22
ATOM     22  C3  X8Z d          29.556   4.168 -41.563  0.00  0.00    -0.064 C 
ATOM     23  H5  X8Z d          30.574   3.944 -41.912  0.00  0.00     0.028 H 
ATOM     24  H6  X8Z d          29.289   3.484 -40.744  0.00  0.00     0.028 H 
ATOM     25  H7  X8Z d          29.512   5.206 -41.201  0.00  0.00     0.028 H 
ENDBRANCH  15  22
ENDBRANCH   2  15
BRANCH   4  26
ATOM     26  C9  X8Z d          30.025   7.739 -44.791  0.00  0.00     0.196 C 
ATOM     27  O3  X8Z d          30.363   7.925 -43.639  0.00  0.00    -0.646 OA
ATOM     28  O2  X8Z d          30.779   8.089 -45.772  0.00  0.00    -0.646 OA
ENDBRANCH   4  26
TORSDOF 5
ENDMDL
