MODEL 1
REMARK VINA RESULT:      -5.6      0.000      0.000
REMARK  5 active torsions:
REMARK  status: ('A' for Active; 'I' for Inactive)
REMARK       I    between atoms: N3_3  and  C14_6 
REMARK    1  A    between atoms: C14_6  and  C15_7 
REMARK    2  A    between atoms: C15_7  and  C16_8 
REMARK    3  A    between atoms: C15_7  and  N19_11 
REMARK    4  A    between atoms: C16_8  and  C17_9 
REMARK    5  A    between atoms: C16_8  and  C26_12 
ROOT
ATOM      1  C15 A3M d          82.587  75.128  98.664  0.00  0.00     0.169 C 
ATOM      2  H9  A3M d          82.383  75.409  99.708  0.00  0.00     0.092 H 
ENDROOT
BRANCH   1   3
ATOM      3  C14 A3M d          81.465  74.267  98.264  0.00  0.00     0.384 C 
ATOM      4  N3  A3M d          80.111  74.693  97.914  0.00  0.00     0.134 N 
ATOM      5  C2  A3M d          79.446  75.472  98.972  0.00  0.00     0.117 C 
ATOM      6  C4  A3M d          79.141  73.627  97.570  0.00  0.00     0.117 C 
ATOM      7  C1  A3M d          77.880  75.364  98.639  0.00  0.00    -0.038 C 
ATOM      8  H3  A3M d          79.662  75.044  99.962  0.00  0.00     0.080 H 
ATOM      9  H4  A3M d          79.776  76.521  98.946  0.00  0.00     0.080 H 
ATOM     10  C5  A3M d          77.849  74.449  97.334  0.00  0.00    -0.038 C 
ATOM     11  H1  A3M d          77.450  76.355  98.436  0.00  0.00     0.035 H 
ATOM     12  H2  A3M d          77.332  74.889  99.466  0.00  0.00     0.035 H 
ATOM     13  H7  A3M d          77.905  75.046  96.412  0.00  0.00     0.035 H 
ATOM     14  H8  A3M d          76.955  73.809  97.302  0.00  0.00     0.035 H 
ATOM     15  H5  A3M d          79.017  72.914  98.398  0.00  0.00     0.080 H 
ATOM     16  H6  A3M d          79.444  73.086  96.662  0.00  0.00     0.080 H 
ATOM     17  O18 A3M d          81.735  72.919  98.225  0.00  0.00    -0.186 OA
ENDBRANCH   1   3
BRANCH   1  18
ATOM     18  C16 A3M d          82.806  76.412  97.917  0.00  0.00    -0.029 C 
ATOM     19  H10 A3M d          82.241  76.353  96.974  0.00  0.00     0.042 H 
BRANCH  18  20
ATOM     20  C17 A3M d          82.398  77.627  98.639  0.00  0.00    -0.071 C 
ATOM     21  H11 A3M d          82.122  78.409  97.916  0.00  0.00     0.028 H 
ATOM     22  H12 A3M d          83.232  77.981  99.261  0.00  0.00     0.028 H 
ATOM     23  H13 A3M d          81.534  77.400  99.281  0.00  0.00     0.028 H 
ENDBRANCH  18  20
BRANCH  18  24
ATOM     24  C26 A3M d          84.451  76.627  97.587  0.00  0.00    -0.071 C 
ATOM     25  H17 A3M d          84.994  76.803  98.528  0.00  0.00     0.028 H 
ATOM     26  H18 A3M d          84.582  77.493  96.921  0.00  0.00     0.028 H 
ATOM     27  H19 A3M d          84.849  75.725  97.098  0.00  0.00     0.028 H 
ENDBRANCH  18  24
ENDBRANCH   1  18
BRANCH   1  28
ATOM     28  N19 A3M d          83.885  74.377  98.639  0.00  0.00    -0.070 N 
ATOM     29  H14 A3M d          84.601  74.956  98.227  0.00  0.00     0.274 HD
ATOM     30  H15 A3M d          83.777  73.537  98.093  0.00  0.00     0.274 HD
ATOM     31  H16 A3M d          84.152  74.134  99.580  0.00  0.00     0.274 HD
ENDBRANCH   1  28
TORSDOF 5
ENDMDL
MODEL 2
REMARK VINA RESULT:      -5.5      1.295      4.682
REMARK  5 active torsions:
REMARK  status: ('A' for Active; 'I' for Inactive)
REMARK       I    between atoms: N3_3  and  C14_6 
REMARK    1  A    between atoms: C14_6  and  C15_7 
REMARK    2  A    between atoms: C15_7  and  C16_8 
REMARK    3  A    between atoms: C15_7  and  N19_11 
REMARK    4  A    between atoms: C16_8  and  C17_9 
REMARK    5  A    between atoms: C16_8  and  C26_12 
ROOT
ATOM      1  C15 A3M d          80.239  74.612  97.765  0.00  0.00     0.169 C 
ATOM      2  H9  A3M d          80.081  75.565  97.239  0.00  0.00     0.092 H 
ENDROOT
BRANCH   1   3
ATOM      3  C14 A3M d          81.675  74.567  98.072  0.00  0.00     0.384 C 
ATOM      4  N3  A3M d          82.579  75.706  98.223  0.00  0.00     0.134 N 
ATOM      5  C2  A3M d          82.616  76.590  97.044  0.00  0.00     0.117 C 
ATOM      6  C4  A3M d          84.002  75.401  98.504  0.00  0.00     0.117 C 
ATOM      7  C1  A3M d          83.992  77.402  97.184  0.00  0.00    -0.038 C 
ATOM      8  H3  A3M d          82.607  75.999  96.117  0.00  0.00     0.080 H 
ATOM      9  H4  A3M d          81.757  77.278  97.050  0.00  0.00     0.080 H 
ATOM     10  C5  A3M d          84.624  76.819  98.526  0.00  0.00    -0.038 C 
ATOM     11  H1  A3M d          83.806  78.482  97.272  0.00  0.00     0.035 H 
ATOM     12  H2  A3M d          84.651  77.212  96.323  0.00  0.00     0.035 H 
ATOM     13  H7  A3M d          84.309  77.392  99.410  0.00  0.00     0.035 H 
ATOM     14  H8  A3M d          85.722  76.787  98.483  0.00  0.00     0.035 H 
ATOM     15  H5  A3M d          84.444  74.781  97.710  0.00  0.00     0.080 H 
ATOM     16  H6  A3M d          84.120  74.896  99.473  0.00  0.00     0.080 H 
ATOM     17  O18 A3M d          82.211  73.309  98.224  0.00  0.00    -0.186 OA
ENDBRANCH   1   3
BRANCH   1  18
ATOM     18  C16 A3M d          79.263  74.595  98.907  0.00  0.00    -0.029 C 
ATOM     19  H10 A3M d          79.813  74.857  99.824  0.00  0.00     0.042 H 
BRANCH  18  20
ATOM     20  C17 A3M d          78.121  75.510  98.760  0.00  0.00    -0.071 C 
ATOM     21  H11 A3M d          78.242  76.362  99.446  0.00  0.00     0.028 H 
ATOM     22  H12 A3M d          77.190  74.976  99.002  0.00  0.00     0.028 H 
ATOM     23  H13 A3M d          78.075  75.876  97.724  0.00  0.00     0.028 H 
ENDBRANCH  18  20
BRANCH  18  24
ATOM     24  C26 A3M d          78.578  73.057  99.071  0.00  0.00    -0.071 C 
ATOM     25  H17 A3M d          77.969  72.830  98.183  0.00  0.00     0.028 H 
ATOM     26  H18 A3M d          77.941  73.032  99.968  0.00  0.00     0.028 H 
ATOM     27  H19 A3M d          79.377  72.307  99.169  0.00  0.00     0.028 H 
ENDBRANCH  18  24
ENDBRANCH   1  18
BRANCH   1  28
ATOM     28  N19 A3M d          79.845  73.504  96.834  0.00  0.00    -0.070 N 
ATOM     29  H14 A3M d          80.054  73.773  95.885  0.00  0.00     0.274 HD
ATOM     30  H15 A3M d          78.858  73.325  96.922  0.00  0.00     0.274 HD
ATOM     31  H16 A3M d          80.360  72.670  97.067  0.00  0.00     0.274 HD
ENDBRANCH   1  28
TORSDOF 5
ENDMDL
MODEL 3
REMARK VINA RESULT:      -5.2      1.860      5.015
REMARK  5 active torsions:
REMARK  status: ('A' for Active; 'I' for Inactive)
REMARK       I    between atoms: N3_3  and  C14_6 
REMARK    1  A    between atoms: C14_6  and  C15_7 
REMARK    2  A    between atoms: C15_7  and  C16_8 
REMARK    3  A    between atoms: C15_7  and  N19_11 
REMARK    4  A    between atoms: C16_8  and  C17_9 
REMARK    5  A    between atoms: C16_8  and  C26_12 
ROOT
ATOM      1  C15 A3M d          79.941  74.881  98.716  0.00  0.00     0.169 C 
ATOM      2  H9  A3M d          80.579  74.027  98.448  0.00  0.00     0.092 H 
ENDROOT
BRANCH   1   3
ATOM      3  C14 A3M d          80.794  76.070  98.570  0.00  0.00     0.384 C 
ATOM      4  N3  A3M d          82.120  76.131  97.958  0.00  0.00     0.134 N 
ATOM      5  C2  A3M d          83.095  75.213  98.571  0.00  0.00     0.117 C 
ATOM      6  C4  A3M d          82.798  77.449  97.957  0.00  0.00     0.117 C 
ATOM      7  C1  A3M d          84.529  75.803  98.158  0.00  0.00    -0.038 C 
ATOM      8  H3  A3M d          82.981  75.201  99.664  0.00  0.00     0.080 H 
ATOM      9  H4  A3M d          82.967  74.193  98.177  0.00  0.00     0.080 H 
ATOM     10  C5  A3M d          84.157  77.097  97.304  0.00  0.00    -0.038 C 
ATOM     11  H1  A3M d          85.094  75.079  97.552  0.00  0.00     0.035 H 
ATOM     12  H2  A3M d          85.116  76.073  99.048  0.00  0.00     0.035 H 
ATOM     13  H7  A3M d          84.052  76.866  96.234  0.00  0.00     0.035 H 
ATOM     14  H8  A3M d          84.896  77.901  97.434  0.00  0.00     0.035 H 
ATOM     15  H5  A3M d          82.931  77.833  98.979  0.00  0.00     0.080 H 
ATOM     16  H6  A3M d          82.243  78.185  97.357  0.00  0.00     0.080 H 
ATOM     17  O18 A3M d          80.274  77.239  99.075  0.00  0.00    -0.186 OA
ENDBRANCH   1   3
BRANCH   1  18
ATOM     18  C16 A3M d          78.712  74.774  97.859  0.00  0.00    -0.029 C 
ATOM     19  H10 A3M d          78.810  75.498  97.037  0.00  0.00     0.042 H 
BRANCH  18  20
ATOM     20  C17 A3M d          78.468  73.439  97.291  0.00  0.00    -0.071 C 
ATOM     21  H11 A3M d          79.294  72.767  97.565  0.00  0.00     0.028 H 
ATOM     22  H12 A3M d          78.403  73.513  96.195  0.00  0.00     0.028 H 
ATOM     23  H13 A3M d          77.523  73.039  97.687  0.00  0.00     0.028 H 
ENDBRANCH  18  20
BRANCH  18  24
ATOM     24  C26 A3M d          77.329  75.125  98.769  0.00  0.00    -0.071 C 
ATOM     25  H17 A3M d          76.461  75.209  98.099  0.00  0.00     0.028 H 
ATOM     26  H18 A3M d          77.473  76.076  99.304  0.00  0.00     0.028 H 
ATOM     27  H19 A3M d          77.155  74.319  99.497  0.00  0.00     0.028 H 
ENDBRANCH  18  24
ENDBRANCH   1  18
BRANCH   1  28
ATOM     28  N19 A3M d          79.504  74.696 100.139  0.00  0.00    -0.070 N 
ATOM     29  H14 A3M d          79.189  75.579 100.512  0.00  0.00     0.274 HD
ATOM     30  H15 A3M d          80.278  74.357 100.687  0.00  0.00     0.274 HD
ATOM     31  H16 A3M d          78.749  74.030 100.174  0.00  0.00     0.274 HD
ENDBRANCH   1  28
TORSDOF 5
ENDMDL
MODEL 4
REMARK VINA RESULT:      -5.1      1.230      4.592
REMARK  5 active torsions:
REMARK  status: ('A' for Active; 'I' for Inactive)
REMARK       I    between atoms: N3_3  and  C14_6 
REMARK    1  A    between atoms: C14_6  and  C15_7 
REMARK    2  A    between atoms: C15_7  and  C16_8 
REMARK    3  A    between atoms: C15_7  and  N19_11 
REMARK    4  A    between atoms: C16_8  and  C17_9 
REMARK    5  A    between atoms: C16_8  and  C26_12 
ROOT
ATOM      1  C15 A3M d          80.378  74.418  99.042  0.00  0.00     0.169 C 
ATOM      2  H9  A3M d          80.130  73.411  99.405  0.00  0.00     0.092 H 
ENDROOT
BRANCH   1   3
ATOM      3  C14 A3M d          81.821  74.390  98.763  0.00  0.00     0.384 C 
ATOM      4  N3  A3M d          82.715  75.540  98.635  0.00  0.00     0.134 N 
ATOM      5  C2  A3M d          82.293  76.503  97.604  0.00  0.00     0.117 C 
ATOM      6  C4  A3M d          84.134  75.254  98.319  0.00  0.00     0.117 C 
ATOM      7  C1  A3M d          83.617  77.341  97.258  0.00  0.00    -0.038 C 
ATOM      8  H3  A3M d          81.922  75.978  96.711  0.00  0.00     0.080 H 
ATOM      9  H4  A3M d          81.506  77.166  97.992  0.00  0.00     0.080 H 
ATOM     10  C5  A3M d          84.719  76.683  98.203  0.00  0.00    -0.038 C 
ATOM     11  H1  A3M d          83.482  78.407  97.491  0.00  0.00     0.035 H 
ATOM     12  H2  A3M d          83.890  77.228  96.198  0.00  0.00     0.035 H 
ATOM     13  H7  A3M d          84.774  77.185  99.180  0.00  0.00     0.035 H 
ATOM     14  H8  A3M d          85.715  76.683  97.736  0.00  0.00     0.035 H 
ATOM     15  H5  A3M d          84.232  74.703  97.372  0.00  0.00     0.080 H 
ATOM     16  H6  A3M d          84.618  74.687  99.127  0.00  0.00     0.080 H 
ATOM     17  O18 A3M d          82.370  73.140  98.602  0.00  0.00    -0.186 OA
ENDBRANCH   1   3
BRANCH   1  18
ATOM     18  C16 A3M d          79.436  74.701  97.907  0.00  0.00    -0.029 C 
ATOM     19  H10 A3M d          79.684  75.694  97.502  0.00  0.00     0.042 H 
BRANCH  18  20
ATOM     20  C17 A3M d          79.472  73.719  96.812  0.00  0.00    -0.071 C 
ATOM     21  H11 A3M d          80.380  73.104  96.901  0.00  0.00     0.028 H 
ATOM     22  H12 A3M d          79.479  74.247  95.847  0.00  0.00     0.028 H 
ATOM     23  H13 A3M d          78.584  73.073  96.869  0.00  0.00     0.028 H 
ENDBRANCH  18  20
BRANCH  18  24
ATOM     24  C26 A3M d          77.835  74.690  98.456  0.00  0.00    -0.071 C 
ATOM     25  H17 A3M d          77.740  75.362  99.322  0.00  0.00     0.028 H 
ATOM     26  H18 A3M d          77.556  73.667  98.753  0.00  0.00     0.028 H 
ATOM     27  H19 A3M d          77.169  75.032  97.651  0.00  0.00     0.028 H 
ENDBRANCH  18  24
ENDBRANCH   1  18
BRANCH   1  28
ATOM     28  N19 A3M d          80.054  75.392 100.136  0.00  0.00    -0.070 N 
ATOM     29  H14 A3M d          80.701  76.164 100.101  0.00  0.00     0.274 HD
ATOM     30  H15 A3M d          80.130  74.931 101.029  0.00  0.00     0.274 HD
ATOM     31  H16 A3M d          79.115  75.735 100.014  0.00  0.00     0.274 HD
ENDBRANCH   1  28
TORSDOF 5
ENDMDL
MODEL 5
REMARK VINA RESULT:      -4.6      1.747      2.039
REMARK  5 active torsions:
REMARK  status: ('A' for Active; 'I' for Inactive)
REMARK       I    between atoms: N3_3  and  C14_6 
REMARK    1  A    between atoms: C14_6  and  C15_7 
REMARK    2  A    between atoms: C15_7  and  C16_8 
REMARK    3  A    between atoms: C15_7  and  N19_11 
REMARK    4  A    between atoms: C16_8  and  C17_9 
REMARK    5  A    between atoms: C16_8  and  C26_12 
ROOT
ATOM      1  C15 A3M d          81.747  76.643  98.591  0.00  0.00     0.169 C 
ATOM      2  H9  A3M d          81.370  76.750  97.564  0.00  0.00     0.092 H 
ENDROOT
BRANCH   1   3
ATOM      3  C14 A3M d          81.165  75.391  99.095  0.00  0.00     0.384 C 
ATOM      4  N3  A3M d          79.959  74.723  98.608  0.00  0.00     0.134 N 
ATOM      5  C2  A3M d          78.758  75.575  98.645  0.00  0.00     0.117 C 
ATOM      6  C4  A3M d          79.555  73.478  99.302  0.00  0.00     0.117 C 
ATOM      7  C1  A3M d          77.526  74.548  98.607  0.00  0.00    -0.038 C 
ATOM      8  H3  A3M d          78.736  76.172  99.569  0.00  0.00     0.080 H 
ATOM      9  H4  A3M d          78.731  76.246  97.774  0.00  0.00     0.080 H 
ATOM     10  C5  A3M d          78.241  73.124  98.563  0.00  0.00    -0.038 C 
ATOM     11  H1  A3M d          76.908  74.707  97.711  0.00  0.00     0.035 H 
ATOM     12  H2  A3M d          76.900  74.647  99.506  0.00  0.00     0.035 H 
ATOM     13  H7  A3M d          78.427  72.790  97.532  0.00  0.00     0.035 H 
ATOM     14  H8  A3M d          77.662  72.357  99.098  0.00  0.00     0.035 H 
ATOM     15  H5  A3M d          79.378  73.654 100.373  0.00  0.00     0.080 H 
ATOM     16  H6  A3M d          80.310  72.688  99.179  0.00  0.00     0.080 H 
ATOM     17  O18 A3M d          81.838  74.801 100.139  0.00  0.00    -0.186 OA
ENDBRANCH   1   3
BRANCH   1  18
ATOM     18  C16 A3M d          83.243  76.753  98.505  0.00  0.00    -0.029 C 
ATOM     19  H10 A3M d          83.606  77.169  99.456  0.00  0.00     0.042 H 
BRANCH  18  20
ATOM     20  C17 A3M d          83.943  75.485  98.243  0.00  0.00    -0.071 C 
ATOM     21  H11 A3M d          84.884  75.461  98.812  0.00  0.00     0.028 H 
ATOM     22  H12 A3M d          84.162  75.402  97.168  0.00  0.00     0.028 H 
ATOM     23  H13 A3M d          83.306  74.644  98.552  0.00  0.00     0.028 H 
ENDBRANCH  18  20
BRANCH  18  24
ATOM     24  C26 A3M d          83.684  77.771  97.228  0.00  0.00    -0.071 C 
ATOM     25  H17 A3M d          83.525  77.251  96.272  0.00  0.00     0.028 H 
ATOM     26  H18 A3M d          84.746  78.043  97.325  0.00  0.00     0.028 H 
ATOM     27  H19 A3M d          83.069  78.683  97.256  0.00  0.00     0.028 H 
ENDBRANCH  18  24
ENDBRANCH   1  18
BRANCH   1  28
ATOM     28  N19 A3M d          81.264  77.824  99.381  0.00  0.00    -0.070 N 
ATOM     29  H14 A3M d          82.050  78.283  99.814  0.00  0.00     0.274 HD
ATOM     30  H15 A3M d          80.623  77.512 100.093  0.00  0.00     0.274 HD
ATOM     31  H16 A3M d          80.796  78.470  98.766  0.00  0.00     0.274 HD
ENDBRANCH   1  28
TORSDOF 5
ENDMDL
MODEL 6
REMARK VINA RESULT:      -4.2      2.000      2.610
REMARK  5 active torsions:
REMARK  status: ('A' for Active; 'I' for Inactive)
REMARK       I    between atoms: N3_3  and  C14_6 
REMARK    1  A    between atoms: C14_6  and  C15_7 
REMARK    2  A    between atoms: C15_7  and  C16_8 
REMARK    3  A    between atoms: C15_7  and  N19_11 
REMARK    4  A    between atoms: C16_8  and  C17_9 
REMARK    5  A    between atoms: C16_8  and  C26_12 
ROOT
ATOM      1  C15 A3M d          81.733  75.346  98.234  0.00  0.00     0.169 C 
ATOM      2  H9  A3M d          81.538  74.501  97.558  0.00  0.00     0.092 H 
ENDROOT
BRANCH   1   3
ATOM      3  C14 A3M d          80.409  75.837  98.640  0.00  0.00     0.384 C 
ATOM      4  N3  A3M d          79.163  75.074  98.683  0.00  0.00     0.134 N 
ATOM      5  C2  A3M d          78.803  74.461  97.392  0.00  0.00     0.117 C 
ATOM      6  C4  A3M d          77.943  75.803  99.102  0.00  0.00     0.117 C 
ATOM      7  C1  A3M d          77.229  74.166  97.503  0.00  0.00    -0.038 C 
ATOM      8  H3  A3M d          79.009  75.154  96.564  0.00  0.00     0.080 H 
ATOM      9  H4  A3M d          79.362  73.527  97.237  0.00  0.00     0.080 H 
ATOM     10  C5  A3M d          76.860  74.706  98.957  0.00  0.00    -0.038 C 
ATOM     11  H1  A3M d          77.023  73.089  97.418  0.00  0.00     0.035 H 
ATOM     12  H2  A3M d          76.670  74.709  96.727  0.00  0.00     0.035 H 
ATOM     13  H7  A3M d          76.963  73.924  99.723  0.00  0.00     0.035 H 
ATOM     14  H8  A3M d          75.844  75.124  98.994  0.00  0.00     0.035 H 
ATOM     15  H5  A3M d          77.739  76.658  98.440  0.00  0.00     0.080 H 
ATOM     16  H6  A3M d          78.023  76.154 100.141  0.00  0.00     0.080 H 
ATOM     17  O18 A3M d          80.355  77.159  99.013  0.00  0.00    -0.186 OA
ENDBRANCH   1   3
BRANCH   1  18
ATOM     18  C16 A3M d          82.662  74.830  99.296  0.00  0.00    -0.029 C 
ATOM     19  H10 A3M d          82.744  75.602 100.075  0.00  0.00     0.042 H 
BRANCH  18  20
ATOM     20  C17 A3M d          82.245  73.565  99.922  0.00  0.00    -0.071 C 
ATOM     21  H11 A3M d          81.410  73.131  99.352  0.00  0.00     0.028 H 
ATOM     22  H12 A3M d          81.922  73.757 100.956  0.00  0.00     0.028 H 
ATOM     23  H13 A3M d          83.090  72.862  99.927  0.00  0.00     0.028 H 
ENDBRANCH  18  20
BRANCH  18  24
ATOM     24  C26 A3M d          84.188  74.513  98.638  0.00  0.00    -0.071 C 
ATOM     25  H17 A3M d          84.886  74.242  99.444  0.00  0.00     0.028 H 
ATOM     26  H18 A3M d          84.558  75.410  98.119  0.00  0.00     0.028 H 
ATOM     27  H19 A3M d          84.114  73.681  97.923  0.00  0.00     0.028 H 
ENDBRANCH  18  24
ENDBRANCH   1  18
BRANCH   1  28
ATOM     28  N19 A3M d          82.486  76.387  97.459  0.00  0.00    -0.070 N 
ATOM     29  H14 A3M d          82.274  76.294  96.478  0.00  0.00     0.274 HD
ATOM     30  H15 A3M d          83.475  76.262  97.602  0.00  0.00     0.274 HD
ATOM     31  H16 A3M d          82.213  77.304  97.776  0.00  0.00     0.274 HD
ENDBRANCH   1  28
TORSDOF 5
ENDMDL
MODEL 7
REMARK VINA RESULT:      -4.1      2.038      2.684
REMARK  5 active torsions:
REMARK  status: ('A' for Active; 'I' for Inactive)
REMARK       I    between atoms: N3_3  and  C14_6 
REMARK    1  A    between atoms: C14_6  and  C15_7 
REMARK    2  A    between atoms: C15_7  and  C16_8 
REMARK    3  A    between atoms: C15_7  and  N19_11 
REMARK    4  A    between atoms: C16_8  and  C17_9 
REMARK    5  A    between atoms: C16_8  and  C26_12 
ROOT
ATOM      1  C15 A3M d          82.982  76.628  97.514  0.00  0.00     0.169 C 
ATOM      2  H9  A3M d          82.726  76.256  96.511  0.00  0.00     0.092 H 
ENDROOT
BRANCH   1   3
ATOM      3  C14 A3M d          81.798  76.365  98.344  0.00  0.00     0.384 C 
ATOM      4  N3  A3M d          81.047  75.114  98.436  0.00  0.00     0.134 N 
ATOM      5  C2  A3M d          80.538  74.636  97.139  0.00  0.00     0.117 C 
ATOM      6  C4  A3M d          79.863  75.106  99.327  0.00  0.00     0.117 C 
ATOM      7  C1  A3M d          79.348  73.627  97.512  0.00  0.00    -0.038 C 
ATOM      8  H3  A3M d          80.159  75.476  96.538  0.00  0.00     0.080 H 
ATOM      9  H4  A3M d          81.329  74.113  96.581  0.00  0.00     0.080 H 
ATOM     10  C5  A3M d          79.319  73.673  99.106  0.00  0.00    -0.038 C 
ATOM     11  H1  A3M d          79.564  72.611  97.151  0.00  0.00     0.035 H 
ATOM     12  H2  A3M d          78.392  73.970  97.090  0.00  0.00     0.035 H 
ATOM     13  H7  A3M d          79.975  72.911  99.550  0.00  0.00     0.035 H 
ATOM     14  H8  A3M d          78.300  73.555  99.502  0.00  0.00     0.035 H 
ATOM     15  H5  A3M d          79.128  75.866  99.024  0.00  0.00     0.080 H 
ATOM     16  H6  A3M d          80.150  75.269 100.376  0.00  0.00     0.080 H 
ATOM     17  O18 A3M d          81.361  77.424  99.106  0.00  0.00    -0.186 OA
ENDBRANCH   1   3
BRANCH   1  18
ATOM     18  C16 A3M d          84.279  75.968  97.889  0.00  0.00    -0.029 C 
ATOM     19  H10 A3M d          84.856  75.811  96.966  0.00  0.00     0.042 H 
BRANCH  18  20
ATOM     20  C17 A3M d          85.105  76.724  98.843  0.00  0.00    -0.071 C 
ATOM     21  H11 A3M d          85.929  77.216  98.306  0.00  0.00     0.028 H 
ATOM     22  H12 A3M d          85.518  76.036  99.596  0.00  0.00     0.028 H 
ATOM     23  H13 A3M d          84.486  77.484  99.343  0.00  0.00     0.028 H 
ENDBRANCH  18  20
BRANCH  18  24
ATOM     24  C26 A3M d          83.985  74.481  98.641  0.00  0.00    -0.071 C 
ATOM     25  H17 A3M d          83.106  74.005  98.182  0.00  0.00     0.028 H 
ATOM     26  H18 A3M d          83.796  74.643  99.713  0.00  0.00     0.028 H 
ATOM     27  H19 A3M d          84.862  73.829  98.519  0.00  0.00     0.028 H 
ENDBRANCH  18  24
ENDBRANCH   1  18
BRANCH   1  28
ATOM     28  N19 A3M d          83.253  78.098  97.401  0.00  0.00    -0.070 N 
ATOM     29  H14 A3M d          82.499  78.542  96.899  0.00  0.00     0.274 HD
ATOM     30  H15 A3M d          84.118  78.244  96.904  0.00  0.00     0.274 HD
ATOM     31  H16 A3M d          83.323  78.499  98.323  0.00  0.00     0.274 HD
ENDBRANCH   1  28
TORSDOF 5
ENDMDL
MODEL 8
REMARK VINA RESULT:      -3.9      2.167      5.191
REMARK  5 active torsions:
REMARK  status: ('A' for Active; 'I' for Inactive)
REMARK       I    between atoms: N3_3  and  C14_6 
REMARK    1  A    between atoms: C14_6  and  C15_7 
REMARK    2  A    between atoms: C15_7  and  C16_8 
REMARK    3  A    between atoms: C15_7  and  N19_11 
REMARK    4  A    between atoms: C16_8  and  C17_9 
REMARK    5  A    between atoms: C16_8  and  C26_12 
ROOT
ATOM      1  C15 A3M d          77.826  73.979  98.934  0.00  0.00     0.169 C 
ATOM      2  H9  A3M d          78.424  73.059  99.008  0.00  0.00     0.092 H 
ENDROOT
BRANCH   1   3
ATOM      3  C14 A3M d          78.800  75.080  98.931  0.00  0.00     0.384 C 
ATOM      4  N3  A3M d          80.194  75.020  98.496  0.00  0.00     0.134 N 
ATOM      5  C2  A3M d          80.990  74.002  99.205  0.00  0.00     0.117 C 
ATOM      6  C4  A3M d          80.989  76.264  98.616  0.00  0.00     0.117 C 
ATOM      7  C1  A3M d          82.515  74.455  98.995  0.00  0.00    -0.038 C 
ATOM      8  H3  A3M d          80.733  73.987 100.274  0.00  0.00     0.080 H 
ATOM      9  H4  A3M d          80.818  73.005  98.771  0.00  0.00     0.080 H 
ATOM     10  C5  A3M d          82.382  75.790  98.135  0.00  0.00    -0.038 C 
ATOM     11  H1  A3M d          83.082  73.688  98.448  0.00  0.00     0.035 H 
ATOM     12  H2  A3M d          83.003  74.654  99.961  0.00  0.00     0.035 H 
ATOM     13  H7  A3M d          82.396  75.586  97.055  0.00  0.00     0.035 H 
ATOM     14  H8  A3M d          83.171  76.517  98.380  0.00  0.00     0.035 H 
ATOM     15  H5  A3M d          81.023  76.620  99.657  0.00  0.00     0.080 H 
ATOM     16  H6  A3M d          80.590  77.059  97.970  0.00  0.00     0.080 H 
ATOM     17  O18 A3M d          78.333  76.287  99.394  0.00  0.00    -0.186 OA
ENDBRANCH   1   3
BRANCH   1  18
ATOM     18  C16 A3M d          76.936  73.807  97.736  0.00  0.00    -0.029 C 
ATOM     19  H10 A3M d          75.899  73.981  98.060  0.00  0.00     0.042 H 
BRANCH  18  20
ATOM     20  C17 A3M d          77.237  74.702  96.607  0.00  0.00    -0.071 C 
ATOM     21  H11 A3M d          77.385  75.726  96.980  0.00  0.00     0.028 H 
ATOM     22  H12 A3M d          76.399  74.689  95.895  0.00  0.00     0.028 H 
ATOM     23  H13 A3M d          78.152  74.360  96.102  0.00  0.00     0.028 H 
ENDBRANCH  18  20
BRANCH  18  24
ATOM     24  C26 A3M d          77.088  72.243  97.111  0.00  0.00    -0.071 C 
ATOM     25  H17 A3M d          76.542  72.174  96.158  0.00  0.00     0.028 H 
ATOM     26  H18 A3M d          76.669  71.519  97.826  0.00  0.00     0.028 H 
ATOM     27  H19 A3M d          78.151  72.016  96.942  0.00  0.00     0.028 H 
ENDBRANCH  18  24
ENDBRANCH   1  18
BRANCH   1  28
ATOM     28  N19 A3M d          76.935  74.043 100.139  0.00  0.00    -0.070 N 
ATOM     29  H14 A3M d          76.768  75.007 100.382  0.00  0.00     0.274 HD
ATOM     30  H15 A3M d          77.380  73.574 100.912  0.00  0.00     0.274 HD
ATOM     31  H16 A3M d          76.058  73.593  99.933  0.00  0.00     0.274 HD
ENDBRANCH   1  28
TORSDOF 5
ENDMDL
MODEL 9
REMARK VINA RESULT:      -3.1      2.021      2.634
REMARK  5 active torsions:
REMARK  status: ('A' for Active; 'I' for Inactive)
REMARK       I    between atoms: N3_3  and  C14_6 
REMARK    1  A    between atoms: C14_6  and  C15_7 
REMARK    2  A    between atoms: C15_7  and  C16_8 
REMARK    3  A    between atoms: C15_7  and  N19_11 
REMARK    4  A    between atoms: C16_8  and  C17_9 
REMARK    5  A    between atoms: C16_8  and  C26_12 
ROOT
ATOM      1  C15 A3M d          80.854  75.291  99.641  0.00  0.00     0.169 C 
ATOM      2  H9  A3M d          80.822  75.962 100.512  0.00  0.00     0.092 H 
ENDROOT
BRANCH   1   3
ATOM      3  C14 A3M d          79.511  75.356  99.047  0.00  0.00     0.384 C 
ATOM      4  N3  A3M d          78.718  74.237  98.541  0.00  0.00     0.134 N 
ATOM      5  C2  A3M d          79.401  73.454  97.497  0.00  0.00     0.117 C 
ATOM      6  C4  A3M d          77.395  74.562  97.958  0.00  0.00     0.117 C 
ATOM      7  C1  A3M d          78.225  72.677  96.731  0.00  0.00    -0.038 C 
ATOM      8  H3  A3M d          79.940  74.119  96.806  0.00  0.00     0.080 H 
ATOM      9  H4  A3M d          80.108  72.742  97.948  0.00  0.00     0.080 H 
ATOM     10  C5  A3M d          76.912  73.167  97.490  0.00  0.00    -0.038 C 
ATOM     11  H1  A3M d          78.349  71.588  96.820  0.00  0.00     0.035 H 
ATOM     12  H2  A3M d          78.194  72.957  95.668  0.00  0.00     0.035 H 
ATOM     13  H7  A3M d          76.660  72.514  98.339  0.00  0.00     0.035 H 
ATOM     14  H8  A3M d          76.048  73.237  96.813  0.00  0.00     0.035 H 
ATOM     15  H5  A3M d          77.489  75.258  97.111  0.00  0.00     0.080 H 
ATOM     16  H6  A3M d          76.718  74.989  98.712  0.00  0.00     0.080 H 
ATOM     17  O18 A3M d          78.959  76.613  98.962  0.00  0.00    -0.186 OA
ENDBRANCH   1   3
BRANCH   1  18
ATOM     18  C16 A3M d          82.025  75.734  98.811  0.00  0.00    -0.029 C 
ATOM     19  H10 A3M d          82.912  75.183  99.159  0.00  0.00     0.042 H 
BRANCH  18  20
ATOM     20  C17 A3M d          81.873  75.523  97.363  0.00  0.00    -0.071 C 
ATOM     21  H11 A3M d          82.116  76.454  96.830  0.00  0.00     0.028 H 
ATOM     22  H12 A3M d          80.835  75.234  97.141  0.00  0.00     0.028 H 
ATOM     23  H13 A3M d          82.553  74.724  97.035  0.00  0.00     0.028 H 
ENDBRANCH  18  20
BRANCH  18  24
ATOM     24  C26 A3M d          82.276  77.397  98.991  0.00  0.00    -0.071 C 
ATOM     25  H17 A3M d          82.922  77.579  99.862  0.00  0.00     0.028 H 
ATOM     26  H18 A3M d          81.309  77.901  99.139  0.00  0.00     0.028 H 
ATOM     27  H19 A3M d          82.761  77.795  98.086  0.00  0.00     0.028 H 
ENDBRANCH  18  24
ENDBRANCH   1  18
BRANCH   1  28
ATOM     28  N19 A3M d          81.163  73.910 100.138  0.00  0.00    -0.070 N 
ATOM     29  H14 A3M d          82.071  73.906 100.577  0.00  0.00     0.274 HD
ATOM     30  H15 A3M d          81.161  73.266  99.364  0.00  0.00     0.274 HD
ATOM     31  H16 A3M d          80.466  73.631 100.810  0.00  0.00     0.274 HD
ENDBRANCH   1  28
TORSDOF 5
ENDMDL
