REMARK  3 active torsions:
REMARK  status: ('A' for Active; 'I' for Inactive)
REMARK    1  A    between atoms: C14_16  and  N2_2 
REMARK    2  A    between atoms: C8_10  and  C18_20 
REMARK    3  A    between atoms: C18_20  and  C10_12 
ROOT
ATOM      1  N1  HUX d           5.960  69.581  65.309  0.00  0.00    -0.252 NA
ATOM      2  C1  HUX d           6.378  70.635  68.845  0.00  0.00     0.036 A 
ATOM      3  C2  HUX d           6.670  70.277  67.434  0.00  0.00    -0.033 A 
ATOM      4  C3  HUX d           5.569  69.950  66.666  0.00  0.00     0.071 A 
ATOM      5  C4  HUX d           4.975  69.198  64.470  0.00  0.00     0.044 A 
ATOM      6  C5  HUX d           5.519  68.784  62.997  0.00  0.00    -0.018 C 
ATOM      7  C6  HUX d           4.527  67.880  62.246  0.00  0.00    -0.032 C 
ATOM      8  C7  HUX d           4.282  66.405  62.996  0.00  0.00    -0.096 C 
ATOM      9  C8  HUX d           3.305  66.089  63.849  0.00  0.00    -0.083 C 
ATOM     10  C9  HUX d           2.303  67.180  64.150  0.00  0.00    -0.037 C 
ATOM     11  C11 HUX d           2.621  68.602  63.709  0.00  0.00    -0.020 C 
ATOM     12  C12 HUX d           3.171  68.555  62.217  0.00  0.00    -0.051 C 
ATOM     13  C13 HUX d           3.623  69.110  64.752  0.00  0.00    -0.002 A 
ATOM     14  C14 HUX d           3.228  69.512  66.146  0.00  0.00     0.047 A 
ATOM     15  C15 HUX d           4.248  69.912  67.043  0.00  0.00     0.019 A 
ATOM     16  C16 HUX d           3.913  70.303  68.461  0.00  0.00    -0.067 A 
ATOM     17  C17 HUX d           4.934  70.630  69.274  0.00  0.00    -0.061 A 
ATOM     18 CL1  HUX d           7.560  70.996  69.959  0.00  0.00    -0.084 Cl
ATOM     19  H3  HUX d           7.678  70.272  67.034  0.00  0.00     0.089 H 
ATOM     20  H4  HUX d           6.473  68.247  63.109  0.00  0.00     0.043 H 
ATOM     21  H5  HUX d           5.680  69.699  62.408  0.00  0.00     0.043 H 
ATOM     22  H6  HUX d           4.897  67.716  61.223  0.00  0.00     0.046 H 
ATOM     23  H7  HUX d           4.997  65.617  62.763  0.00  0.00     0.077 H 
ATOM     24  H8  HUX d           2.165  67.202  65.241  0.00  0.00     0.040 H 
ATOM     25  H9  HUX d           1.357  66.894  63.666  0.00  0.00     0.040 H 
ATOM     26  H13 HUX d           1.718  69.230  63.732  0.00  0.00     0.048 H 
ATOM     27  H14 HUX d           2.481  67.981  61.581  0.00  0.00     0.035 H 
ATOM     28  H15 HUX d           3.270  69.577  61.822  0.00  0.00     0.035 H 
ATOM     29  H16 HUX d           2.888  70.320  68.812  0.00  0.00     0.085 H 
ATOM     30  H17 HUX d           4.704  70.906  70.297  0.00  0.00     0.086 H 
ENDROOT
BRANCH   9  31
ATOM     31  C18 HUX d           3.279  64.636  64.466  0.00  0.00    -0.048 C 
ATOM     32  H18 HUX d           2.330  64.177  64.151  0.00  0.00     0.039 H 
ATOM     33  H19 HUX d           3.283  64.758  65.559  0.00  0.00     0.039 H 
BRANCH  31  34
ATOM     34  C10 HUX d           4.394  63.619  64.131  0.00  0.00    -0.073 C 
ATOM     35  H10 HUX d           4.196  62.672  64.655  0.00  0.00     0.028 H 
ATOM     36  H11 HUX d           5.366  64.021  64.454  0.00  0.00     0.028 H 
ATOM     37  H12 HUX d           4.413  63.440  63.046  0.00  0.00     0.028 H 
ENDBRANCH  31  34
ENDBRANCH   9  31
BRANCH  14  38
ATOM     38  N2  HUX d           1.886  69.430  66.469  0.00  0.00    -0.398 N 
ATOM     39  H1  HUX d           1.203  69.130  65.759  0.00  0.00     0.156 HD
ATOM     40  H2  HUX d           1.569  69.669  67.420  0.00  0.00     0.156 HD
ENDBRANCH  14  38
TORSDOF 3
