MODEL 1
REMARK VINA RESULT:     -11.7      0.000      0.000
REMARK  3 active torsions:
REMARK  status: ('A' for Active; 'I' for Inactive)
REMARK    1  A    between atoms: C14_16  and  N2_2 
REMARK    2  A    between atoms: C8_10  and  C18_20 
REMARK    3  A    between atoms: C18_20  and  C10_12 
ROOT
ATOM      1  N1  HUX d           5.543  69.762  65.240  0.00  0.00    -0.252 NA
ATOM      2  C1  HUX d           6.207  70.786  68.747  0.00  0.00     0.036 A 
ATOM      3  C2  HUX d           6.388  70.494  67.303  0.00  0.00    -0.033 A 
ATOM      4  C3  HUX d           5.257  70.054  66.642  0.00  0.00     0.071 A 
ATOM      5  C4  HUX d           4.526  69.281  64.495  0.00  0.00     0.044 A 
ATOM      6  C5  HUX d           4.956  68.965  62.961  0.00  0.00    -0.018 C 
ATOM      7  C6  HUX d           4.002  67.964  62.287  0.00  0.00    -0.032 C 
ATOM      8  C7  HUX d           4.011  66.456  63.009  0.00  0.00    -0.096 C 
ATOM      9  C8  HUX d           3.174  66.008  63.947  0.00  0.00    -0.083 C 
ATOM     10  C9  HUX d           2.089  66.965  64.385  0.00  0.00    -0.037 C 
ATOM     11  C11 HUX d           2.190  68.424  63.960  0.00  0.00    -0.020 C 
ATOM     12  C12 HUX d           2.581  68.473  62.419  0.00  0.00    -0.051 C 
ATOM     13  C13 HUX d           3.231  69.027  64.911  0.00  0.00    -0.002 A 
ATOM     14  C14 HUX d           2.942  69.350  66.351  0.00  0.00     0.047 A 
ATOM     15  C15 HUX d           3.997  69.851  67.151  0.00  0.00     0.019 A 
ATOM     16  C16 HUX d           3.771  70.170  68.608  0.00  0.00    -0.067 A 
ATOM     17  C17 HUX d           4.827  70.600  69.322  0.00  0.00    -0.061 A 
ATOM     18 CL1  HUX d           7.450  71.263  69.745  0.00  0.00    -0.084 Cl
ATOM     19  H3  HUX d           7.341  70.618  66.801  0.00  0.00     0.089 H 
ATOM     20  H4  HUX d           5.972  68.543  62.957  0.00  0.00     0.043 H 
ATOM     21  H5  HUX d           4.946  69.904  62.389  0.00  0.00     0.043 H 
ATOM     22  H6  HUX d           4.278  67.866  61.226  0.00  0.00     0.046 H 
ATOM     23  H7  HUX d           4.785  65.764  62.679  0.00  0.00     0.077 H 
ATOM     24  H8  HUX d           2.065  66.949  65.485  0.00  0.00     0.040 H 
ATOM     25  H9  HUX d           1.137  66.578  63.992  0.00  0.00     0.040 H 
ATOM     26  H13 HUX d           1.228  68.939  64.096  0.00  0.00     0.048 H 
ATOM     27  H14 HUX d           1.899  67.834  61.839  0.00  0.00     0.035 H 
ATOM     28  H15 HUX d           2.518  69.507  62.050  0.00  0.00     0.035 H 
ATOM     29  H16 HUX d           2.794  70.058  69.062  0.00  0.00     0.085 H 
ATOM     30  H17 HUX d           4.676  70.826  70.371  0.00  0.00     0.086 H 
ENDROOT
BRANCH   9  31
ATOM     31  C18 HUX d           3.383  64.550  64.516  0.00  0.00    -0.048 C 
ATOM     32  H18 HUX d           2.541  63.945  64.147  0.00  0.00     0.039 H 
ATOM     33  H19 HUX d           3.326  64.629  65.612  0.00  0.00     0.039 H 
BRANCH  31  34
ATOM     34  C10 HUX d           4.671  63.758  64.196  0.00  0.00    -0.073 C 
ATOM     35  H10 HUX d           4.833  62.993  64.970  0.00  0.00     0.028 H 
ATOM     36  H11 HUX d           5.529  64.446  64.174  0.00  0.00     0.028 H 
ATOM     37  H12 HUX d           4.567  63.270  63.215  0.00  0.00     0.028 H 
ENDBRANCH  31  34
ENDBRANCH   9  31
BRANCH  14  38
ATOM     38  N2  HUX d           1.660  69.102  66.807  0.00  0.00    -0.398 N 
ATOM     39  H1  HUX d           1.306  68.136  66.846  0.00  0.00     0.156 HD
ATOM     40  H2  HUX d           1.059  69.884  67.108  0.00  0.00     0.156 HD
ENDBRANCH  14  38
TORSDOF 3
ENDMDL
