MODEL 1
REMARK VINA RESULT:      -6.5      0.000      0.000
REMARK  7 active torsions:
REMARK  status: ('A' for Active; 'I' for Inactive)
REMARK    1  A    between atoms: C1_1  and  O1_8 
REMARK    2  A    between atoms: C2_2  and  O2_9 
REMARK    3  A    between atoms: C3_3  and  O3_10 
REMARK    4  A    between atoms: C4_4  and  O4_11 
REMARK    5  A    between atoms: C5_5  and  C6_6 
REMARK    6  A    between atoms: C6_6  and  O6_13 
REMARK    7  A    between atoms: O1_8  and  C7_7 
ROOT
ATOM      1  C1  MMA d          -4.354 -17.782  -5.874  0.00  0.00     0.158 C 
ATOM      2  C2  MMA d          -3.614 -17.062  -4.734  0.00  0.00     0.110 C 
ATOM      3  C3  MMA d          -4.583 -16.601  -3.643  0.00  0.00     0.092 C 
ATOM      4  C4  MMA d          -5.737 -15.804  -4.251  0.00  0.00     0.090 C 
ATOM      5  C5  MMA d          -6.426 -16.724  -5.252  0.00  0.00     0.089 C 
ATOM      6  O5  MMA d          -5.490 -17.024  -6.306  0.00  0.00    -0.349 OA
ATOM      7  H1  MMA d          -3.671 -17.939  -6.722  0.00  0.00     0.133 H 
ATOM      8  H2  MMA d          -2.880 -17.753  -4.294  0.00  0.00     0.094 H 
ATOM      9  H3  MMA d          -4.974 -17.476  -3.103  0.00  0.00     0.091 H 
ATOM     10  H4  MMA d          -5.337 -14.930  -4.786  0.00  0.00     0.091 H 
ATOM     11  H5  MMA d          -6.703 -17.656  -4.737  0.00  0.00     0.090 H 
ENDROOT
BRANCH   1  12
ATOM     12  O1  MMA d          -4.812 -19.038  -5.367  0.00  0.00    -0.363 OA
BRANCH  12  13
ATOM     13  C7  MMA d          -3.720 -19.953  -5.142  0.00  0.00     0.007 C 
ATOM     14  H8  MMA d          -3.775 -20.345  -4.117  0.00  0.00     0.066 H 
ATOM     15  H9  MMA d          -2.765 -19.425  -5.282  0.00  0.00     0.066 H 
ATOM     16  H10 MMA d          -3.787 -20.786  -5.858  0.00  0.00     0.066 H 
ENDBRANCH  12  13
ENDBRANCH   1  12
BRANCH   2  17
ATOM     17  O2  MMA d          -2.929 -15.902  -5.262  0.00  0.00    -0.388 OA
ATOM     18  H11 MMA d          -3.164 -15.786  -6.175  0.00  0.00     0.210 HD
ENDBRANCH   2  17
BRANCH   3  19
ATOM     19  O3  MMA d          -3.892 -15.720  -2.735  0.00  0.00    -0.390 OA
ATOM     20  H12 MMA d          -3.531 -14.987  -3.220  0.00  0.00     0.210 HD
ENDBRANCH   3  19
BRANCH   5  21
ATOM     21  C6  MMA d          -7.694 -16.112  -5.854  0.00  0.00     0.043 C 
ATOM     22  H6  MMA d          -8.084 -15.324  -5.193  0.00  0.00     0.078 H 
ATOM     23  H7  MMA d          -8.461 -16.888  -5.991  0.00  0.00     0.078 H 
BRANCH  21  24
ATOM     24  O6  MMA d          -7.319 -15.550  -7.134  0.00  0.00    -0.398 OA
ATOM     25  H14 MMA d          -7.751 -14.712  -7.250  0.00  0.00     0.209 HD
ENDBRANCH  21  24
ENDBRANCH   5  21
BRANCH   4  26
ATOM     26  O4  MMA d          -6.623 -15.331  -3.209  0.00  0.00    -0.390 OA
ATOM     27  H13 MMA d          -7.248 -16.013  -2.993  0.00  0.00     0.210 HD
ENDBRANCH   4  26
TORSDOF 7
ENDMDL
MODEL 2
REMARK VINA RESULT:      -5.6      1.194      1.383
REMARK  7 active torsions:
REMARK  status: ('A' for Active; 'I' for Inactive)
REMARK    1  A    between atoms: C1_1  and  O1_8 
REMARK    2  A    between atoms: C2_2  and  O2_9 
REMARK    3  A    between atoms: C3_3  and  O3_10 
REMARK    4  A    between atoms: C4_4  and  O4_11 
REMARK    5  A    between atoms: C5_5  and  C6_6 
REMARK    6  A    between atoms: C6_6  and  O6_13 
REMARK    7  A    between atoms: O1_8  and  C7_7 
ROOT
ATOM      1  C1  MMA d          -4.958 -18.991  -5.746  0.00  0.00     0.158 C 
ATOM      2  C2  MMA d          -3.760 -18.056  -5.506  0.00  0.00     0.110 C 
ATOM      3  C3  MMA d          -4.170 -16.818  -4.707  0.00  0.00     0.092 C 
ATOM      4  C4  MMA d          -5.382 -16.142  -5.349  0.00  0.00     0.090 C 
ATOM      5  C5  MMA d          -6.499 -17.179  -5.376  0.00  0.00     0.089 C 
ATOM      6  O5  MMA d          -6.088 -18.260  -6.235  0.00  0.00    -0.349 OA
ATOM      7  H1  MMA d          -4.682 -19.773  -6.469  0.00  0.00     0.133 H 
ATOM      8  H2  MMA d          -2.987 -18.605  -4.947  0.00  0.00     0.094 H 
ATOM      9  H3  MMA d          -4.405 -17.107  -3.672  0.00  0.00     0.091 H 
ATOM     10  H4  MMA d          -5.137 -15.853  -6.381  0.00  0.00     0.091 H 
ATOM     11  H5  MMA d          -6.646 -17.562  -4.356  0.00  0.00     0.090 H 
ENDROOT
BRANCH   1  12
ATOM     12  O1  MMA d          -5.306 -19.579  -4.489  0.00  0.00    -0.363 OA
BRANCH  12  13
ATOM     13  C7  MMA d          -4.166 -20.191  -3.852  0.00  0.00     0.007 C 
ATOM     14  H8  MMA d          -3.271 -20.032  -4.471  0.00  0.00     0.066 H 
ATOM     15  H9  MMA d          -4.346 -21.270  -3.738  0.00  0.00     0.066 H 
ATOM     16  H10 MMA d          -4.012 -19.738  -2.862  0.00  0.00     0.066 H 
ENDBRANCH  12  13
ENDBRANCH   1  12
BRANCH   2  17
ATOM     17  O2  MMA d          -3.222 -17.628  -6.778  0.00  0.00    -0.388 OA
ATOM     18  H11 MMA d          -3.137 -18.379  -7.354  0.00  0.00     0.210 HD
ENDBRANCH   2  17
BRANCH   3  19
ATOM     19  O3  MMA d          -3.093 -15.861  -4.726  0.00  0.00    -0.390 OA
ATOM     20  H12 MMA d          -3.443 -14.994  -4.897  0.00  0.00     0.210 HD
ENDBRANCH   3  19
BRANCH   5  21
ATOM     21  C6  MMA d          -7.831 -16.611  -5.873  0.00  0.00     0.043 C 
ATOM     22  H6  MMA d          -8.375 -16.137  -5.041  0.00  0.00     0.078 H 
ATOM     23  H7  MMA d          -8.448 -17.413  -6.303  0.00  0.00     0.078 H 
BRANCH  21  24
ATOM     24  O6  MMA d          -7.514 -15.628  -6.886  0.00  0.00    -0.398 OA
ATOM     25  H14 MMA d          -7.020 -16.042  -7.584  0.00  0.00     0.209 HD
ENDBRANCH  21  24
ENDBRANCH   5  21
BRANCH   4  26
ATOM     26  O4  MMA d          -5.734 -14.945  -4.615  0.00  0.00    -0.390 OA
ATOM     27  H13 MMA d          -4.990 -14.354  -4.600  0.00  0.00     0.210 HD
ENDBRANCH   4  26
TORSDOF 7
ENDMDL
MODEL 3
REMARK VINA RESULT:      -5.0      1.704      2.082
REMARK  7 active torsions:
REMARK  status: ('A' for Active; 'I' for Inactive)
REMARK    1  A    between atoms: C1_1  and  O1_8 
REMARK    2  A    between atoms: C2_2  and  O2_9 
REMARK    3  A    between atoms: C3_3  and  O3_10 
REMARK    4  A    between atoms: C4_4  and  O4_11 
REMARK    5  A    between atoms: C5_5  and  C6_6 
REMARK    6  A    between atoms: C6_6  and  O6_13 
REMARK    7  A    between atoms: O1_8  and  C7_7 
ROOT
ATOM      1  C1  MMA d          -5.040 -18.915  -4.580  0.00  0.00     0.158 C 
ATOM      2  C2  MMA d          -4.149 -17.756  -5.058  0.00  0.00     0.110 C 
ATOM      3  C3  MMA d          -4.253 -16.550  -4.121  0.00  0.00     0.092 C 
ATOM      4  C4  MMA d          -5.716 -16.171  -3.895  0.00  0.00     0.090 C 
ATOM      5  C5  MMA d          -6.399 -17.396  -3.298  0.00  0.00     0.089 C 
ATOM      6  O5  MMA d          -6.361 -18.453  -4.277  0.00  0.00    -0.349 OA
ATOM      7  H1  MMA d          -5.090 -19.692  -5.358  0.00  0.00     0.133 H 
ATOM      8  H2  MMA d          -3.104 -18.100  -5.087  0.00  0.00     0.094 H 
ATOM      9  H3  MMA d          -3.772 -16.786  -3.160  0.00  0.00     0.091 H 
ATOM     10  H4  MMA d          -6.187 -15.933  -4.860  0.00  0.00     0.091 H 
ATOM     11  H5  MMA d          -5.839 -17.709  -2.405  0.00  0.00     0.090 H 
ENDROOT
BRANCH   1  12
ATOM     12  O1  MMA d          -4.459 -19.445  -3.386  0.00  0.00    -0.363 OA
BRANCH  12  13
ATOM     13  C7  MMA d          -3.075 -19.804  -3.580  0.00  0.00     0.007 C 
ATOM     14  H8  MMA d          -2.753 -20.472  -2.769  0.00  0.00     0.066 H 
ATOM     15  H9  MMA d          -2.456 -18.895  -3.575  0.00  0.00     0.066 H 
ATOM     16  H10 MMA d          -2.963 -20.320  -4.546  0.00  0.00     0.066 H 
ENDBRANCH  12  13
ENDBRANCH   1  12
BRANCH   2  17
ATOM     17  O2  MMA d          -4.559 -17.348  -6.383  0.00  0.00    -0.388 OA
ATOM     18  H11 MMA d          -4.241 -16.469  -6.555  0.00  0.00     0.210 HD
ENDBRANCH   2  17
BRANCH   3  19
ATOM     19  O3  MMA d          -3.611 -15.415  -4.735  0.00  0.00    -0.390 OA
ATOM     20  H12 MMA d          -4.115 -14.630  -4.552  0.00  0.00     0.210 HD
ENDBRANCH   3  19
BRANCH   5  21
ATOM     21  C6  MMA d          -7.850 -17.132  -2.888  0.00  0.00     0.043 C 
ATOM     22  H6  MMA d          -7.884 -16.680  -1.885  0.00  0.00     0.078 H 
ATOM     23  H7  MMA d          -8.420 -18.073  -2.885  0.00  0.00     0.078 H 
BRANCH  21  24
ATOM     24  O6  MMA d          -8.401 -16.219  -3.866  0.00  0.00    -0.398 OA
ATOM     25  H14 MMA d          -8.847 -16.713  -4.543  0.00  0.00     0.209 HD
ENDBRANCH  21  24
ENDBRANCH   5  21
BRANCH   4  26
ATOM     26  O4  MMA d          -5.804 -15.001  -3.047  0.00  0.00    -0.390 OA
ATOM     27  H13 MMA d          -4.929 -14.716  -2.811  0.00  0.00     0.210 HD
ENDBRANCH   4  26
TORSDOF 7
ENDMDL
MODEL 4
REMARK VINA RESULT:      -5.0      1.734      3.866
REMARK  7 active torsions:
REMARK  status: ('A' for Active; 'I' for Inactive)
REMARK    1  A    between atoms: C1_1  and  O1_8 
REMARK    2  A    between atoms: C2_2  and  O2_9 
REMARK    3  A    between atoms: C3_3  and  O3_10 
REMARK    4  A    between atoms: C4_4  and  O4_11 
REMARK    5  A    between atoms: C5_5  and  C6_6 
REMARK    6  A    between atoms: C6_6  and  O6_13 
REMARK    7  A    between atoms: O1_8  and  C7_7 
ROOT
ATOM      1  C1  MMA d          -6.773 -18.143  -3.963  0.00  0.00     0.158 C 
ATOM      2  C2  MMA d          -6.898 -16.622  -4.153  0.00  0.00     0.110 C 
ATOM      3  C3  MMA d          -5.693 -16.054  -4.905  0.00  0.00     0.092 C 
ATOM      4  C4  MMA d          -4.388 -16.504  -4.248  0.00  0.00     0.090 C 
ATOM      5  C5  MMA d          -4.389 -18.028  -4.273  0.00  0.00     0.089 C 
ATOM      6  O5  MMA d          -5.481 -18.491  -3.455  0.00  0.00    -0.349 OA
ATOM      7  H1  MMA d          -7.551 -18.497  -3.269  0.00  0.00     0.133 H 
ATOM      8  H2  MMA d          -7.813 -16.409  -4.726  0.00  0.00     0.094 H 
ATOM      9  H3  MMA d          -5.721 -16.386  -5.953  0.00  0.00     0.091 H 
ATOM     10  H4  MMA d          -4.367 -16.164  -3.202  0.00  0.00     0.091 H 
ATOM     11  H5  MMA d          -4.546 -18.361  -5.310  0.00  0.00     0.090 H 
ENDROOT
BRANCH   1  12
ATOM     12  O1  MMA d          -6.938 -18.754  -5.245  0.00  0.00    -0.363 OA
BRANCH  12  13
ATOM     13  C7  MMA d          -8.306 -18.685  -5.697  0.00  0.00     0.007 C 
ATOM     14  H8  MMA d          -8.325 -18.568  -6.790  0.00  0.00     0.066 H 
ATOM     15  H9  MMA d          -8.804 -17.823  -5.228  0.00  0.00     0.066 H 
ATOM     16  H10 MMA d          -8.832 -19.610  -5.418  0.00  0.00     0.066 H 
ENDBRANCH  12  13
ENDBRANCH   1  12
BRANCH   2  17
ATOM     17  O2  MMA d          -6.979 -15.980  -2.859  0.00  0.00    -0.388 OA
ATOM     18  H11 MMA d          -7.887 -15.946  -2.580  0.00  0.00     0.210 HD
ENDBRANCH   2  17
BRANCH   3  19
ATOM     19  O3  MMA d          -5.726 -14.614  -4.837  0.00  0.00    -0.390 OA
ATOM     20  H12 MMA d          -6.620 -14.312  -4.948  0.00  0.00     0.210 HD
ENDBRANCH   3  19
BRANCH   5  21
ATOM     21  C6  MMA d          -3.078 -18.636  -3.767  0.00  0.00     0.043 C 
ATOM     22  H6  MMA d          -2.452 -18.950  -4.616  0.00  0.00     0.078 H 
ATOM     23  H7  MMA d          -3.286 -19.504  -3.125  0.00  0.00     0.078 H 
BRANCH  21  24
ATOM     24  O6  MMA d          -2.405 -17.603  -3.008  0.00  0.00    -0.398 OA
ATOM     25  H14 MMA d          -2.917 -16.804  -3.040  0.00  0.00     0.209 HD
ENDBRANCH  21  24
ENDBRANCH   5  21
BRANCH   4  26
ATOM     26  O4  MMA d          -3.255 -15.924  -4.937  0.00  0.00    -0.390 OA
ATOM     27  H13 MMA d          -3.129 -16.367  -5.767  0.00  0.00     0.210 HD
ENDBRANCH   4  26
TORSDOF 7
ENDMDL
MODEL 5
REMARK VINA RESULT:      -4.9      1.664      1.852
REMARK  7 active torsions:
REMARK  status: ('A' for Active; 'I' for Inactive)
REMARK    1  A    between atoms: C1_1  and  O1_8 
REMARK    2  A    between atoms: C2_2  and  O2_9 
REMARK    3  A    between atoms: C3_3  and  O3_10 
REMARK    4  A    between atoms: C4_4  and  O4_11 
REMARK    5  A    between atoms: C5_5  and  C6_6 
REMARK    6  A    between atoms: C6_6  and  O6_13 
REMARK    7  A    between atoms: O1_8  and  C7_7 
ROOT
ATOM      1  C1  MMA d          -3.869 -17.181  -5.853  0.00  0.00     0.158 C 
ATOM      2  C2  MMA d          -3.714 -17.928  -4.517  0.00  0.00     0.110 C 
ATOM      3  C3  MMA d          -5.026 -18.592  -4.095  0.00  0.00     0.092 C 
ATOM      4  C4  MMA d          -6.173 -17.582  -4.125  0.00  0.00     0.090 C 
ATOM      5  C5  MMA d          -6.255 -17.054  -5.553  0.00  0.00     0.089 C 
ATOM      6  O5  MMA d          -5.032 -16.347  -5.841  0.00  0.00    -0.349 OA
ATOM      7  H1  MMA d          -2.976 -16.568  -6.043  0.00  0.00     0.133 H 
ATOM      8  H2  MMA d          -2.940 -18.702  -4.630  0.00  0.00     0.094 H 
ATOM      9  H3  MMA d          -5.248 -19.434  -4.767  0.00  0.00     0.091 H 
ATOM     10  H4  MMA d          -5.945 -16.746  -3.448  0.00  0.00     0.091 H 
ATOM     11  H5  MMA d          -6.348 -17.910  -6.238  0.00  0.00     0.090 H 
ENDROOT
BRANCH   1  12
ATOM     12  O1  MMA d          -4.024 -18.162  -6.882  0.00  0.00    -0.363 OA
BRANCH  12  13
ATOM     13  C7  MMA d          -2.880 -19.038  -6.961  0.00  0.00     0.007 C 
ATOM     14  H8  MMA d          -2.390 -19.090  -5.979  0.00  0.00     0.066 H 
ATOM     15  H9  MMA d          -2.170 -18.646  -7.705  0.00  0.00     0.066 H 
ATOM     16  H10 MMA d          -3.209 -20.044  -7.261  0.00  0.00     0.066 H 
ENDBRANCH  12  13
ENDBRANCH   1  12
BRANCH   2  17
ATOM     17  O2  MMA d          -3.316 -16.995  -3.487  0.00  0.00    -0.388 OA
ATOM     18  H11 MMA d          -3.734 -17.232  -2.667  0.00  0.00     0.210 HD
ENDBRANCH   2  17
BRANCH   3  19
ATOM     19  O3  MMA d          -4.908 -19.056  -2.735  0.00  0.00    -0.390 OA
ATOM     20  H12 MMA d          -5.061 -19.994  -2.707  0.00  0.00     0.210 HD
ENDBRANCH   3  19
BRANCH   5  21
ATOM     21  C6  MMA d          -7.449 -16.124  -5.781  0.00  0.00     0.043 C 
ATOM     22  H6  MMA d          -7.456 -15.325  -5.024  0.00  0.00     0.078 H 
ATOM     23  H7  MMA d          -8.389 -16.692  -5.722  0.00  0.00     0.078 H 
BRANCH  21  24
ATOM     24  O6  MMA d          -7.291 -15.557  -7.103  0.00  0.00    -0.398 OA
ATOM     25  H14 MMA d          -7.339 -16.250  -7.751  0.00  0.00     0.209 HD
ENDBRANCH  21  24
ENDBRANCH   5  21
BRANCH   4  26
ATOM     26  O4  MMA d          -7.401 -18.205  -3.678  0.00  0.00    -0.390 OA
ATOM     27  H13 MMA d          -7.197 -18.900  -3.063  0.00  0.00     0.210 HD
ENDBRANCH   4  26
TORSDOF 7
ENDMDL
MODEL 6
REMARK VINA RESULT:      -4.8      1.345      1.569
REMARK  7 active torsions:
REMARK  status: ('A' for Active; 'I' for Inactive)
REMARK    1  A    between atoms: C1_1  and  O1_8 
REMARK    2  A    between atoms: C2_2  and  O2_9 
REMARK    3  A    between atoms: C3_3  and  O3_10 
REMARK    4  A    between atoms: C4_4  and  O4_11 
REMARK    5  A    between atoms: C5_5  and  C6_6 
REMARK    6  A    between atoms: C6_6  and  O6_13 
REMARK    7  A    between atoms: O1_8  and  C7_7 
ROOT
ATOM      1  C1  MMA d          -4.594 -17.830  -4.908  0.00  0.00     0.158 C 
ATOM      2  C2  MMA d          -4.615 -16.540  -4.070  0.00  0.00     0.110 C 
ATOM      3  C3  MMA d          -5.996 -16.296  -3.458  0.00  0.00     0.092 C 
ATOM      4  C4  MMA d          -7.080 -16.370  -4.532  0.00  0.00     0.090 C 
ATOM      5  C5  MMA d          -6.988 -17.759  -5.154  0.00  0.00     0.089 C 
ATOM      6  O5  MMA d          -5.708 -17.875  -5.806  0.00  0.00    -0.349 OA
ATOM      7  H1  MMA d          -3.656 -17.887  -5.480  0.00  0.00     0.133 H 
ATOM      8  H2  MMA d          -3.874 -16.629  -3.261  0.00  0.00     0.094 H 
ATOM      9  H3  MMA d          -6.191 -17.043  -2.674  0.00  0.00     0.091 H 
ATOM     10  H4  MMA d          -6.880 -15.617  -5.309  0.00  0.00     0.091 H 
ATOM     11  H5  MMA d          -7.055 -18.507  -4.350  0.00  0.00     0.090 H 
ENDROOT
BRANCH   1  12
ATOM     12  O1  MMA d          -4.693 -18.934  -4.005  0.00  0.00    -0.363 OA
BRANCH  12  13
ATOM     13  C7  MMA d          -3.401 -19.514  -3.728  0.00  0.00     0.007 C 
ATOM     14  H8  MMA d          -2.912 -19.789  -4.673  0.00  0.00     0.066 H 
ATOM     15  H9  MMA d          -3.529 -20.412  -3.106  0.00  0.00     0.066 H 
ATOM     16  H10 MMA d          -2.778 -18.782  -3.192  0.00  0.00     0.066 H 
ENDBRANCH  12  13
ENDBRANCH   1  12
BRANCH   2  17
ATOM     17  O2  MMA d          -4.277 -15.414  -4.911  0.00  0.00    -0.388 OA
ATOM     18  H11 MMA d          -4.937 -14.737  -4.813  0.00  0.00     0.210 HD
ENDBRANCH   2  17
BRANCH   3  19
ATOM     19  O3  MMA d          -6.041 -14.967  -2.902  0.00  0.00    -0.390 OA
ATOM     20  H12 MMA d          -5.852 -15.006  -1.971  0.00  0.00     0.210 HD
ENDBRANCH   3  19
BRANCH   5  21
ATOM     21  C6  MMA d          -8.103 -18.038  -6.165  0.00  0.00     0.043 C 
ATOM     22  H6  MMA d          -8.996 -18.422  -5.648  0.00  0.00     0.078 H 
ATOM     23  H7  MMA d          -7.765 -18.776  -6.907  0.00  0.00     0.078 H 
BRANCH  21  24
ATOM     24  O6  MMA d          -8.404 -16.780  -6.813  0.00  0.00    -0.398 OA
ATOM     25  H14 MMA d          -8.177 -16.063  -6.232  0.00  0.00     0.209 HD
ENDBRANCH  21  24
ENDBRANCH   5  21
BRANCH   4  26
ATOM     26  O4  MMA d          -8.378 -16.090  -3.955  0.00  0.00    -0.390 OA
ATOM     27  H13 MMA d          -8.979 -15.827  -4.642  0.00  0.00     0.210 HD
ENDBRANCH   4  26
TORSDOF 7
ENDMDL
MODEL 7
REMARK VINA RESULT:      -4.7      1.819      4.058
REMARK  7 active torsions:
REMARK  status: ('A' for Active; 'I' for Inactive)
REMARK    1  A    between atoms: C1_1  and  O1_8 
REMARK    2  A    between atoms: C2_2  and  O2_9 
REMARK    3  A    between atoms: C3_3  and  O3_10 
REMARK    4  A    between atoms: C4_4  and  O4_11 
REMARK    5  A    between atoms: C5_5  and  C6_6 
REMARK    6  A    between atoms: C6_6  and  O6_13 
REMARK    7  A    between atoms: O1_8  and  C7_7 
ROOT
ATOM      1  C1  MMA d          -6.651 -16.931  -3.639  0.00  0.00     0.158 C 
ATOM      2  C2  MMA d          -5.516 -15.969  -4.030  0.00  0.00     0.110 C 
ATOM      3  C3  MMA d          -4.431 -16.685  -4.836  0.00  0.00     0.092 C 
ATOM      4  C4  MMA d          -3.968 -17.947  -4.109  0.00  0.00     0.090 C 
ATOM      5  C5  MMA d          -5.199 -18.829  -3.932  0.00  0.00     0.089 C 
ATOM      6  O5  MMA d          -6.127 -18.137  -3.073  0.00  0.00    -0.349 OA
ATOM      7  H1  MMA d          -7.320 -16.443  -2.914  0.00  0.00     0.133 H 
ATOM      8  H2  MMA d          -5.936 -15.153  -4.638  0.00  0.00     0.094 H 
ATOM      9  H3  MMA d          -4.821 -16.946  -5.831  0.00  0.00     0.091 H 
ATOM     10  H4  MMA d          -3.576 -17.677  -3.117  0.00  0.00     0.091 H 
ATOM     11  H5  MMA d          -5.663 -18.984  -4.917  0.00  0.00     0.090 H 
ENDROOT
BRANCH   1  12
ATOM     12  O1  MMA d          -7.368 -17.262  -4.831  0.00  0.00    -0.363 OA
BRANCH  12  13
ATOM     13  C7  MMA d          -7.718 -16.084  -5.587  0.00  0.00     0.007 C 
ATOM     14  H8  MMA d          -7.152 -16.072  -6.529  0.00  0.00     0.066 H 
ATOM     15  H9  MMA d          -7.474 -15.186  -5.000  0.00  0.00     0.066 H 
ATOM     16  H10 MMA d          -8.796 -16.098  -5.807  0.00  0.00     0.066 H 
ENDBRANCH  12  13
ENDBRANCH   1  12
BRANCH   2  17
ATOM     17  O2  MMA d          -4.917 -15.420  -2.834  0.00  0.00    -0.388 OA
ATOM     18  H11 MMA d          -3.978 -15.340  -2.959  0.00  0.00     0.210 HD
ENDBRANCH   2  17
BRANCH   3  19
ATOM     19  O3  MMA d          -3.283 -15.823  -4.959  0.00  0.00    -0.390 OA
ATOM     20  H12 MMA d          -3.571 -14.940  -5.163  0.00  0.00     0.210 HD
ENDBRANCH   3  19
BRANCH   5  21
ATOM     21  C6  MMA d          -4.873 -20.199  -3.333  0.00  0.00     0.043 C 
ATOM     22  H6  MMA d          -4.869 -20.967  -4.122  0.00  0.00     0.078 H 
ATOM     23  H7  MMA d          -5.617 -20.465  -2.568  0.00  0.00     0.078 H 
BRANCH  21  24
ATOM     24  O6  MMA d          -3.560 -20.092  -2.735  0.00  0.00    -0.398 OA
ATOM     25  H14 MMA d          -3.644 -20.076  -1.788  0.00  0.00     0.209 HD
ENDBRANCH  21  24
ENDBRANCH   5  21
BRANCH   4  26
ATOM     26  O4  MMA d          -2.907 -18.593  -4.853  0.00  0.00    -0.390 OA
ATOM     27  H13 MMA d          -2.066 -18.319  -4.506  0.00  0.00     0.210 HD
ENDBRANCH   4  26
TORSDOF 7
ENDMDL
MODEL 8
REMARK VINA RESULT:      -4.3      2.023      4.314
REMARK  7 active torsions:
REMARK  status: ('A' for Active; 'I' for Inactive)
REMARK    1  A    between atoms: C1_1  and  O1_8 
REMARK    2  A    between atoms: C2_2  and  O2_9 
REMARK    3  A    between atoms: C3_3  and  O3_10 
REMARK    4  A    between atoms: C4_4  and  O4_11 
REMARK    5  A    between atoms: C5_5  and  C6_6 
REMARK    6  A    between atoms: C6_6  and  O6_13 
REMARK    7  A    between atoms: O1_8  and  C7_7 
ROOT
ATOM      1  C1  MMA d          -7.305 -17.380  -3.793  0.00  0.00     0.158 C 
ATOM      2  C2  MMA d          -7.556 -18.109  -5.125  0.00  0.00     0.110 C 
ATOM      3  C3  MMA d          -6.329 -18.912  -5.560  0.00  0.00     0.092 C 
ATOM      4  C4  MMA d          -5.078 -18.033  -5.545  0.00  0.00     0.090 C 
ATOM      5  C5  MMA d          -4.924 -17.514  -4.120  0.00  0.00     0.089 C 
ATOM      6  O5  MMA d          -6.058 -16.677  -3.821  0.00  0.00    -0.349 OA
ATOM      7  H1  MMA d          -8.124 -16.672  -3.596  0.00  0.00     0.133 H 
ATOM      8  H2  MMA d          -8.408 -18.793  -5.001  0.00  0.00     0.094 H 
ATOM      9  H3  MMA d          -6.192 -19.772  -4.888  0.00  0.00     0.091 H 
ATOM     10  H4  MMA d          -5.222 -17.178  -6.223  0.00  0.00     0.091 H 
ATOM     11  H5  MMA d          -4.916 -18.374  -3.434  0.00  0.00     0.090 H 
ENDROOT
BRANCH   1  12
ATOM     12  O1  MMA d          -7.247 -18.370  -2.763  0.00  0.00    -0.363 OA
BRANCH  12  13
ATOM     13  C7  MMA d          -8.405 -19.230  -2.783  0.00  0.00     0.007 C 
ATOM     14  H8  MMA d          -8.810 -19.276  -3.804  0.00  0.00     0.066 H 
ATOM     15  H9  MMA d          -9.170 -18.830  -2.103  0.00  0.00     0.066 H 
ATOM     16  H10 MMA d          -8.116 -20.241  -2.458  0.00  0.00     0.066 H 
ENDBRANCH  12  13
ENDBRANCH   1  12
BRANCH   2  17
ATOM     17  O2  MMA d          -7.861 -17.139  -6.154  0.00  0.00    -0.388 OA
ATOM     18  H11 MMA d          -7.755 -17.541  -7.008  0.00  0.00     0.210 HD
ENDBRANCH   2  17
BRANCH   3  19
ATOM     19  O3  MMA d          -6.512 -19.363  -6.917  0.00  0.00    -0.390 OA
ATOM     20  H12 MMA d          -6.921 -20.221  -6.912  0.00  0.00     0.210 HD
ENDBRANCH   3  19
BRANCH   5  21
ATOM     21  C6  MMA d          -3.633 -16.719  -3.909  0.00  0.00     0.043 C 
ATOM     22  H6  MMA d          -3.302 -16.273  -4.859  0.00  0.00     0.078 H 
ATOM     23  H7  MMA d          -2.842 -17.376  -3.518  0.00  0.00     0.078 H 
BRANCH  21  24
ATOM     24  O6  MMA d          -3.936 -15.679  -2.949  0.00  0.00    -0.398 OA
ATOM     25  H14 MMA d          -4.520 -15.043  -3.346  0.00  0.00     0.209 HD
ENDBRANCH  21  24
ENDBRANCH   5  21
BRANCH   4  26
ATOM     26  O4  MMA d          -3.930 -18.787  -6.004  0.00  0.00    -0.390 OA
ATOM     27  H13 MMA d          -3.177 -18.211  -6.059  0.00  0.00     0.210 HD
ENDBRANCH   4  26
TORSDOF 7
ENDMDL
MODEL 9
REMARK VINA RESULT:      -4.0      1.561      4.220
REMARK  7 active torsions:
REMARK  status: ('A' for Active; 'I' for Inactive)
REMARK    1  A    between atoms: C1_1  and  O1_8 
REMARK    2  A    between atoms: C2_2  and  O2_9 
REMARK    3  A    between atoms: C3_3  and  O3_10 
REMARK    4  A    between atoms: C4_4  and  O4_11 
REMARK    5  A    between atoms: C5_5  and  C6_6 
REMARK    6  A    between atoms: C6_6  and  O6_13 
REMARK    7  A    between atoms: O1_8  and  C7_7 
ROOT
ATOM      1  C1  MMA d          -5.865 -15.699  -4.831  0.00  0.00     0.158 C 
ATOM      2  C2  MMA d          -7.127 -16.251  -5.516  0.00  0.00     0.110 C 
ATOM      3  C3  MMA d          -7.083 -17.776  -5.621  0.00  0.00     0.092 C 
ATOM      4  C4  MMA d          -5.769 -18.234  -6.254  0.00  0.00     0.090 C 
ATOM      5  C5  MMA d          -4.648 -17.707  -5.365  0.00  0.00     0.089 C 
ATOM      6  O5  MMA d          -4.682 -16.267  -5.405  0.00  0.00    -0.349 OA
ATOM      7  H1  MMA d          -5.835 -14.604  -4.931  0.00  0.00     0.133 H 
ATOM      8  H2  MMA d          -8.009 -15.956  -4.928  0.00  0.00     0.094 H 
ATOM      9  H3  MMA d          -7.193 -18.219  -4.620  0.00  0.00     0.091 H 
ATOM     10  H4  MMA d          -5.669 -17.790  -7.255  0.00  0.00     0.091 H 
ATOM     11  H5  MMA d          -4.830 -18.046  -4.335  0.00  0.00     0.090 H 
ENDROOT
BRANCH   1  12
ATOM     12  O1  MMA d          -5.924 -16.070  -3.452  0.00  0.00    -0.363 OA
BRANCH  12  13
ATOM     13  C7  MMA d          -7.280 -16.074  -2.958  0.00  0.00     0.007 C 
ATOM     14  H8  MMA d          -7.749 -15.102  -3.166  0.00  0.00     0.066 H 
ATOM     15  H9  MMA d          -7.274 -16.254  -1.873  0.00  0.00     0.066 H 
ATOM     16  H10 MMA d          -7.850 -16.871  -3.459  0.00  0.00     0.066 H 
ENDBRANCH  12  13
ENDBRANCH   1  12
BRANCH   2  17
ATOM     17  O2  MMA d          -7.231 -15.699  -6.849  0.00  0.00    -0.388 OA
ATOM     18  H11 MMA d          -7.498 -16.383  -7.454  0.00  0.00     0.210 HD
ENDBRANCH   2  17
BRANCH   3  19
ATOM     19  O3  MMA d          -8.147 -18.225  -6.485  0.00  0.00    -0.390 OA
ATOM     20  H12 MMA d          -8.909 -18.443  -5.960  0.00  0.00     0.210 HD
ENDBRANCH   3  19
BRANCH   5  21
ATOM     21  C6  MMA d          -3.263 -18.197  -5.795  0.00  0.00     0.043 C 
ATOM     22  H6  MMA d          -3.160 -19.273  -5.588  0.00  0.00     0.078 H 
ATOM     23  H7  MMA d          -2.481 -17.644  -5.254  0.00  0.00     0.078 H 
BRANCH  21  24
ATOM     24  O6  MMA d          -3.155 -17.950  -7.217  0.00  0.00    -0.398 OA
ATOM     25  H14 MMA d          -2.263 -17.698  -7.427  0.00  0.00     0.209 HD
ENDBRANCH  21  24
ENDBRANCH   5  21
BRANCH   4  26
ATOM     26  O4  MMA d          -5.755 -19.675  -6.393  0.00  0.00    -0.390 OA
ATOM     27  H13 MMA d          -4.945 -20.018  -6.035  0.00  0.00     0.210 HD
ENDBRANCH   4  26
TORSDOF 7
ENDMDL
MODEL 10
REMARK VINA RESULT:      -3.8      1.850      2.648
REMARK  7 active torsions:
REMARK  status: ('A' for Active; 'I' for Inactive)
REMARK    1  A    between atoms: C1_1  and  O1_8 
REMARK    2  A    between atoms: C2_2  and  O2_9 
REMARK    3  A    between atoms: C3_3  and  O3_10 
REMARK    4  A    between atoms: C4_4  and  O4_11 
REMARK    5  A    between atoms: C5_5  and  C6_6 
REMARK    6  A    between atoms: C6_6  and  O6_13 
REMARK    7  A    between atoms: O1_8  and  C7_7 
ROOT
ATOM      1  C1  MMA d          -4.209 -17.150  -4.578  0.00  0.00     0.158 C 
ATOM      2  C2  MMA d          -5.114 -16.119  -3.882  0.00  0.00     0.110 C 
ATOM      3  C3  MMA d          -6.470 -16.726  -3.515  0.00  0.00     0.092 C 
ATOM      4  C4  MMA d          -7.102 -17.403  -4.730  0.00  0.00     0.090 C 
ATOM      5  C5  MMA d          -6.122 -18.476  -5.193  0.00  0.00     0.089 C 
ATOM      6  O5  MMA d          -4.913 -17.823  -5.627  0.00  0.00    -0.349 OA
ATOM      7  H1  MMA d          -3.321 -16.647  -4.991  0.00  0.00     0.133 H 
ATOM      8  H2  MMA d          -4.616 -15.771  -2.965  0.00  0.00     0.094 H 
ATOM      9  H3  MMA d          -6.340 -17.456  -2.702  0.00  0.00     0.091 H 
ATOM     10  H4  MMA d          -7.231 -16.666  -5.536  0.00  0.00     0.091 H 
ATOM     11  H5  MMA d          -5.894 -19.132  -4.341  0.00  0.00     0.090 H 
ENDROOT
BRANCH   1  12
ATOM     12  O1  MMA d          -3.821 -18.116  -3.599  0.00  0.00    -0.363 OA
BRANCH  12  13
ATOM     13  C7  MMA d          -2.834 -19.033  -4.115  0.00  0.00     0.007 C 
ATOM     14  H8  MMA d          -1.900 -18.490  -4.319  0.00  0.00     0.066 H 
ATOM     15  H9  MMA d          -3.206 -19.484  -5.047  0.00  0.00     0.066 H 
ATOM     16  H10 MMA d          -2.645 -19.824  -3.374  0.00  0.00     0.066 H 
ENDBRANCH  12  13
ENDBRANCH   1  12
BRANCH   2  17
ATOM     17  O2  MMA d          -5.335 -14.997  -4.767  0.00  0.00    -0.388 OA
ATOM     18  H11 MMA d          -4.497 -14.650  -5.052  0.00  0.00     0.210 HD
ENDBRANCH   2  17
BRANCH   3  19
ATOM     19  O3  MMA d          -7.366 -15.674  -3.104  0.00  0.00    -0.390 OA
ATOM     20  H12 MMA d          -8.131 -15.672  -3.668  0.00  0.00     0.210 HD
ENDBRANCH   3  19
BRANCH   5  21
ATOM     21  C6  MMA d          -6.673 -19.340  -6.331  0.00  0.00     0.043 C 
ATOM     22  H6  MMA d          -7.219 -18.713  -7.052  0.00  0.00     0.078 H 
ATOM     23  H7  MMA d          -7.348 -20.109  -5.930  0.00  0.00     0.078 H 
BRANCH  21  24
ATOM     24  O6  MMA d          -5.534 -19.960  -6.973  0.00  0.00    -0.398 OA
ATOM     25  H14 MMA d          -5.101 -20.540  -6.356  0.00  0.00     0.209 HD
ENDBRANCH  21  24
ENDBRANCH   5  21
BRANCH   4  26
ATOM     26  O4  MMA d          -8.405 -17.932  -4.388  0.00  0.00    -0.390 OA
ATOM     27  H13 MMA d          -8.682 -17.573  -3.553  0.00  0.00     0.210 HD
ENDBRANCH   4  26
TORSDOF 7
ENDMDL
