MODEL 1
REMARK VINA RESULT:      -6.1      0.000      0.000
REMARK  8 active torsions:
REMARK  status: ('A' for Active; 'I' for Inactive)
REMARK    1  A    between atoms: C1_1  and  O7_7 
REMARK    2  A    between atoms: C2_2  and  O16_14 
REMARK    3  A    between atoms: C14_12  and  C4_4 
REMARK    4  A    between atoms: C10_9  and  C9_8 
REMARK    5  A    between atoms: N3_15  and  C10_9 
REMARK    6  A    between atoms: C12_10  and  C13_11 
REMARK    7  A    between atoms: N3_15  and  C12_10 
REMARK       I    between atoms: C14_12  and  N3_15 
REMARK    8  A    between atoms: O16_14  and  C15_16 
ROOT
ATOM      1  C14 MOL d          64.652  35.459  24.181  0.00  0.00     0.253 C 
ATOM      2  O15 MOL d          64.241  34.976  23.150  0.00  0.00    -0.267 OA
ATOM      3  N3  MOL d          65.142  36.732  24.259  0.00  0.00    -0.349 N 
ENDROOT
BRANCH   1   4
ATOM      4  C4  MOL d          64.687  34.632  25.421  0.00  0.00     0.035 A 
ATOM      5  C3  MOL d          65.908  34.204  25.921  0.00  0.00    -0.033 A 
ATOM      6  C2  MOL d          65.985  33.421  27.050  0.00  0.00     0.102 A 
ATOM      7  H1  MOL d          66.820  34.493  25.412  0.00  0.00     0.089 H 
ATOM      8  C1  MOL d          64.813  33.066  27.725  0.00  0.00     0.099 A 
ATOM      9  C6  MOL d          63.572  33.495  27.229  0.00  0.00    -0.047 A 
ATOM     10  C5  MOL d          63.510  34.273  26.088  0.00  0.00    -0.065 A 
ATOM     11  H3  MOL d          62.659  33.216  27.743  0.00  0.00     0.087 H 
ATOM     12  H2  MOL d          62.550  34.605  25.709  0.00  0.00     0.085 H 
BRANCH   6  13
ATOM     13  O16 MOL d          67.166  32.977  27.586  0.00  0.00    -0.353 OA
BRANCH  13  14
ATOM     14  C15 MOL d          68.391  33.581  27.092  0.00  0.00     0.010 C 
ATOM     15  H15 MOL d          68.763  34.309  27.828  0.00  0.00     0.066 H 
ATOM     16  H16 MOL d          68.189  34.093  26.140  0.00  0.00     0.066 H 
ATOM     17  H17 MOL d          69.148  32.799  26.935  0.00  0.00     0.066 H 
ENDBRANCH  13  14
ENDBRANCH   6  13
BRANCH   8  18
ATOM     18  O7  MOL d          64.892  32.315  28.859  0.00  0.00    -0.358 OA
ATOM     19  H4  MOL d          65.747  32.432  29.256  0.00  0.00     0.217 HD
ENDBRANCH   8  18
ENDBRANCH   1   4
BRANCH   3  20
ATOM     20  C10 MOL d          65.260  37.425  25.558  0.00  0.00    -0.005 C 
ATOM     21  H8  MOL d          64.475  37.049  26.231  0.00  0.00     0.063 H 
ATOM     22  H9  MOL d          66.248  37.206  25.987  0.00  0.00     0.063 H 
BRANCH  20  23
ATOM     23  C9  MOL d          65.109  38.925  25.426  0.00  0.00    -0.061 C 
ATOM     24  H5  MOL d          65.218  39.213  24.370  0.00  0.00     0.029 H 
ATOM     25  H6  MOL d          65.885  39.425  26.025  0.00  0.00     0.029 H 
ATOM     26  H7  MOL d          64.116  39.227  25.788  0.00  0.00     0.029 H 
ENDBRANCH  20  23
ENDBRANCH   3  20
BRANCH   3  27
ATOM     27  C12 MOL d          65.378  37.549  23.069  0.00  0.00    -0.005 C 
ATOM     28  H10 MOL d          64.722  37.195  22.260  0.00  0.00     0.063 H 
ATOM     29  H11 MOL d          65.139  38.597  23.304  0.00  0.00     0.063 H 
BRANCH  27  30
ATOM     30  C13 MOL d          66.821  37.465  22.605  0.00  0.00    -0.061 C 
ATOM     31  H12 MOL d          67.382  38.325  22.997  0.00  0.00     0.029 H 
ATOM     32  H13 MOL d          66.853  37.477  21.505  0.00  0.00     0.029 H 
ATOM     33  H14 MOL d          67.272  36.533  22.975  0.00  0.00     0.029 H 
ENDBRANCH  27  30
ENDBRANCH   3  27
TORSDOF 8
ENDMDL
MODEL 2
REMARK VINA RESULT:      -5.7      0.844      2.228
REMARK  8 active torsions:
REMARK  status: ('A' for Active; 'I' for Inactive)
REMARK    1  A    between atoms: C1_1  and  O7_7 
REMARK    2  A    between atoms: C2_2  and  O16_14 
REMARK    3  A    between atoms: C14_12  and  C4_4 
REMARK    4  A    between atoms: C10_9  and  C9_8 
REMARK    5  A    between atoms: N3_15  and  C10_9 
REMARK    6  A    between atoms: C12_10  and  C13_11 
REMARK    7  A    between atoms: N3_15  and  C12_10 
REMARK       I    between atoms: C14_12  and  N3_15 
REMARK    8  A    between atoms: O16_14  and  C15_16 
ROOT
ATOM      1  C14 MOL d          64.725  35.484  24.102  0.00  0.00     0.253 C 
ATOM      2  O15 MOL d          64.081  34.991  23.204  0.00  0.00    -0.267 OA
ATOM      3  N3  MOL d          65.227  36.753  24.046  0.00  0.00    -0.349 N 
ENDROOT
BRANCH   1   4
ATOM      4  C4  MOL d          65.048  34.670  25.309  0.00  0.00     0.035 A 
ATOM      5  C3  MOL d          64.032  34.315  26.185  0.00  0.00    -0.033 A 
ATOM      6  C2  MOL d          64.288  33.584  27.322  0.00  0.00     0.102 A 
ATOM      7  H1  MOL d          63.015  34.620  25.968  0.00  0.00     0.089 H 
ATOM      8  C1  MOL d          65.596  33.167  27.594  0.00  0.00     0.099 A 
ATOM      9  C6  MOL d          66.631  33.518  26.714  0.00  0.00    -0.047 A 
ATOM     10  C5  MOL d          66.359  34.262  25.580  0.00  0.00    -0.065 A 
ATOM     11  H3  MOL d          67.648  33.205  26.923  0.00  0.00     0.087 H 
ATOM     12  H2  MOL d          67.161  34.529  24.902  0.00  0.00     0.085 H 
BRANCH   6  13
ATOM     13  O16 MOL d          63.320  33.205  28.215  0.00  0.00    -0.353 OA
BRANCH  13  14
ATOM     14  C15 MOL d          62.557  32.010  27.903  0.00  0.00     0.010 C 
ATOM     15  H15 MOL d          62.898  31.180  28.539  0.00  0.00     0.066 H 
ATOM     16  H16 MOL d          62.705  31.746  26.845  0.00  0.00     0.066 H 
ATOM     17  H17 MOL d          61.489  32.198  28.088  0.00  0.00     0.066 H 
ENDBRANCH  13  14
ENDBRANCH   6  13
BRANCH   8  18
ATOM     18  O7  MOL d          65.844  32.417  28.704  0.00  0.00    -0.358 OA
ATOM     19  H4  MOL d          65.915  32.988  29.461  0.00  0.00     0.217 HD
ENDBRANCH   8  18
ENDBRANCH   1   4
BRANCH   3  20
ATOM     20  C10 MOL d          65.650  37.460  25.272  0.00  0.00    -0.005 C 
ATOM     21  H8  MOL d          65.309  36.887  26.146  0.00  0.00     0.063 H 
ATOM     22  H9  MOL d          66.748  37.525  25.280  0.00  0.00     0.063 H 
BRANCH  20  23
ATOM     23  C9  MOL d          65.080  38.859  25.356  0.00  0.00    -0.061 C 
ATOM     24  H5  MOL d          64.167  38.846  25.971  0.00  0.00     0.029 H 
ATOM     25  H6  MOL d          64.837  39.217  24.346  0.00  0.00     0.029 H 
ATOM     26  H7  MOL d          65.821  39.530  25.815  0.00  0.00     0.029 H 
ENDBRANCH  20  23
ENDBRANCH   3  20
BRANCH   3  27
ATOM     27  C12 MOL d          65.178  37.555  22.824  0.00  0.00    -0.005 C 
ATOM     28  H10 MOL d          64.489  37.077  22.112  0.00  0.00     0.063 H 
ATOM     29  H11 MOL d          64.810  38.562  23.073  0.00  0.00     0.063 H 
BRANCH  27  30
ATOM     30  C13 MOL d          66.546  37.678  22.177  0.00  0.00    -0.061 C 
ATOM     31  H12 MOL d          67.164  38.378  22.757  0.00  0.00     0.029 H 
ATOM     32  H13 MOL d          66.432  38.054  21.149  0.00  0.00     0.029 H 
ATOM     33  H14 MOL d          67.032  36.691  22.155  0.00  0.00     0.029 H 
ENDBRANCH  27  30
ENDBRANCH   3  27
TORSDOF 8
ENDMDL
MODEL 3
REMARK VINA RESULT:      -5.2      2.551      5.589
REMARK  8 active torsions:
REMARK  status: ('A' for Active; 'I' for Inactive)
REMARK    1  A    between atoms: C1_1  and  O7_7 
REMARK    2  A    between atoms: C2_2  and  O16_14 
REMARK    3  A    between atoms: C14_12  and  C4_4 
REMARK    4  A    between atoms: C10_9  and  C9_8 
REMARK    5  A    between atoms: N3_15  and  C10_9 
REMARK    6  A    between atoms: C12_10  and  C13_11 
REMARK    7  A    between atoms: N3_15  and  C12_10 
REMARK       I    between atoms: C14_12  and  N3_15 
REMARK    8  A    between atoms: O16_14  and  C15_16 
ROOT
ATOM      1  C14 MOL d          66.847  34.231  26.909  0.00  0.00     0.253 C 
ATOM      2  O15 MOL d          67.710  33.538  27.397  0.00  0.00    -0.267 OA
ATOM      3  N3  MOL d          65.534  33.859  26.866  0.00  0.00    -0.349 N 
ENDROOT
BRANCH   1   4
ATOM      4  C4  MOL d          67.216  35.527  26.270  0.00  0.00     0.035 A 
ATOM      5  C3  MOL d          66.840  35.771  24.957  0.00  0.00    -0.033 A 
ATOM      6  C2  MOL d          67.177  36.943  24.321  0.00  0.00     0.102 A 
ATOM      7  H1  MOL d          66.267  35.022  24.421  0.00  0.00     0.089 H 
ATOM      8  C1  MOL d          67.894  37.923  25.016  0.00  0.00     0.099 A 
ATOM      9  C6  MOL d          68.278  37.688  26.345  0.00  0.00    -0.047 A 
ATOM     10  C5  MOL d          67.940  36.500  26.967  0.00  0.00    -0.065 A 
ATOM     11  H3  MOL d          68.841  38.440  26.886  0.00  0.00     0.087 H 
ATOM     12  H2  MOL d          68.235  36.323  27.994  0.00  0.00     0.085 H 
BRANCH   6  13
ATOM     13  O16 MOL d          66.827  37.234  23.028  0.00  0.00    -0.353 OA
BRANCH  13  14
ATOM     14  C15 MOL d          65.409  37.295  22.720  0.00  0.00     0.010 C 
ATOM     15  H15 MOL d          65.185  36.612  21.887  0.00  0.00     0.066 H 
ATOM     16  H16 MOL d          65.139  38.322  22.434  0.00  0.00     0.066 H 
ATOM     17  H17 MOL d          64.828  36.996  23.605  0.00  0.00     0.066 H 
ENDBRANCH  13  14
ENDBRANCH   6  13
BRANCH   8  18
ATOM     18  O7  MOL d          68.203  39.096  24.395  0.00  0.00    -0.358 OA
ATOM     19  H4  MOL d          67.463  39.689  24.456  0.00  0.00     0.217 HD
ENDBRANCH   8  18
ENDBRANCH   1   4
BRANCH   3  20
ATOM     20  C10 MOL d          64.466  34.854  26.640  0.00  0.00    -0.005 C 
ATOM     21  H8  MOL d          63.937  35.025  27.589  0.00  0.00     0.063 H 
ATOM     22  H9  MOL d          64.926  35.794  26.301  0.00  0.00     0.063 H 
BRANCH  20  23
ATOM     23  C9  MOL d          63.465  34.401  25.601  0.00  0.00    -0.061 C 
ATOM     24  H5  MOL d          63.403  35.152  24.799  0.00  0.00     0.029 H 
ATOM     25  H6  MOL d          62.477  34.283  26.070  0.00  0.00     0.029 H 
ATOM     26  H7  MOL d          63.787  33.438  25.177  0.00  0.00     0.029 H 
ENDBRANCH  20  23
ENDBRANCH   3  20
BRANCH   3  27
ATOM     27  C12 MOL d          65.093  32.516  27.244  0.00  0.00    -0.005 C 
ATOM     28  H10 MOL d          64.290  32.200  26.562  0.00  0.00     0.063 H 
ATOM     29  H11 MOL d          65.944  31.824  27.155  0.00  0.00     0.063 H 
BRANCH  27  30
ATOM     30  C13 MOL d          64.572  32.476  28.669  0.00  0.00    -0.061 C 
ATOM     31  H12 MOL d          64.573  33.492  29.089  0.00  0.00     0.029 H 
ATOM     32  H13 MOL d          65.219  31.827  29.278  0.00  0.00     0.029 H 
ATOM     33  H14 MOL d          63.546  32.079  28.674  0.00  0.00     0.029 H 
ENDBRANCH  27  30
ENDBRANCH   3  27
TORSDOF 8
ENDMDL
MODEL 4
REMARK VINA RESULT:      -5.1      1.560      2.032
REMARK  8 active torsions:
REMARK  status: ('A' for Active; 'I' for Inactive)
REMARK    1  A    between atoms: C1_1  and  O7_7 
REMARK    2  A    between atoms: C2_2  and  O16_14 
REMARK    3  A    between atoms: C14_12  and  C4_4 
REMARK    4  A    between atoms: C10_9  and  C9_8 
REMARK    5  A    between atoms: N3_15  and  C10_9 
REMARK    6  A    between atoms: C12_10  and  C13_11 
REMARK    7  A    between atoms: N3_15  and  C12_10 
REMARK       I    between atoms: C14_12  and  N3_15 
REMARK    8  A    between atoms: O16_14  and  C15_16 
ROOT
ATOM      1  C14 MOL d          65.267  37.210  25.554  0.00  0.00     0.253 C 
ATOM      2  O15 MOL d          65.442  38.152  26.294  0.00  0.00    -0.267 OA
ATOM      3  N3  MOL d          65.130  37.346  24.201  0.00  0.00    -0.349 N 
ENDROOT
BRANCH   1   4
ATOM      4  C4  MOL d          65.134  35.839  26.124  0.00  0.00     0.035 A 
ATOM      5  C3  MOL d          66.267  35.170  26.565  0.00  0.00    -0.033 A 
ATOM      6  C2  MOL d          66.193  33.896  27.077  0.00  0.00     0.102 A 
ATOM      7  H1  MOL d          67.231  35.663  26.504  0.00  0.00     0.089 H 
ATOM      8  C1  MOL d          64.949  33.265  27.181  0.00  0.00     0.099 A 
ATOM      9  C6  MOL d          63.796  33.933  26.741  0.00  0.00    -0.047 A 
ATOM     10  C5  MOL d          63.888  35.210  26.218  0.00  0.00    -0.065 A 
ATOM     11  H3  MOL d          62.830  33.446  26.810  0.00  0.00     0.087 H 
ATOM     12  H2  MOL d          62.995  35.723  25.882  0.00  0.00     0.085 H 
BRANCH   6  13
ATOM     13  O16 MOL d          67.281  33.195  27.529  0.00  0.00    -0.353 OA
BRANCH  13  14
ATOM     14  C15 MOL d          68.061  32.467  26.544  0.00  0.00     0.010 C 
ATOM     15  H15 MOL d          69.132  32.571  26.775  0.00  0.00     0.066 H 
ATOM     16  H16 MOL d          67.861  32.877  25.543  0.00  0.00     0.066 H 
ATOM     17  H17 MOL d          67.783  31.404  26.567  0.00  0.00     0.066 H 
ENDBRANCH  13  14
ENDBRANCH   6  13
BRANCH   8  18
ATOM     18  O7  MOL d          64.872  32.014  27.716  0.00  0.00    -0.358 OA
ATOM     19  H4  MOL d          65.476  31.946  28.446  0.00  0.00     0.217 HD
ENDBRANCH   8  18
ENDBRANCH   1   4
BRANCH   3  20
ATOM     20  C10 MOL d          65.316  36.193  23.297  0.00  0.00    -0.005 C 
ATOM     21  H8  MOL d          65.901  36.519  22.425  0.00  0.00     0.063 H 
ATOM     22  H9  MOL d          65.867  35.407  23.835  0.00  0.00     0.063 H 
BRANCH  20  23
ATOM     23  C9  MOL d          64.002  35.621  22.814  0.00  0.00    -0.061 C 
ATOM     24  H5  MOL d          63.721  36.099  21.863  0.00  0.00     0.029 H 
ATOM     25  H6  MOL d          63.221  35.812  23.565  0.00  0.00     0.029 H 
ATOM     26  H7  MOL d          64.107  34.537  22.662  0.00  0.00     0.029 H 
ENDBRANCH  20  23
ENDBRANCH   3  20
BRANCH   3  27
ATOM     27  C12 MOL d          65.005  38.654  23.560  0.00  0.00    -0.005 C 
ATOM     28  H10 MOL d          63.940  38.867  23.391  0.00  0.00     0.063 H 
ATOM     29  H11 MOL d          65.432  39.419  24.225  0.00  0.00     0.063 H 
BRANCH  27  30
ATOM     30  C13 MOL d          65.732  38.699  22.228  0.00  0.00    -0.061 C 
ATOM     31  H12 MOL d          65.559  39.673  21.749  0.00  0.00     0.029 H 
ATOM     32  H13 MOL d          65.353  37.898  21.576  0.00  0.00     0.029 H 
ATOM     33  H14 MOL d          66.811  38.559  22.393  0.00  0.00     0.029 H 
ENDBRANCH  27  30
ENDBRANCH   3  27
TORSDOF 8
ENDMDL
MODEL 5
REMARK VINA RESULT:      -4.7      2.838      4.784
REMARK  8 active torsions:
REMARK  status: ('A' for Active; 'I' for Inactive)
REMARK    1  A    between atoms: C1_1  and  O7_7 
REMARK    2  A    between atoms: C2_2  and  O16_14 
REMARK    3  A    between atoms: C14_12  and  C4_4 
REMARK    4  A    between atoms: C10_9  and  C9_8 
REMARK    5  A    between atoms: N3_15  and  C10_9 
REMARK    6  A    between atoms: C12_10  and  C13_11 
REMARK    7  A    between atoms: N3_15  and  C12_10 
REMARK       I    between atoms: C14_12  and  N3_15 
REMARK    8  A    between atoms: O16_14  and  C15_16 
ROOT
ATOM      1  C14 MOL d          66.493  38.066  26.958  0.00  0.00     0.253 C 
ATOM      2  O15 MOL d          65.809  38.767  27.668  0.00  0.00    -0.267 OA
ATOM      3  N3  MOL d          67.854  38.015  27.056  0.00  0.00    -0.349 N 
ENDROOT
BRANCH   1   4
ATOM      4  C4  MOL d          65.850  37.256  25.884  0.00  0.00     0.035 A 
ATOM      5  C3  MOL d          65.143  36.111  26.222  0.00  0.00    -0.033 A 
ATOM      6  C2  MOL d          64.553  35.322  25.262  0.00  0.00     0.102 A 
ATOM      7  H1  MOL d          65.053  35.833  27.266  0.00  0.00     0.089 H 
ATOM      8  C1  MOL d          64.645  35.690  23.916  0.00  0.00     0.099 A 
ATOM      9  C6  MOL d          65.355  36.847  23.561  0.00  0.00    -0.047 A 
ATOM     10  C5  MOL d          65.951  37.624  24.538  0.00  0.00    -0.065 A 
ATOM     11  H3  MOL d          65.437  37.133  22.519  0.00  0.00     0.087 H 
ATOM     12  H2  MOL d          66.497  38.518  24.261  0.00  0.00     0.085 H 
BRANCH   6  13
ATOM     13  O16 MOL d          63.841  34.186  25.545  0.00  0.00    -0.353 OA
BRANCH  13  14
ATOM     14  C15 MOL d          63.686  33.828  26.944  0.00  0.00     0.010 C 
ATOM     15  H15 MOL d          62.665  33.456  27.117  0.00  0.00     0.066 H 
ATOM     16  H16 MOL d          63.864  34.714  27.571  0.00  0.00     0.066 H 
ATOM     17  H17 MOL d          64.411  33.043  27.204  0.00  0.00     0.066 H 
ENDBRANCH  13  14
ENDBRANCH   6  13
BRANCH   8  18
ATOM     18  O7  MOL d          64.034  34.925  22.967  0.00  0.00    -0.358 OA
ATOM     19  H4  MOL d          64.692  34.438  22.484  0.00  0.00     0.217 HD
ENDBRANCH   8  18
ENDBRANCH   1   4
BRANCH   3  20
ATOM     20  C10 MOL d          68.619  36.891  26.477  0.00  0.00    -0.005 C 
ATOM     21  H8  MOL d          68.248  36.699  25.459  0.00  0.00     0.063 H 
ATOM     22  H9  MOL d          69.681  37.172  26.434  0.00  0.00     0.063 H 
BRANCH  20  23
ATOM     23  C9  MOL d          68.485  35.623  27.290  0.00  0.00    -0.061 C 
ATOM     24  H5  MOL d          69.372  35.502  27.930  0.00  0.00     0.029 H 
ATOM     25  H6  MOL d          68.401  34.760  26.612  0.00  0.00     0.029 H 
ATOM     26  H7  MOL d          67.585  35.684  27.919  0.00  0.00     0.029 H 
ENDBRANCH  20  23
ENDBRANCH   3  20
BRANCH   3  27
ATOM     27  C12 MOL d          68.608  38.936  27.905  0.00  0.00    -0.005 C 
ATOM     28  H10 MOL d          69.429  39.371  27.317  0.00  0.00     0.063 H 
ATOM     29  H11 MOL d          67.935  39.738  28.245  0.00  0.00     0.063 H 
BRANCH  27  30
ATOM     30  C13 MOL d          69.191  38.235  29.119  0.00  0.00    -0.061 C 
ATOM     31  H12 MOL d          69.027  38.854  30.013  0.00  0.00     0.029 H 
ATOM     32  H13 MOL d          70.270  38.083  28.971  0.00  0.00     0.029 H 
ATOM     33  H14 MOL d          68.697  37.261  29.252  0.00  0.00     0.029 H 
ENDBRANCH  27  30
ENDBRANCH   3  27
TORSDOF 8
ENDMDL
MODEL 6
REMARK VINA RESULT:      -4.6      1.891      3.139
REMARK  8 active torsions:
REMARK  status: ('A' for Active; 'I' for Inactive)
REMARK    1  A    between atoms: C1_1  and  O7_7 
REMARK    2  A    between atoms: C2_2  and  O16_14 
REMARK    3  A    between atoms: C14_12  and  C4_4 
REMARK    4  A    between atoms: C10_9  and  C9_8 
REMARK    5  A    between atoms: N3_15  and  C10_9 
REMARK    6  A    between atoms: C12_10  and  C13_11 
REMARK    7  A    between atoms: N3_15  and  C12_10 
REMARK       I    between atoms: C14_12  and  N3_15 
REMARK    8  A    between atoms: O16_14  and  C15_16 
ROOT
ATOM      1  C14 MOL d          65.904  37.470  26.176  0.00  0.00     0.253 C 
ATOM      2  O15 MOL d          65.898  38.269  27.085  0.00  0.00    -0.267 OA
ATOM      3  N3  MOL d          65.615  37.812  24.886  0.00  0.00    -0.349 N 
ENDROOT
BRANCH   1   4
ATOM      4  C4  MOL d          66.178  36.032  26.461  0.00  0.00     0.035 A 
ATOM      5  C3  MOL d          65.121  35.137  26.534  0.00  0.00    -0.033 A 
ATOM      6  C2  MOL d          65.326  33.806  26.816  0.00  0.00     0.102 A 
ATOM      7  H1  MOL d          64.111  35.494  26.366  0.00  0.00     0.089 H 
ATOM      8  C1  MOL d          66.629  33.335  27.009  0.00  0.00     0.099 A 
ATOM      9  C6  MOL d          67.707  34.231  26.935  0.00  0.00    -0.047 A 
ATOM     10  C5  MOL d          67.483  35.568  26.661  0.00  0.00    -0.065 A 
ATOM     11  H3  MOL d          68.718  33.874  27.093  0.00  0.00     0.087 H 
ATOM     12  H2  MOL d          68.318  36.256  26.602  0.00  0.00     0.085 H 
BRANCH   6  13
ATOM     13  O16 MOL d          64.317  32.882  26.895  0.00  0.00    -0.353 OA
BRANCH  13  14
ATOM     14  C15 MOL d          63.621  32.762  28.164  0.00  0.00     0.010 C 
ATOM     15  H15 MOL d          62.536  32.819  27.994  0.00  0.00     0.066 H 
ATOM     16  H16 MOL d          63.931  33.580  28.830  0.00  0.00     0.066 H 
ATOM     17  H17 MOL d          63.869  31.797  28.629  0.00  0.00     0.066 H 
ENDBRANCH  13  14
ENDBRANCH   6  13
BRANCH   8  18
ATOM     18  O7  MOL d          66.835  32.011  27.259  0.00  0.00    -0.358 OA
ATOM     19  H4  MOL d          67.143  31.902  28.150  0.00  0.00     0.217 HD
ENDBRANCH   8  18
ENDBRANCH   1   4
BRANCH   3  20
ATOM     20  C10 MOL d          66.007  36.940  23.760  0.00  0.00    -0.005 C 
ATOM     21  H8  MOL d          65.976  35.894  24.096  0.00  0.00     0.063 H 
ATOM     22  H9  MOL d          65.290  37.083  22.937  0.00  0.00     0.063 H 
BRANCH  20  23
ATOM     23  C9  MOL d          67.398  37.246  23.251  0.00  0.00    -0.061 C 
ATOM     24  H5  MOL d          67.394  37.248  22.151  0.00  0.00     0.029 H 
ATOM     25  H6  MOL d          68.097  36.478  23.613  0.00  0.00     0.029 H 
ATOM     26  H7  MOL d          67.714  38.233  23.618  0.00  0.00     0.029 H 
ENDBRANCH  20  23
ENDBRANCH   3  20
BRANCH   3  27
ATOM     27  C12 MOL d          65.102  39.134  24.529  0.00  0.00    -0.005 C 
ATOM     28  H10 MOL d          64.390  39.460  25.301  0.00  0.00     0.063 H 
ATOM     29  H11 MOL d          65.943  39.842  24.482  0.00  0.00     0.063 H 
BRANCH  27  30
ATOM     30  C13 MOL d          64.396  39.120  23.185  0.00  0.00    -0.061 C 
ATOM     31  H12 MOL d          65.025  38.601  22.447  0.00  0.00     0.029 H 
ATOM     32  H13 MOL d          64.219  40.154  22.853  0.00  0.00     0.029 H 
ATOM     33  H14 MOL d          63.434  38.595  23.281  0.00  0.00     0.029 H 
ENDBRANCH  27  30
ENDBRANCH   3  27
TORSDOF 8
ENDMDL
MODEL 7
REMARK VINA RESULT:      -4.4      2.973      5.149
REMARK  8 active torsions:
REMARK  status: ('A' for Active; 'I' for Inactive)
REMARK    1  A    between atoms: C1_1  and  O7_7 
REMARK    2  A    between atoms: C2_2  and  O16_14 
REMARK    3  A    between atoms: C14_12  and  C4_4 
REMARK    4  A    between atoms: C10_9  and  C9_8 
REMARK    5  A    between atoms: N3_15  and  C10_9 
REMARK    6  A    between atoms: C12_10  and  C13_11 
REMARK    7  A    between atoms: N3_15  and  C12_10 
REMARK       I    between atoms: C14_12  and  N3_15 
REMARK    8  A    between atoms: O16_14  and  C15_16 
ROOT
ATOM      1  C14 MOL d          66.499  38.251  26.746  0.00  0.00     0.253 C 
ATOM      2  O15 MOL d          65.845  39.053  27.374  0.00  0.00    -0.267 OA
ATOM      3  N3  MOL d          67.857  38.157  26.851  0.00  0.00    -0.349 N 
ENDROOT
BRANCH   1   4
ATOM      4  C4  MOL d          65.822  37.356  25.764  0.00  0.00     0.035 A 
ATOM      5  C3  MOL d          65.787  37.714  24.424  0.00  0.00    -0.033 A 
ATOM      6  C2  MOL d          65.154  36.929  23.488  0.00  0.00     0.102 A 
ATOM      7  H1  MOL d          66.268  38.633  24.108  0.00  0.00     0.089 H 
ATOM      8  C1  MOL d          64.552  35.731  23.887  0.00  0.00     0.099 A 
ATOM      9  C6  MOL d          64.584  35.357  25.239  0.00  0.00    -0.047 A 
ATOM     10  C5  MOL d          65.215  36.162  26.169  0.00  0.00    -0.065 A 
ATOM     11  H3  MOL d          64.112  34.433  25.555  0.00  0.00     0.087 H 
ATOM     12  H2  MOL d          65.239  35.869  27.212  0.00  0.00     0.085 H 
BRANCH   6  13
ATOM     13  O16 MOL d          65.096  37.236  22.154  0.00  0.00    -0.353 OA
BRANCH  13  14
ATOM     14  C15 MOL d          66.146  38.085  21.619  0.00  0.00     0.010 C 
ATOM     15  H15 MOL d          65.759  39.105  21.483  0.00  0.00     0.066 H 
ATOM     16  H16 MOL d          66.480  37.688  20.649  0.00  0.00     0.066 H 
ATOM     17  H17 MOL d          66.994  38.105  22.319  0.00  0.00     0.066 H 
ENDBRANCH  13  14
ENDBRANCH   6  13
BRANCH   8  18
ATOM     18  O7  MOL d          63.952  34.938  22.955  0.00  0.00    -0.358 OA
ATOM     19  H4  MOL d          64.595  34.344  22.585  0.00  0.00     0.217 HD
ENDBRANCH   8  18
ENDBRANCH   1   4
BRANCH   3  20
ATOM     20  C10 MOL d          68.575  36.947  26.400  0.00  0.00    -0.005 C 
ATOM     21  H8  MOL d          68.142  36.616  25.444  0.00  0.00     0.063 H 
ATOM     22  H9  MOL d          69.635  37.200  26.254  0.00  0.00     0.063 H 
BRANCH  20  23
ATOM     23  C9  MOL d          68.477  35.813  27.396  0.00  0.00    -0.061 C 
ATOM     24  H5  MOL d          67.514  35.296  27.270  0.00  0.00     0.029 H 
ATOM     25  H6  MOL d          68.547  36.216  28.417  0.00  0.00     0.029 H 
ATOM     26  H7  MOL d          69.299  35.103  27.225  0.00  0.00     0.029 H 
ENDBRANCH  20  23
ENDBRANCH   3  20
BRANCH   3  27
ATOM     27  C12 MOL d          68.649  39.135  27.597  0.00  0.00    -0.005 C 
ATOM     28  H10 MOL d          69.594  39.309  27.062  0.00  0.00     0.063 H 
ATOM     29  H11 MOL d          68.084  40.077  27.660  0.00  0.00     0.063 H 
BRANCH  27  30
ATOM     30  C13 MOL d          68.960  38.652  29.002  0.00  0.00    -0.061 C 
ATOM     31  H12 MOL d          68.204  37.918  29.314  0.00  0.00     0.029 H 
ATOM     32  H13 MOL d          68.947  39.508  29.694  0.00  0.00     0.029 H 
ATOM     33  H14 MOL d          69.955  38.183  29.017  0.00  0.00     0.029 H 
ENDBRANCH  27  30
ENDBRANCH   3  27
TORSDOF 8
ENDMDL
MODEL 8
REMARK VINA RESULT:      -4.4      2.685      4.533
REMARK  8 active torsions:
REMARK  status: ('A' for Active; 'I' for Inactive)
REMARK    1  A    between atoms: C1_1  and  O7_7 
REMARK    2  A    between atoms: C2_2  and  O16_14 
REMARK    3  A    between atoms: C14_12  and  C4_4 
REMARK    4  A    between atoms: C10_9  and  C9_8 
REMARK    5  A    between atoms: N3_15  and  C10_9 
REMARK    6  A    between atoms: C12_10  and  C13_11 
REMARK    7  A    between atoms: N3_15  and  C12_10 
REMARK       I    between atoms: C14_12  and  N3_15 
REMARK    8  A    between atoms: O16_14  and  C15_16 
ROOT
ATOM      1  C14 MOL d          67.539  38.356  24.686  0.00  0.00     0.253 C 
ATOM      2  O15 MOL d          68.115  39.081  23.908  0.00  0.00    -0.267 OA
ATOM      3  N3  MOL d          67.888  38.253  26.003  0.00  0.00    -0.349 N 
ENDROOT
BRANCH   1   4
ATOM      4  C4  MOL d          66.432  37.483  24.199  0.00  0.00     0.035 A 
ATOM      5  C3  MOL d          66.244  36.235  24.773  0.00  0.00    -0.033 A 
ATOM      6  C2  MOL d          65.250  35.388  24.339  0.00  0.00     0.102 A 
ATOM      7  H1  MOL d          66.895  35.919  25.581  0.00  0.00     0.089 H 
ATOM      8  C1  MOL d          64.392  35.800  23.314  0.00  0.00     0.099 A 
ATOM      9  C6  MOL d          64.571  37.062  22.728  0.00  0.00    -0.047 A 
ATOM     10  C5  MOL d          65.581  37.898  23.168  0.00  0.00    -0.065 A 
ATOM     11  H3  MOL d          63.914  37.384  21.927  0.00  0.00     0.087 H 
ATOM     12  H2  MOL d          65.715  38.872  22.714  0.00  0.00     0.085 H 
BRANCH   6  13
ATOM     13  O16 MOL d          65.021  34.148  24.876  0.00  0.00    -0.353 OA
BRANCH  13  14
ATOM     14  C15 MOL d          64.406  34.094  26.191  0.00  0.00     0.010 C 
ATOM     15  H15 MOL d          64.616  33.118  26.654  0.00  0.00     0.066 H 
ATOM     16  H16 MOL d          63.319  34.227  26.093  0.00  0.00     0.066 H 
ATOM     17  H17 MOL d          64.818  34.895  26.822  0.00  0.00     0.066 H 
ENDBRANCH  13  14
ENDBRANCH   6  13
BRANCH   8  18
ATOM     18  O7  MOL d          63.388  34.974  22.905  0.00  0.00    -0.358 OA
ATOM     19  H4  MOL d          63.577  34.658  22.030  0.00  0.00     0.217 HD
ENDBRANCH   8  18
ENDBRANCH   1   4
BRANCH   3  20
ATOM     20  C10 MOL d          66.953  37.690  26.998  0.00  0.00    -0.005 C 
ATOM     21  H8  MOL d          66.406  36.855  26.535  0.00  0.00     0.063 H 
ATOM     22  H9  MOL d          67.533  37.318  27.856  0.00  0.00     0.063 H 
BRANCH  20  23
ATOM     23  C9  MOL d          65.953  38.711  27.493  0.00  0.00    -0.061 C 
ATOM     24  H5  MOL d          66.120  39.668  26.975  0.00  0.00     0.029 H 
ATOM     25  H6  MOL d          66.081  38.854  28.576  0.00  0.00     0.029 H 
ATOM     26  H7  MOL d          64.933  38.356  27.287  0.00  0.00     0.029 H 
ENDBRANCH  20  23
ENDBRANCH   3  20
BRANCH   3  27
ATOM     27  C12 MOL d          69.099  38.875  26.537  0.00  0.00    -0.005 C 
ATOM     28  H10 MOL d          69.976  38.416  26.058  0.00  0.00     0.063 H 
ATOM     29  H11 MOL d          69.077  39.951  26.308  0.00  0.00     0.063 H 
BRANCH  27  30
ATOM     30  C13 MOL d          69.209  38.694  28.040  0.00  0.00    -0.061 C 
ATOM     31  H12 MOL d          70.222  38.351  28.295  0.00  0.00     0.029 H 
ATOM     32  H13 MOL d          68.474  37.947  28.374  0.00  0.00     0.029 H 
ATOM     33  H14 MOL d          69.010  39.654  28.541  0.00  0.00     0.029 H 
ENDBRANCH  27  30
ENDBRANCH   3  27
TORSDOF 8
ENDMDL
MODEL 9
REMARK VINA RESULT:      -4.2      2.709      3.810
REMARK  8 active torsions:
REMARK  status: ('A' for Active; 'I' for Inactive)
REMARK    1  A    between atoms: C1_1  and  O7_7 
REMARK    2  A    between atoms: C2_2  and  O16_14 
REMARK    3  A    between atoms: C14_12  and  C4_4 
REMARK    4  A    between atoms: C10_9  and  C9_8 
REMARK    5  A    between atoms: N3_15  and  C10_9 
REMARK    6  A    between atoms: C12_10  and  C13_11 
REMARK    7  A    between atoms: N3_15  and  C12_10 
REMARK       I    between atoms: C14_12  and  N3_15 
REMARK    8  A    between atoms: O16_14  and  C15_16 
ROOT
ATOM      1  C14 MOL d          65.154  36.872  25.292  0.00  0.00     0.253 C 
ATOM      2  O15 MOL d          64.125  36.348  25.654  0.00  0.00    -0.267 OA
ATOM      3  N3  MOL d          65.407  37.185  23.987  0.00  0.00    -0.349 N 
ENDROOT
BRANCH   1   4
ATOM      4  C4  MOL d          66.232  37.146  26.286  0.00  0.00     0.035 A 
ATOM      5  C3  MOL d          67.140  36.146  26.600  0.00  0.00    -0.033 A 
ATOM      6  C2  MOL d          68.137  36.347  27.527  0.00  0.00     0.102 A 
ATOM      7  H1  MOL d          67.064  35.184  26.104  0.00  0.00     0.089 H 
ATOM      8  C1  MOL d          68.255  37.593  28.152  0.00  0.00     0.099 A 
ATOM      9  C6  MOL d          67.343  38.613  27.840  0.00  0.00    -0.047 A 
ATOM     10  C5  MOL d          66.341  38.391  26.914  0.00  0.00    -0.065 A 
ATOM     11  H3  MOL d          67.425  39.578  28.327  0.00  0.00     0.087 H 
ATOM     12  H2  MOL d          65.640  39.182  26.674  0.00  0.00     0.085 H 
BRANCH   6  13
ATOM     13  O16 MOL d          69.061  35.394  27.868  0.00  0.00    -0.353 OA
BRANCH  13  14
ATOM     14  C15 MOL d          68.906  34.075  27.280  0.00  0.00     0.010 C 
ATOM     15  H15 MOL d          68.247  33.466  27.916  0.00  0.00     0.066 H 
ATOM     16  H16 MOL d          69.890  33.591  27.203  0.00  0.00     0.066 H 
ATOM     17  H17 MOL d          68.463  34.170  26.278  0.00  0.00     0.066 H 
ENDBRANCH  13  14
ENDBRANCH   6  13
BRANCH   8  18
ATOM     18  O7  MOL d          69.261  37.802  29.048  0.00  0.00    -0.358 OA
ATOM     19  H4  MOL d          68.986  37.502  29.906  0.00  0.00     0.217 HD
ENDBRANCH   8  18
ENDBRANCH   1   4
BRANCH   3  20
ATOM     20  C10 MOL d          66.458  38.158  23.626  0.00  0.00    -0.005 C 
ATOM     21  H8  MOL d          65.981  39.119  23.384  0.00  0.00     0.063 H 
ATOM     22  H9  MOL d          67.129  38.289  24.488  0.00  0.00     0.063 H 
BRANCH  20  23
ATOM     23  C9  MOL d          67.277  37.708  22.437  0.00  0.00    -0.061 C 
ATOM     24  H5  MOL d          67.576  38.586  21.844  0.00  0.00     0.029 H 
ATOM     25  H6  MOL d          66.675  37.032  21.813  0.00  0.00     0.029 H 
ATOM     26  H7  MOL d          68.175  37.180  22.789  0.00  0.00     0.029 H 
ENDBRANCH  20  23
ENDBRANCH   3  20
BRANCH   3  27
ATOM     27  C12 MOL d          64.532  36.751  22.899  0.00  0.00    -0.005 C 
ATOM     28  H10 MOL d          63.551  37.235  23.016  0.00  0.00     0.063 H 
ATOM     29  H11 MOL d          64.979  37.053  21.940  0.00  0.00     0.063 H 
BRANCH  27  30
ATOM     30  C13 MOL d          64.339  35.245  22.900  0.00  0.00    -0.061 C 
ATOM     31  H12 MOL d          65.270  34.756  22.578  0.00  0.00     0.029 H 
ATOM     32  H13 MOL d          63.527  34.979  22.206  0.00  0.00     0.029 H 
ATOM     33  H14 MOL d          64.079  34.908  23.914  0.00  0.00     0.029 H 
ENDBRANCH  27  30
ENDBRANCH   3  27
TORSDOF 8
ENDMDL
MODEL 10
REMARK VINA RESULT:      -4.2      2.671      3.975
REMARK  8 active torsions:
REMARK  status: ('A' for Active; 'I' for Inactive)
REMARK    1  A    between atoms: C1_1  and  O7_7 
REMARK    2  A    between atoms: C2_2  and  O16_14 
REMARK    3  A    between atoms: C14_12  and  C4_4 
REMARK    4  A    between atoms: C10_9  and  C9_8 
REMARK    5  A    between atoms: N3_15  and  C10_9 
REMARK    6  A    between atoms: C12_10  and  C13_11 
REMARK    7  A    between atoms: N3_15  and  C12_10 
REMARK       I    between atoms: C14_12  and  N3_15 
REMARK    8  A    between atoms: O16_14  and  C15_16 
ROOT
ATOM      1  C14 MOL d          67.211  37.288  23.828  0.00  0.00     0.253 C 
ATOM      2  O15 MOL d          68.009  37.425  22.930  0.00  0.00    -0.267 OA
ATOM      3  N3  MOL d          65.867  37.169  23.615  0.00  0.00    -0.349 N 
ENDROOT
BRANCH   1   4
ATOM      4  C4  MOL d          67.682  37.305  25.243  0.00  0.00     0.035 A 
ATOM      5  C3  MOL d          67.912  36.106  25.900  0.00  0.00    -0.033 A 
ATOM      6  C2  MOL d          68.327  36.074  27.212  0.00  0.00     0.102 A 
ATOM      7  H1  MOL d          67.763  35.172  25.369  0.00  0.00     0.089 H 
ATOM      8  C1  MOL d          68.545  37.276  27.895  0.00  0.00     0.099 A 
ATOM      9  C6  MOL d          68.318  38.495  27.239  0.00  0.00    -0.047 A 
ATOM     10  C5  MOL d          67.892  38.510  25.924  0.00  0.00    -0.065 A 
ATOM     11  H3  MOL d          68.477  39.430  27.766  0.00  0.00     0.087 H 
ATOM     12  H2  MOL d          67.720  39.454  25.420  0.00  0.00     0.085 H 
BRANCH   6  13
ATOM     13  O16 MOL d          68.572  34.917  27.904  0.00  0.00    -0.353 OA
BRANCH  13  14
ATOM     14  C15 MOL d          68.366  33.663  27.199  0.00  0.00     0.010 C 
ATOM     15  H15 MOL d          67.310  33.578  26.904  0.00  0.00     0.066 H 
ATOM     16  H16 MOL d          68.631  32.824  27.859  0.00  0.00     0.066 H 
ATOM     17  H17 MOL d          69.002  33.638  26.302  0.00  0.00     0.066 H 
ENDBRANCH  13  14
ENDBRANCH   6  13
BRANCH   8  18
ATOM     18  O7  MOL d          68.985  37.245  29.184  0.00  0.00    -0.358 OA
ATOM     19  H4  MOL d          69.864  36.887  29.209  0.00  0.00     0.217 HD
ENDBRANCH   8  18
ENDBRANCH   1   4
BRANCH   3  20
ATOM     20  C10 MOL d          64.975  36.615  24.654  0.00  0.00    -0.005 C 
ATOM     21  H8  MOL d          65.487  36.676  25.626  0.00  0.00     0.063 H 
ATOM     22  H9  MOL d          64.055  37.217  24.686  0.00  0.00     0.063 H 
BRANCH  20  23
ATOM     23  C9  MOL d          64.605  35.173  24.389  0.00  0.00    -0.061 C 
ATOM     24  H5  MOL d          63.927  34.817  25.179  0.00  0.00     0.029 H 
ATOM     25  H6  MOL d          65.516  34.556  24.382  0.00  0.00     0.029 H 
ATOM     26  H7  MOL d          64.103  35.097  23.413  0.00  0.00     0.029 H 
ENDBRANCH  20  23
ENDBRANCH   3  20
BRANCH   3  27
ATOM     27  C12 MOL d          65.268  37.375  22.296  0.00  0.00    -0.005 C 
ATOM     28  H10 MOL d          65.696  36.646  21.593  0.00  0.00     0.063 H 
ATOM     29  H11 MOL d          64.181  37.219  22.370  0.00  0.00     0.063 H 
BRANCH  27  30
ATOM     30  C13 MOL d          65.530  38.776  21.773  0.00  0.00    -0.061 C 
ATOM     31  H12 MOL d          64.678  39.425  22.021  0.00  0.00     0.029 H 
ATOM     32  H13 MOL d          65.657  38.741  20.680  0.00  0.00     0.029 H 
ATOM     33  H14 MOL d          66.443  39.177  22.236  0.00  0.00     0.029 H 
ENDBRANCH  27  30
ENDBRANCH   3  27
TORSDOF 8
ENDMDL
