MODEL 1
REMARK VINA RESULT:      -6.1      0.000      0.000
REMARK  11 active torsions:
REMARK  status: ('A' for Active; 'I' for Inactive)
REMARK    1  A    between atoms: C1_3  and  C2_4 
REMARK    2  A    between atoms: C2_4  and  C3_5 
REMARK    3  A    between atoms: C3_5  and  C4_6 
REMARK    4  A    between atoms: C4_6  and  C5_7 
REMARK    5  A    between atoms: C5_7  and  C6_8 
REMARK    6  A    between atoms: C6_8  and  C7_9 
REMARK    7  A    between atoms: C7_9  and  C8_10 
REMARK    8  A    between atoms: C8_10  and  C9_11 
REMARK    9  A    between atoms: C9_11  and  C10_12 
REMARK   10  A    between atoms: C10_12  and  C11_13 
REMARK   11  A    between atoms: C11_13  and  C12_14 
ROOT
ATOM      1  C7  DAO d          -1.905  13.519  18.478  0.00  0.00    -0.065 C 
ATOM      2  H11 DAO d          -1.113  12.869  18.078  0.00  0.00     0.033 H 
ATOM      3  H12 DAO d          -2.010  13.346  19.559  0.00  0.00     0.033 H 
ENDROOT
BRANCH   1   4
ATOM      4  C6  DAO d          -3.227  13.160  17.793  0.00  0.00    -0.065 C 
ATOM      5  H9  DAO d          -4.063  13.611  18.347  0.00  0.00     0.033 H 
ATOM      6  H10 DAO d          -3.221  13.544  16.762  0.00  0.00     0.033 H 
BRANCH   4   7
ATOM      7  C5  DAO d          -3.388  11.648  17.771  0.00  0.00    -0.065 C 
ATOM      8  H7  DAO d          -3.755  11.351  16.778  0.00  0.00     0.033 H 
ATOM      9  H8  DAO d          -2.404  11.190  17.950  0.00  0.00     0.033 H 
BRANCH   7  10
ATOM     10  C4  DAO d          -4.363  11.126  18.823  0.00  0.00    -0.065 C 
ATOM     11  H5  DAO d          -4.884  11.981  19.279  0.00  0.00     0.033 H 
ATOM     12  H6  DAO d          -5.096  10.469  18.333  0.00  0.00     0.033 H 
BRANCH  10  13
ATOM     13  C3  DAO d          -3.648  10.334  19.928  0.00  0.00    -0.056 C 
ATOM     14  H3  DAO d          -3.421  11.016  20.762  0.00  0.00     0.033 H 
ATOM     15  H4  DAO d          -4.318   9.535  20.281  0.00  0.00     0.033 H 
BRANCH  13  16
ATOM     16  C2  DAO d          -2.342   9.703  19.437  0.00  0.00     0.016 C 
ATOM     17  H1  DAO d          -2.191   9.988  18.386  0.00  0.00     0.049 H 
ATOM     18  H2  DAO d          -1.514  10.095  20.046  0.00  0.00     0.049 H 
BRANCH  16  19
ATOM     19  C1  DAO d          -2.331   8.180  19.531  0.00  0.00     0.172 C 
ATOM     20  O1  DAO d          -1.685   7.511  18.685  0.00  0.00    -0.648 OA
ATOM     21  O2  DAO d          -2.953   7.604  20.453  0.00  0.00    -0.648 OA
ENDBRANCH  16  19
ENDBRANCH  13  16
ENDBRANCH  10  13
ENDBRANCH   7  10
ENDBRANCH   4   7
ENDBRANCH   1   4
BRANCH   1  22
ATOM     22  C8  DAO d          -1.503  14.974  18.253  0.00  0.00    -0.065 C 
ATOM     23  H13 DAO d          -0.455  15.005  17.923  0.00  0.00     0.033 H 
ATOM     24  H14 DAO d          -1.605  15.521  19.202  0.00  0.00     0.033 H 
BRANCH  22  25
ATOM     25  C9  DAO d          -2.367  15.646  17.206  0.00  0.00    -0.065 C 
ATOM     26  H15 DAO d          -3.181  14.960  16.931  0.00  0.00     0.033 H 
ATOM     27  H16 DAO d          -1.746  15.852  16.321  0.00  0.00     0.033 H 
BRANCH  25  28
ATOM     28  C10 DAO d          -2.982  16.963  17.683  0.00  0.00    -0.065 C 
ATOM     29  H17 DAO d          -2.223  17.756  17.626  0.00  0.00     0.033 H 
ATOM     30  H18 DAO d          -3.315  16.847  18.725  0.00  0.00     0.033 H 
BRANCH  28  31
ATOM     31  C11 DAO d          -4.170  17.352  16.827  0.00  0.00    -0.069 C 
ATOM     32  H19 DAO d          -5.001  17.663  17.478  0.00  0.00     0.032 H 
ATOM     33  H20 DAO d          -4.481  16.487  16.223  0.00  0.00     0.032 H 
BRANCH  31  34
ATOM     34  C12 DAO d          -3.798  18.492  15.912  0.00  0.00    -0.077 C 
ATOM     35  H21 DAO d          -2.984  18.176  15.243  0.00  0.00     0.027 H 
ATOM     36  H22 DAO d          -3.464  19.352  16.513  0.00  0.00     0.027 H 
ATOM     37  H23 DAO d          -4.673  18.782  15.312  0.00  0.00     0.027 H 
ENDBRANCH  31  34
ENDBRANCH  28  31
ENDBRANCH  25  28
ENDBRANCH  22  25
ENDBRANCH   1  22
TORSDOF 11
ENDMDL
MODEL 2
REMARK VINA RESULT:      -6.0      1.277      2.147
REMARK  11 active torsions:
REMARK  status: ('A' for Active; 'I' for Inactive)
REMARK    1  A    between atoms: C1_3  and  C2_4 
REMARK    2  A    between atoms: C2_4  and  C3_5 
REMARK    3  A    between atoms: C3_5  and  C4_6 
REMARK    4  A    between atoms: C4_6  and  C5_7 
REMARK    5  A    between atoms: C5_7  and  C6_8 
REMARK    6  A    between atoms: C6_8  and  C7_9 
REMARK    7  A    between atoms: C7_9  and  C8_10 
REMARK    8  A    between atoms: C8_10  and  C9_11 
REMARK    9  A    between atoms: C9_11  and  C10_12 
REMARK   10  A    between atoms: C10_12  and  C11_13 
REMARK   11  A    between atoms: C11_13  and  C12_14 
ROOT
ATOM      1  C7  DAO d          -1.810  13.151  18.569  0.00  0.00    -0.065 C 
ATOM      2  H11 DAO d          -1.019  13.503  17.891  0.00  0.00     0.033 H 
ATOM      3  H12 DAO d          -1.846  13.798  19.457  0.00  0.00     0.033 H 
ENDROOT
BRANCH   1   4
ATOM      4  C6  DAO d          -1.476  11.724  19.014  0.00  0.00    -0.065 C 
ATOM      5  H9  DAO d          -0.424  11.502  18.778  0.00  0.00     0.033 H 
ATOM      6  H10 DAO d          -1.635  11.631  20.098  0.00  0.00     0.033 H 
BRANCH   4   7
ATOM      7  C5  DAO d          -2.378  10.743  18.281  0.00  0.00    -0.065 C 
ATOM      8  H7  DAO d          -2.851  10.084  19.023  0.00  0.00     0.033 H 
ATOM      9  H8  DAO d          -3.154  11.314  17.751  0.00  0.00     0.033 H 
BRANCH   7  10
ATOM     10  C4  DAO d          -1.637   9.877  17.267  0.00  0.00    -0.065 C 
ATOM     11  H5  DAO d          -2.022  10.100  16.260  0.00  0.00     0.033 H 
ATOM     12  H6  DAO d          -0.565  10.118  17.311  0.00  0.00     0.033 H 
BRANCH  10  13
ATOM     13  C3  DAO d          -1.820   8.378  17.546  0.00  0.00    -0.056 C 
ATOM     14  H3  DAO d          -2.269   7.905  16.660  0.00  0.00     0.033 H 
ATOM     15  H4  DAO d          -0.833   7.930  17.740  0.00  0.00     0.033 H 
BRANCH  13  16
ATOM     16  C2  DAO d          -2.724   8.120  18.755  0.00  0.00     0.016 C 
ATOM     17  H1  DAO d          -2.970   9.086  19.220  0.00  0.00     0.049 H 
ATOM     18  H2  DAO d          -3.649   7.638  18.403  0.00  0.00     0.049 H 
BRANCH  16  19
ATOM     19  C1  DAO d          -2.085   7.224  19.811  0.00  0.00     0.172 C 
ATOM     20  O1  DAO d          -2.729   6.935  20.852  0.00  0.00    -0.648 OA
ATOM     21  O2  DAO d          -0.931   6.772  19.635  0.00  0.00    -0.648 OA
ENDBRANCH  16  19
ENDBRANCH  13  16
ENDBRANCH  10  13
ENDBRANCH   7  10
ENDBRANCH   4   7
ENDBRANCH   1   4
BRANCH   1  22
ATOM     22  C8  DAO d          -3.149  13.241  17.844  0.00  0.00    -0.065 C 
ATOM     23  H13 DAO d          -3.940  12.868  18.512  0.00  0.00     0.033 H 
ATOM     24  H14 DAO d          -3.107  12.615  16.941  0.00  0.00     0.033 H 
BRANCH  22  25
ATOM     25  C9  DAO d          -3.482  14.662  17.439  0.00  0.00    -0.065 C 
ATOM     26  H15 DAO d          -4.459  14.929  17.869  0.00  0.00     0.033 H 
ATOM     27  H16 DAO d          -3.541  14.707  16.341  0.00  0.00     0.033 H 
BRANCH  25  28
ATOM     28  C10 DAO d          -2.447  15.685  17.912  0.00  0.00    -0.065 C 
ATOM     29  H17 DAO d          -1.495  15.497  17.395  0.00  0.00     0.033 H 
ATOM     30  H18 DAO d          -2.304  15.576  18.997  0.00  0.00     0.033 H 
BRANCH  28  31
ATOM     31  C11 DAO d          -2.902  17.098  17.614  0.00  0.00    -0.069 C 
ATOM     32  H19 DAO d          -2.173  17.581  16.945  0.00  0.00     0.032 H 
ATOM     33  H20 DAO d          -2.968  17.665  18.554  0.00  0.00     0.032 H 
BRANCH  31  34
ATOM     34  C12 DAO d          -4.255  17.079  16.947  0.00  0.00    -0.077 C 
ATOM     35  H21 DAO d          -4.784  16.153  17.218  0.00  0.00     0.027 H 
ATOM     36  H22 DAO d          -4.127  17.120  15.854  0.00  0.00     0.027 H 
ATOM     37  H23 DAO d          -4.841  17.947  17.281  0.00  0.00     0.027 H 
ENDBRANCH  31  34
ENDBRANCH  28  31
ENDBRANCH  25  28
ENDBRANCH  22  25
ENDBRANCH   1  22
TORSDOF 11
ENDMDL
MODEL 3
REMARK VINA RESULT:      -5.9      1.398      1.844
REMARK  11 active torsions:
REMARK  status: ('A' for Active; 'I' for Inactive)
REMARK    1  A    between atoms: C1_3  and  C2_4 
REMARK    2  A    between atoms: C2_4  and  C3_5 
REMARK    3  A    between atoms: C3_5  and  C4_6 
REMARK    4  A    between atoms: C4_6  and  C5_7 
REMARK    5  A    between atoms: C5_7  and  C6_8 
REMARK    6  A    between atoms: C6_8  and  C7_9 
REMARK    7  A    between atoms: C7_9  and  C8_10 
REMARK    8  A    between atoms: C8_10  and  C9_11 
REMARK    9  A    between atoms: C9_11  and  C10_12 
REMARK   10  A    between atoms: C10_12  and  C11_13 
REMARK   11  A    between atoms: C11_13  and  C12_14 
ROOT
ATOM      1  C7  DAO d          -3.135  13.251  17.902  0.00  0.00    -0.065 C 
ATOM      2  H11 DAO d          -3.925  13.144  18.660  0.00  0.00     0.033 H 
ATOM      3  H12 DAO d          -3.225  12.444  17.161  0.00  0.00     0.033 H 
ENDROOT
BRANCH   1   4
ATOM      4  C6  DAO d          -1.773  13.133  18.593  0.00  0.00    -0.065 C 
ATOM      5  H9  DAO d          -0.979  13.435  17.895  0.00  0.00     0.033 H 
ATOM      6  H10 DAO d          -1.752  13.787  19.477  0.00  0.00     0.033 H 
BRANCH   4   7
ATOM      7  C5  DAO d          -1.550  11.690  19.022  0.00  0.00    -0.065 C 
ATOM      8  H7  DAO d          -0.523  11.403  18.755  0.00  0.00     0.033 H 
ATOM      9  H8  DAO d          -1.676  11.628  20.113  0.00  0.00     0.033 H 
BRANCH   7  10
ATOM     10  C4  DAO d          -2.514  10.706  18.367  0.00  0.00    -0.065 C 
ATOM     11  H5  DAO d          -3.536  10.927  18.711  0.00  0.00     0.033 H 
ATOM     12  H6  DAO d          -2.461  10.831  17.275  0.00  0.00     0.033 H 
BRANCH  10  13
ATOM     13  C3  DAO d          -2.177   9.249  18.716  0.00  0.00    -0.056 C 
ATOM     14  H3  DAO d          -1.309   9.239  19.393  0.00  0.00     0.033 H 
ATOM     15  H4  DAO d          -3.042   8.797  19.223  0.00  0.00     0.033 H 
BRANCH  13  16
ATOM     16  C2  DAO d          -1.843   8.418  17.473  0.00  0.00     0.016 C 
ATOM     17  H1  DAO d          -2.385   8.841  16.615  0.00  0.00     0.049 H 
ATOM     18  H2  DAO d          -0.760   8.483  17.290  0.00  0.00     0.049 H 
BRANCH  16  19
ATOM     19  C1  DAO d          -2.223   6.947  17.607  0.00  0.00     0.172 C 
ATOM     20  O1  DAO d          -1.365   6.119  18.007  0.00  0.00    -0.648 OA
ATOM     21  O2  DAO d          -3.385   6.572  17.332  0.00  0.00    -0.648 OA
ENDBRANCH  16  19
ENDBRANCH  13  16
ENDBRANCH  10  13
ENDBRANCH   7  10
ENDBRANCH   4   7
ENDBRANCH   1   4
BRANCH   1  22
ATOM     22  C8  DAO d          -3.318  14.589  17.192  0.00  0.00    -0.065 C 
ATOM     23  H13 DAO d          -4.308  14.993  17.447  0.00  0.00     0.033 H 
ATOM     24  H14 DAO d          -3.257  14.426  16.106  0.00  0.00     0.033 H 
BRANCH  22  25
ATOM     25  C9  DAO d          -2.260  15.596  17.595  0.00  0.00    -0.065 C 
ATOM     26  H15 DAO d          -1.509  15.654  16.793  0.00  0.00     0.033 H 
ATOM     27  H16 DAO d          -1.781  15.247  18.521  0.00  0.00     0.033 H 
BRANCH  25  28
ATOM     28  C10 DAO d          -2.820  16.999  17.837  0.00  0.00    -0.065 C 
ATOM     29  H17 DAO d          -2.053  17.742  17.577  0.00  0.00     0.033 H 
ATOM     30  H18 DAO d          -3.085  17.102  18.900  0.00  0.00     0.033 H 
BRANCH  28  31
ATOM     31  C11 DAO d          -4.055  17.246  16.995  0.00  0.00    -0.069 C 
ATOM     32  H19 DAO d          -4.894  17.520  17.652  0.00  0.00     0.032 H 
ATOM     33  H20 DAO d          -4.306  16.331  16.440  0.00  0.00     0.032 H 
BRANCH  31  34
ATOM     34  C12 DAO d          -3.799  18.368  16.018  0.00  0.00    -0.077 C 
ATOM     35  H21 DAO d          -2.836  18.846  16.252  0.00  0.00     0.027 H 
ATOM     36  H22 DAO d          -4.606  19.113  16.096  0.00  0.00     0.027 H 
ATOM     37  H23 DAO d          -3.770  17.964  14.996  0.00  0.00     0.027 H 
ENDBRANCH  31  34
ENDBRANCH  28  31
ENDBRANCH  25  28
ENDBRANCH  22  25
ENDBRANCH   1  22
TORSDOF 11
ENDMDL
MODEL 4
REMARK VINA RESULT:      -5.8      4.350      7.773
REMARK  11 active torsions:
REMARK  status: ('A' for Active; 'I' for Inactive)
REMARK    1  A    between atoms: C1_3  and  C2_4 
REMARK    2  A    between atoms: C2_4  and  C3_5 
REMARK    3  A    between atoms: C3_5  and  C4_6 
REMARK    4  A    between atoms: C4_6  and  C5_7 
REMARK    5  A    between atoms: C5_7  and  C6_8 
REMARK    6  A    between atoms: C6_8  and  C7_9 
REMARK    7  A    between atoms: C7_9  and  C8_10 
REMARK    8  A    between atoms: C8_10  and  C9_11 
REMARK    9  A    between atoms: C9_11  and  C10_12 
REMARK   10  A    between atoms: C10_12  and  C11_13 
REMARK   11  A    between atoms: C11_13  and  C12_14 
ROOT
ATOM      1  C7  DAO d          -3.442  11.341  18.235  0.00  0.00    -0.065 C 
ATOM      2  H11 DAO d          -3.124  10.707  17.394  0.00  0.00     0.033 H 
ATOM      3  H12 DAO d          -4.495  11.132  18.474  0.00  0.00     0.033 H 
ENDROOT
BRANCH   1   4
ATOM      4  C6  DAO d          -3.315  12.809  17.817  0.00  0.00    -0.065 C 
ATOM      5  H9  DAO d          -3.208  12.872  16.724  0.00  0.00     0.033 H 
ATOM      6  H10 DAO d          -4.216  13.358  18.128  0.00  0.00     0.033 H 
BRANCH   4   7
ATOM      7  C5  DAO d          -2.092  13.419  18.484  0.00  0.00    -0.065 C 
ATOM      8  H7  DAO d          -2.212  13.336  19.574  0.00  0.00     0.033 H 
ATOM      9  H8  DAO d          -1.204  12.851  18.168  0.00  0.00     0.033 H 
BRANCH   7  10
ATOM     10  C4  DAO d          -1.877  14.888  18.132  0.00  0.00    -0.065 C 
ATOM     11  H5  DAO d          -1.776  15.465  19.063  0.00  0.00     0.033 H 
ATOM     12  H6  DAO d          -0.954  14.981  17.541  0.00  0.00     0.033 H 
BRANCH  10  13
ATOM     13  C3  DAO d          -3.046  15.463  17.317  0.00  0.00    -0.056 C 
ATOM     14  H3  DAO d          -2.890  15.221  16.255  0.00  0.00     0.033 H 
ATOM     15  H4  DAO d          -3.981  15.000  17.665  0.00  0.00     0.033 H 
BRANCH  13  16
ATOM     16  C2  DAO d          -3.163  16.983  17.465  0.00  0.00     0.016 C 
ATOM     17  H1  DAO d          -3.728  17.201  18.383  0.00  0.00     0.049 H 
ATOM     18  H2  DAO d          -2.150  17.404  17.550  0.00  0.00     0.049 H 
BRANCH  16  19
ATOM     19  C1  DAO d          -3.868  17.654  16.291  0.00  0.00     0.172 C 
ATOM     20  O1  DAO d          -4.732  17.015  15.639  0.00  0.00    -0.648 OA
ATOM     21  O2  DAO d          -3.595  18.838  15.990  0.00  0.00    -0.648 OA
ENDBRANCH  16  19
ENDBRANCH  13  16
ENDBRANCH  10  13
ENDBRANCH   7  10
ENDBRANCH   4   7
ENDBRANCH   1   4
BRANCH   1  22
ATOM     22  C8  DAO d          -2.588  11.002  19.452  0.00  0.00    -0.065 C 
ATOM     23  H13 DAO d          -3.244  10.898  20.328  0.00  0.00     0.033 H 
ATOM     24  H14 DAO d          -1.874  11.820  19.624  0.00  0.00     0.033 H 
BRANCH  22  25
ATOM     25  C9  DAO d          -1.816   9.711  19.264  0.00  0.00    -0.065 C 
ATOM     26  H15 DAO d          -2.139   8.995  20.035  0.00  0.00     0.033 H 
ATOM     27  H16 DAO d          -0.744   9.925  19.387  0.00  0.00     0.033 H 
BRANCH  25  28
ATOM     28  C10 DAO d          -2.029   9.073  17.890  0.00  0.00    -0.065 C 
ATOM     29  H17 DAO d          -1.366   9.561  17.161  0.00  0.00     0.033 H 
ATOM     30  H18 DAO d          -3.076   9.216  17.585  0.00  0.00     0.033 H 
BRANCH  28  31
ATOM     31  C11 DAO d          -1.723   7.590  17.923  0.00  0.00    -0.069 C 
ATOM     32  H19 DAO d          -1.540   7.280  18.963  0.00  0.00     0.032 H 
ATOM     33  H20 DAO d          -0.828   7.390  17.317  0.00  0.00     0.032 H 
BRANCH  31  34
ATOM     34  C12 DAO d          -2.887   6.808  17.367  0.00  0.00    -0.077 C 
ATOM     35  H21 DAO d          -2.530   6.132  16.576  0.00  0.00     0.027 H 
ATOM     36  H22 DAO d          -3.630   7.503  16.946  0.00  0.00     0.027 H 
ATOM     37  H23 DAO d          -3.351   6.219  18.171  0.00  0.00     0.027 H 
ENDBRANCH  31  34
ENDBRANCH  28  31
ENDBRANCH  25  28
ENDBRANCH  22  25
ENDBRANCH   1  22
TORSDOF 11
ENDMDL
MODEL 5
REMARK VINA RESULT:      -5.5      3.996      7.682
REMARK  11 active torsions:
REMARK  status: ('A' for Active; 'I' for Inactive)
REMARK    1  A    between atoms: C1_3  and  C2_4 
REMARK    2  A    between atoms: C2_4  and  C3_5 
REMARK    3  A    between atoms: C3_5  and  C4_6 
REMARK    4  A    between atoms: C4_6  and  C5_7 
REMARK    5  A    between atoms: C5_7  and  C6_8 
REMARK    6  A    between atoms: C6_8  and  C7_9 
REMARK    7  A    between atoms: C7_9  and  C8_10 
REMARK    8  A    between atoms: C8_10  and  C9_11 
REMARK    9  A    between atoms: C9_11  and  C10_12 
REMARK   10  A    between atoms: C10_12  and  C11_13 
REMARK   11  A    between atoms: C11_13  and  C12_14 
ROOT
ATOM      1  C7  DAO d          -2.272  10.859  18.110  0.00  0.00    -0.065 C 
ATOM      2  H11 DAO d          -1.464  11.575  17.899  0.00  0.00     0.033 H 
ATOM      3  H12 DAO d          -2.315  10.107  17.310  0.00  0.00     0.033 H 
ENDROOT
BRANCH   1   4
ATOM      4  C6  DAO d          -3.603  11.618  18.142  0.00  0.00    -0.065 C 
ATOM      5  H9  DAO d          -4.314  11.142  17.451  0.00  0.00     0.033 H 
ATOM      6  H10 DAO d          -4.013  11.596  19.162  0.00  0.00     0.033 H 
BRANCH   4   7
ATOM      7  C5  DAO d          -3.370  13.060  17.718  0.00  0.00    -0.065 C 
ATOM      8  H7  DAO d          -3.272  13.089  16.623  0.00  0.00     0.033 H 
ATOM      9  H8  DAO d          -4.241  13.658  18.024  0.00  0.00     0.033 H 
BRANCH   7  10
ATOM     10  C4  DAO d          -2.118  13.679  18.333  0.00  0.00    -0.065 C 
ATOM     11  H5  DAO d          -2.313  13.893  19.394  0.00  0.00     0.033 H 
ATOM     12  H6  DAO d          -1.289  12.961  18.249  0.00  0.00     0.033 H 
BRANCH  10  13
ATOM     13  C3  DAO d          -1.716  14.984  17.630  0.00  0.00    -0.056 C 
ATOM     14  H3  DAO d          -1.519  15.752  18.394  0.00  0.00     0.033 H 
ATOM     15  H4  DAO d          -0.801  14.805  17.046  0.00  0.00     0.033 H 
BRANCH  13  16
ATOM     16  C2  DAO d          -2.810  15.496  16.687  0.00  0.00     0.016 C 
ATOM     17  H1  DAO d          -2.356  15.704  15.707  0.00  0.00     0.049 H 
ATOM     18  H2  DAO d          -3.573  14.710  16.579  0.00  0.00     0.049 H 
BRANCH  16  19
ATOM     19  C1  DAO d          -3.493  16.766  17.183  0.00  0.00     0.172 C 
ATOM     20  O1  DAO d          -2.870  17.547  17.947  0.00  0.00    -0.648 OA
ATOM     21  O2  DAO d          -4.661  17.033  16.820  0.00  0.00    -0.648 OA
ENDBRANCH  16  19
ENDBRANCH  13  16
ENDBRANCH  10  13
ENDBRANCH   7  10
ENDBRANCH   4   7
ENDBRANCH   1   4
BRANCH   1  22
ATOM     22  C8  DAO d          -1.968  10.154  19.428  0.00  0.00    -0.065 C 
ATOM     23  H13 DAO d          -2.620  10.567  20.211  0.00  0.00     0.033 H 
ATOM     24  H14 DAO d          -0.916  10.337  19.693  0.00  0.00     0.033 H 
BRANCH  22  25
ATOM     25  C9  DAO d          -2.196   8.659  19.339  0.00  0.00    -0.065 C 
ATOM     26  H15 DAO d          -3.168   8.426  19.801  0.00  0.00     0.033 H 
ATOM     27  H16 DAO d          -1.395   8.149  19.893  0.00  0.00     0.033 H 
BRANCH  25  28
ATOM     28  C10 DAO d          -2.204   8.132  17.903  0.00  0.00    -0.065 C 
ATOM     29  H17 DAO d          -1.584   8.789  17.276  0.00  0.00     0.033 H 
ATOM     30  H18 DAO d          -3.237   8.132  17.525  0.00  0.00     0.033 H 
BRANCH  28  31
ATOM     31  C11 DAO d          -1.654   6.722  17.836  0.00  0.00    -0.069 C 
ATOM     32  H19 DAO d          -0.963   6.641  16.983  0.00  0.00     0.032 H 
ATOM     33  H20 DAO d          -2.484   6.014  17.704  0.00  0.00     0.032 H 
BRANCH  31  34
ATOM     34  C12 DAO d          -0.914   6.393  19.109  0.00  0.00    -0.077 C 
ATOM     35  H21 DAO d          -1.178   7.125  19.887  0.00  0.00     0.027 H 
ATOM     36  H22 DAO d           0.170   6.430  18.924  0.00  0.00     0.027 H 
ATOM     37  H23 DAO d          -1.195   5.384  19.446  0.00  0.00     0.027 H 
ENDBRANCH  31  34
ENDBRANCH  28  31
ENDBRANCH  25  28
ENDBRANCH  22  25
ENDBRANCH   1  22
TORSDOF 11
ENDMDL
MODEL 6
REMARK VINA RESULT:      -5.1      1.677      2.830
REMARK  11 active torsions:
REMARK  status: ('A' for Active; 'I' for Inactive)
REMARK    1  A    between atoms: C1_3  and  C2_4 
REMARK    2  A    between atoms: C2_4  and  C3_5 
REMARK    3  A    between atoms: C3_5  and  C4_6 
REMARK    4  A    between atoms: C4_6  and  C5_7 
REMARK    5  A    between atoms: C5_7  and  C6_8 
REMARK    6  A    between atoms: C6_8  and  C7_9 
REMARK    7  A    between atoms: C7_9  and  C8_10 
REMARK    8  A    between atoms: C8_10  and  C9_11 
REMARK    9  A    between atoms: C9_11  and  C10_12 
REMARK   10  A    between atoms: C10_12  and  C11_13 
REMARK   11  A    between atoms: C11_13  and  C12_14 
ROOT
ATOM      1  C7  DAO d          -1.875  12.034  18.505  0.00  0.00    -0.065 C 
ATOM      2  H11 DAO d          -1.308  11.858  17.580  0.00  0.00     0.033 H 
ATOM      3  H12 DAO d          -1.539  12.973  18.969  0.00  0.00     0.033 H 
ENDROOT
BRANCH   1   4
ATOM      4  C6  DAO d          -1.599  10.882  19.476  0.00  0.00    -0.065 C 
ATOM      5  H9  DAO d          -0.514  10.767  19.612  0.00  0.00     0.033 H 
ATOM      6  H10 DAO d          -2.069  11.099  20.447  0.00  0.00     0.033 H 
BRANCH   4   7
ATOM      7  C5  DAO d          -2.179   9.595  18.908  0.00  0.00    -0.065 C 
ATOM      8  H7  DAO d          -2.746   9.841  17.998  0.00  0.00     0.033 H 
ATOM      9  H8  DAO d          -1.348   8.923  18.651  0.00  0.00     0.033 H 
BRANCH   7  10
ATOM     10  C4  DAO d          -3.108   8.868  19.876  0.00  0.00    -0.065 C 
ATOM     11  H5  DAO d          -3.108   9.403  20.837  0.00  0.00     0.033 H 
ATOM     12  H6  DAO d          -4.125   8.866  19.457  0.00  0.00     0.033 H 
BRANCH  10  13
ATOM     13  C3  DAO d          -2.668   7.416  20.116  0.00  0.00    -0.056 C 
ATOM     14  H3  DAO d          -2.643   7.229  21.200  0.00  0.00     0.033 H 
ATOM     15  H4  DAO d          -3.399   6.742  19.645  0.00  0.00     0.033 H 
BRANCH  13  16
ATOM     16  C2  DAO d          -1.281   7.127  19.533  0.00  0.00     0.016 C 
ATOM     17  H1  DAO d          -1.210   7.611  18.547  0.00  0.00     0.049 H 
ATOM     18  H2  DAO d          -0.523   7.554  20.206  0.00  0.00     0.049 H 
BRANCH  16  19
ATOM     19  C1  DAO d          -0.993   5.639  19.363  0.00  0.00     0.172 C 
ATOM     20  O1  DAO d          -0.903   4.905  20.380  0.00  0.00    -0.648 OA
ATOM     21  O2  DAO d          -0.860   5.152  18.217  0.00  0.00    -0.648 OA
ENDBRANCH  16  19
ENDBRANCH  13  16
ENDBRANCH  10  13
ENDBRANCH   7  10
ENDBRANCH   4   7
ENDBRANCH   1   4
BRANCH   1  22
ATOM     22  C8  DAO d          -3.354  12.165  18.155  0.00  0.00    -0.065 C 
ATOM     23  H13 DAO d          -3.937  12.203  19.086  0.00  0.00     0.033 H 
ATOM     24  H14 DAO d          -3.658  11.286  17.567  0.00  0.00     0.033 H 
BRANCH  22  25
ATOM     25  C9  DAO d          -3.638  13.415  17.347  0.00  0.00    -0.065 C 
ATOM     26  H15 DAO d          -4.694  13.692  17.491  0.00  0.00     0.033 H 
ATOM     27  H16 DAO d          -3.459  13.192  16.285  0.00  0.00     0.033 H 
BRANCH  25  28
ATOM     28  C10 DAO d          -2.766  14.606  17.747  0.00  0.00    -0.065 C 
ATOM     29  H17 DAO d          -1.714  14.368  17.534  0.00  0.00     0.033 H 
ATOM     30  H18 DAO d          -2.888  14.795  18.824  0.00  0.00     0.033 H 
BRANCH  28  31
ATOM     31  C11 DAO d          -3.158  15.852  16.980  0.00  0.00    -0.069 C 
ATOM     32  H19 DAO d          -4.240  15.833  16.784  0.00  0.00     0.032 H 
ATOM     33  H20 DAO d          -2.612  15.877  16.025  0.00  0.00     0.032 H 
BRANCH  31  34
ATOM     34  C12 DAO d          -2.817  17.084  17.781  0.00  0.00    -0.077 C 
ATOM     35  H21 DAO d          -3.052  17.982  17.191  0.00  0.00     0.027 H 
ATOM     36  H22 DAO d          -1.744  17.077  18.026  0.00  0.00     0.027 H 
ATOM     37  H23 DAO d          -3.405  17.091  18.710  0.00  0.00     0.027 H 
ENDBRANCH  31  34
ENDBRANCH  28  31
ENDBRANCH  25  28
ENDBRANCH  22  25
ENDBRANCH   1  22
TORSDOF 11
ENDMDL
MODEL 7
REMARK VINA RESULT:      -4.7      3.974      8.118
REMARK  11 active torsions:
REMARK  status: ('A' for Active; 'I' for Inactive)
REMARK    1  A    between atoms: C1_3  and  C2_4 
REMARK    2  A    between atoms: C2_4  and  C3_5 
REMARK    3  A    between atoms: C3_5  and  C4_6 
REMARK    4  A    between atoms: C4_6  and  C5_7 
REMARK    5  A    between atoms: C5_7  and  C6_8 
REMARK    6  A    between atoms: C6_8  and  C7_9 
REMARK    7  A    between atoms: C7_9  and  C8_10 
REMARK    8  A    between atoms: C8_10  and  C9_11 
REMARK    9  A    between atoms: C9_11  and  C10_12 
REMARK   10  A    between atoms: C10_12  and  C11_13 
REMARK   11  A    between atoms: C11_13  and  C12_14 
ROOT
ATOM      1  C7  DAO d          -2.016   8.484  18.497  0.00  0.00    -0.065 C 
ATOM      2  H11 DAO d          -1.244   8.553  17.716  0.00  0.00     0.033 H 
ATOM      3  H12 DAO d          -2.975   8.200  18.040  0.00  0.00     0.033 H 
ENDROOT
BRANCH   1   4
ATOM      4  C6  DAO d          -2.173   9.860  19.152  0.00  0.00    -0.065 C 
ATOM      5  H9  DAO d          -3.205   9.978  19.516  0.00  0.00     0.033 H 
ATOM      6  H10 DAO d          -1.475   9.946  19.997  0.00  0.00     0.033 H 
BRANCH   4   7
ATOM      7  C5  DAO d          -1.869  10.943  18.129  0.00  0.00    -0.065 C 
ATOM      8  H7  DAO d          -0.896  11.392  18.376  0.00  0.00     0.033 H 
ATOM      9  H8  DAO d          -1.816  10.477  17.134  0.00  0.00     0.033 H 
BRANCH   7  10
ATOM     10  C4  DAO d          -2.916  12.052  18.088  0.00  0.00    -0.065 C 
ATOM     11  H5  DAO d          -3.443  12.009  17.123  0.00  0.00     0.033 H 
ATOM     12  H6  DAO d          -3.635  11.892  18.905  0.00  0.00     0.033 H 
BRANCH  10  13
ATOM     13  C3  DAO d          -2.288  13.445  18.248  0.00  0.00    -0.056 C 
ATOM     14  H3  DAO d          -2.117  13.636  19.318  0.00  0.00     0.033 H 
ATOM     15  H4  DAO d          -1.326  13.463  17.714  0.00  0.00     0.033 H 
BRANCH  13  16
ATOM     16  C2  DAO d          -3.185  14.553  17.686  0.00  0.00     0.016 C 
ATOM     17  H1  DAO d          -3.400  14.326  16.631  0.00  0.00     0.049 H 
ATOM     18  H2  DAO d          -4.125  14.564  18.257  0.00  0.00     0.049 H 
BRANCH  16  19
ATOM     19  C1  DAO d          -2.556  15.940  17.764  0.00  0.00     0.172 C 
ATOM     20  O1  DAO d          -1.476  16.097  18.389  0.00  0.00    -0.648 OA
ATOM     21  O2  DAO d          -3.107  16.911  17.198  0.00  0.00    -0.648 OA
ENDBRANCH  16  19
ENDBRANCH  13  16
ENDBRANCH  10  13
ENDBRANCH   7  10
ENDBRANCH   4   7
ENDBRANCH   1   4
BRANCH   1  22
ATOM     22  C8  DAO d          -1.609   7.403  19.492  0.00  0.00    -0.065 C 
ATOM     23  H13 DAO d          -2.380   7.331  20.273  0.00  0.00     0.033 H 
ATOM     24  H14 DAO d          -0.649   7.685  19.949  0.00  0.00     0.033 H 
BRANCH  22  25
ATOM     25  C9  DAO d          -1.456   6.049  18.830  0.00  0.00    -0.065 C 
ATOM     26  H15 DAO d          -2.077   5.321  19.374  0.00  0.00     0.033 H 
ATOM     27  H16 DAO d          -0.400   5.747  18.892  0.00  0.00     0.033 H 
BRANCH  25  28
ATOM     28  C10 DAO d          -1.877   6.043  17.359  0.00  0.00    -0.065 C 
ATOM     29  H17 DAO d          -1.002   5.809  16.736  0.00  0.00     0.033 H 
ATOM     30  H18 DAO d          -2.262   7.038  17.092  0.00  0.00     0.033 H 
BRANCH  28  31
ATOM     31  C11 DAO d          -2.956   5.011  17.105  0.00  0.00    -0.069 C 
ATOM     32  H19 DAO d          -2.686   4.071  17.609  0.00  0.00     0.032 H 
ATOM     33  H20 DAO d          -3.042   4.835  16.023  0.00  0.00     0.032 H 
BRANCH  31  34
ATOM     34  C12 DAO d          -4.279   5.502  17.638  0.00  0.00    -0.077 C 
ATOM     35  H21 DAO d          -4.834   6.008  16.834  0.00  0.00     0.027 H 
ATOM     36  H22 DAO d          -4.103   6.209  18.463  0.00  0.00     0.027 H 
ATOM     37  H23 DAO d          -4.866   4.648  18.006  0.00  0.00     0.027 H 
ENDBRANCH  31  34
ENDBRANCH  28  31
ENDBRANCH  25  28
ENDBRANCH  22  25
ENDBRANCH   1  22
TORSDOF 11
ENDMDL
MODEL 8
REMARK VINA RESULT:      -4.4      2.942      5.250
REMARK  11 active torsions:
REMARK  status: ('A' for Active; 'I' for Inactive)
REMARK    1  A    between atoms: C1_3  and  C2_4 
REMARK    2  A    between atoms: C2_4  and  C3_5 
REMARK    3  A    between atoms: C3_5  and  C4_6 
REMARK    4  A    between atoms: C4_6  and  C5_7 
REMARK    5  A    between atoms: C5_7  and  C6_8 
REMARK    6  A    between atoms: C6_8  and  C7_9 
REMARK    7  A    between atoms: C7_9  and  C8_10 
REMARK    8  A    between atoms: C8_10  and  C9_11 
REMARK    9  A    between atoms: C9_11  and  C10_12 
REMARK   10  A    between atoms: C10_12  and  C11_13 
REMARK   11  A    between atoms: C11_13  and  C12_14 
ROOT
ATOM      1  C7  DAO d          -2.148   8.881  19.013  0.00  0.00    -0.065 C 
ATOM      2  H11 DAO d          -2.573   8.603  18.037  0.00  0.00     0.033 H 
ATOM      3  H12 DAO d          -1.294   9.557  18.863  0.00  0.00     0.033 H 
ENDROOT
BRANCH   1   4
ATOM      4  C6  DAO d          -1.651   7.610  19.710  0.00  0.00    -0.065 C 
ATOM      5  H9  DAO d          -1.346   6.871  18.955  0.00  0.00     0.033 H 
ATOM      6  H10 DAO d          -0.792   7.856  20.351  0.00  0.00     0.033 H 
BRANCH   4   7
ATOM      7  C5  DAO d          -2.772   7.033  20.562  0.00  0.00    -0.065 C 
ATOM      8  H7  DAO d          -2.484   7.119  21.620  0.00  0.00     0.033 H 
ATOM      9  H8  DAO d          -3.684   7.619  20.381  0.00  0.00     0.033 H 
BRANCH   7  10
ATOM     10  C4  DAO d          -3.071   5.567  20.260  0.00  0.00    -0.065 C 
ATOM     11  H5  DAO d          -2.123   5.047  20.053  0.00  0.00     0.033 H 
ATOM     12  H6  DAO d          -3.552   5.115  21.139  0.00  0.00     0.033 H 
BRANCH  10  13
ATOM     13  C3  DAO d          -3.999   5.406  19.048  0.00  0.00    -0.056 C 
ATOM     14  H3  DAO d          -4.970   5.021  19.394  0.00  0.00     0.033 H 
ATOM     15  H4  DAO d          -4.143   6.391  18.578  0.00  0.00     0.033 H 
BRANCH  13  16
ATOM     16  C2  DAO d          -3.429   4.440  18.005  0.00  0.00     0.016 C 
ATOM     17  H1  DAO d          -3.159   3.502  18.510  0.00  0.00     0.049 H 
ATOM     18  H2  DAO d          -4.206   4.241  17.252  0.00  0.00     0.049 H 
BRANCH  16  19
ATOM     19  C1  DAO d          -2.193   4.979  17.292  0.00  0.00     0.172 C 
ATOM     20  O1  DAO d          -2.283   6.023  16.597  0.00  0.00    -0.648 OA
ATOM     21  O2  DAO d          -1.094   4.390  17.410  0.00  0.00    -0.648 OA
ENDBRANCH  16  19
ENDBRANCH  13  16
ENDBRANCH  10  13
ENDBRANCH   7  10
ENDBRANCH   4   7
ENDBRANCH   1   4
BRANCH   1  22
ATOM     22  C8  DAO d          -3.215   9.614  19.819  0.00  0.00    -0.065 C 
ATOM     23  H13 DAO d          -3.331   9.114  20.792  0.00  0.00     0.033 H 
ATOM     24  H14 DAO d          -4.167   9.571  19.270  0.00  0.00     0.033 H 
BRANCH  22  25
ATOM     25  C9  DAO d          -2.852  11.065  20.056  0.00  0.00    -0.065 C 
ATOM     26  H15 DAO d          -2.632  11.201  21.126  0.00  0.00     0.033 H 
ATOM     27  H16 DAO d          -3.712  11.691  19.777  0.00  0.00     0.033 H 
BRANCH  25  28
ATOM     28  C10 DAO d          -1.636  11.525  19.249  0.00  0.00    -0.065 C 
ATOM     29  H17 DAO d          -1.429  10.787  18.460  0.00  0.00     0.033 H 
ATOM     30  H18 DAO d          -0.767  11.598  19.919  0.00  0.00     0.033 H 
BRANCH  28  31
ATOM     31  C11 DAO d          -1.883  12.876  18.612  0.00  0.00    -0.069 C 
ATOM     32  H19 DAO d          -1.085  13.086  17.884  0.00  0.00     0.032 H 
ATOM     33  H20 DAO d          -1.881  13.652  19.392  0.00  0.00     0.032 H 
BRANCH  31  34
ATOM     34  C12 DAO d          -3.216  12.881  17.907  0.00  0.00    -0.077 C 
ATOM     35  H21 DAO d          -3.800  13.756  18.232  0.00  0.00     0.027 H 
ATOM     36  H22 DAO d          -3.767  11.961  18.155  0.00  0.00     0.027 H 
ATOM     37  H23 DAO d          -3.056  12.931  16.820  0.00  0.00     0.027 H 
ENDBRANCH  31  34
ENDBRANCH  28  31
ENDBRANCH  25  28
ENDBRANCH  22  25
ENDBRANCH   1  22
TORSDOF 11
ENDMDL
MODEL 9
REMARK VINA RESULT:      -4.4      3.756      8.105
REMARK  11 active torsions:
REMARK  status: ('A' for Active; 'I' for Inactive)
REMARK    1  A    between atoms: C1_3  and  C2_4 
REMARK    2  A    between atoms: C2_4  and  C3_5 
REMARK    3  A    between atoms: C3_5  and  C4_6 
REMARK    4  A    between atoms: C4_6  and  C5_7 
REMARK    5  A    between atoms: C5_7  and  C6_8 
REMARK    6  A    between atoms: C6_8  and  C7_9 
REMARK    7  A    between atoms: C7_9  and  C8_10 
REMARK    8  A    between atoms: C8_10  and  C9_11 
REMARK    9  A    between atoms: C9_11  and  C10_12 
REMARK   10  A    between atoms: C10_12  and  C11_13 
REMARK   11  A    between atoms: C11_13  and  C12_14 
ROOT
ATOM      1  C7  DAO d          -0.732   6.433  18.852  0.00  0.00    -0.065 C 
ATOM      2  H11 DAO d           0.262   6.859  19.058  0.00  0.00     0.033 H 
ATOM      3  H12 DAO d          -1.052   6.721  17.840  0.00  0.00     0.033 H 
ENDROOT
BRANCH   1   4
ATOM      4  C6  DAO d          -1.729   7.006  19.864  0.00  0.00    -0.065 C 
ATOM      5  H9  DAO d          -2.668   6.434  19.819  0.00  0.00     0.033 H 
ATOM      6  H10 DAO d          -1.306   6.936  20.877  0.00  0.00     0.033 H 
BRANCH   4   7
ATOM      7  C5  DAO d          -2.006   8.464  19.528  0.00  0.00    -0.065 C 
ATOM      8  H7  DAO d          -2.800   8.829  20.195  0.00  0.00     0.033 H 
ATOM      9  H8  DAO d          -1.086   9.041  19.702  0.00  0.00     0.033 H 
BRANCH   7  10
ATOM     10  C4  DAO d          -2.449   8.681  18.084  0.00  0.00    -0.065 C 
ATOM     11  H5  DAO d          -2.120   7.823  17.479  0.00  0.00     0.033 H 
ATOM     12  H6  DAO d          -3.546   8.749  18.056  0.00  0.00     0.033 H 
BRANCH  10  13
ATOM     13  C3  DAO d          -1.856   9.965  17.486  0.00  0.00    -0.056 C 
ATOM     14  H3  DAO d          -0.775   9.823  17.341  0.00  0.00     0.033 H 
ATOM     15  H4  DAO d          -2.334  10.157  16.514  0.00  0.00     0.033 H 
BRANCH  13  16
ATOM     16  C2  DAO d          -2.077  11.181  18.392  0.00  0.00     0.016 C 
ATOM     17  H1  DAO d          -1.956  10.863  19.438  0.00  0.00     0.049 H 
ATOM     18  H2  DAO d          -1.317  11.939  18.150  0.00  0.00     0.049 H 
BRANCH  16  19
ATOM     19  C1  DAO d          -3.456  11.813  18.236  0.00  0.00     0.172 C 
ATOM     20  O1  DAO d          -3.571  12.909  17.631  0.00  0.00    -0.648 OA
ATOM     21  O2  DAO d          -4.466  11.234  18.695  0.00  0.00    -0.648 OA
ENDBRANCH  16  19
ENDBRANCH  13  16
ENDBRANCH  10  13
ENDBRANCH   7  10
ENDBRANCH   4   7
ENDBRANCH   1   4
BRANCH   1  22
ATOM     22  C8  DAO d          -0.635   4.913  18.919  0.00  0.00    -0.065 C 
ATOM     23  H13 DAO d          -1.301   4.550  19.715  0.00  0.00     0.033 H 
ATOM     24  H14 DAO d           0.402   4.633  19.154  0.00  0.00     0.033 H 
BRANCH  22  25
ATOM     25  C9  DAO d          -1.034   4.259  17.612  0.00  0.00    -0.065 C 
ATOM     26  H15 DAO d          -1.498   3.287  17.834  0.00  0.00     0.033 H 
ATOM     27  H16 DAO d          -0.127   4.103  17.009  0.00  0.00     0.033 H 
BRANCH  25  28
ATOM     28  C10 DAO d          -2.023   5.093  16.795  0.00  0.00    -0.065 C 
ATOM     29  H17 DAO d          -1.690   5.119  15.747  0.00  0.00     0.033 H 
ATOM     30  H18 DAO d          -2.048   6.116  17.197  0.00  0.00     0.033 H 
BRANCH  28  31
ATOM     31  C11 DAO d          -3.416   4.503  16.858  0.00  0.00    -0.069 C 
ATOM     32  H19 DAO d          -3.369   3.509  17.328  0.00  0.00     0.032 H 
ATOM     33  H20 DAO d          -3.817   4.408  15.838  0.00  0.00     0.032 H 
BRANCH  31  34
ATOM     34  C12 DAO d          -4.322   5.397  17.668  0.00  0.00    -0.077 C 
ATOM     35  H21 DAO d          -5.371   5.121  17.483  0.00  0.00     0.027 H 
ATOM     36  H22 DAO d          -4.162   6.445  17.375  0.00  0.00     0.027 H 
ATOM     37  H23 DAO d          -4.095   5.276  18.737  0.00  0.00     0.027 H 
ENDBRANCH  31  34
ENDBRANCH  28  31
ENDBRANCH  25  28
ENDBRANCH  22  25
ENDBRANCH   1  22
TORSDOF 11
ENDMDL
MODEL 10
REMARK VINA RESULT:      -4.3      4.334      7.445
REMARK  11 active torsions:
REMARK  status: ('A' for Active; 'I' for Inactive)
REMARK    1  A    between atoms: C1_3  and  C2_4 
REMARK    2  A    between atoms: C2_4  and  C3_5 
REMARK    3  A    between atoms: C3_5  and  C4_6 
REMARK    4  A    between atoms: C4_6  and  C5_7 
REMARK    5  A    between atoms: C5_7  and  C6_8 
REMARK    6  A    between atoms: C6_8  and  C7_9 
REMARK    7  A    between atoms: C7_9  and  C8_10 
REMARK    8  A    between atoms: C8_10  and  C9_11 
REMARK    9  A    between atoms: C9_11  and  C10_12 
REMARK   10  A    between atoms: C10_12  and  C11_13 
REMARK   11  A    between atoms: C11_13  and  C12_14 
ROOT
ATOM      1  C7  DAO d          -2.054  12.610  19.404  0.00  0.00    -0.065 C 
ATOM      2  H11 DAO d          -3.082  12.228  19.489  0.00  0.00     0.033 H 
ATOM      3  H12 DAO d          -1.761  13.088  20.350  0.00  0.00     0.033 H 
ENDROOT
BRANCH   1   4
ATOM      4  C6  DAO d          -2.011  13.659  18.289  0.00  0.00    -0.065 C 
ATOM      5  H9  DAO d          -1.524  14.572  18.662  0.00  0.00     0.033 H 
ATOM      6  H10 DAO d          -1.443  13.263  17.435  0.00  0.00     0.033 H 
BRANCH   4   7
ATOM      7  C5  DAO d          -3.430  13.984  17.849  0.00  0.00    -0.065 C 
ATOM      8  H7  DAO d          -4.110  13.240  18.288  0.00  0.00     0.033 H 
ATOM      9  H8  DAO d          -3.690  14.985  18.223  0.00  0.00     0.033 H 
BRANCH   7  10
ATOM     10  C4  DAO d          -3.614  13.972  16.334  0.00  0.00    -0.065 C 
ATOM     11  H5  DAO d          -2.973  13.186  15.905  0.00  0.00     0.033 H 
ATOM     12  H6  DAO d          -4.667  13.751  16.105  0.00  0.00     0.033 H 
BRANCH  10  13
ATOM     13  C3  DAO d          -3.241  15.318  15.697  0.00  0.00    -0.056 C 
ATOM     14  H3  DAO d          -2.235  15.605  16.039  0.00  0.00     0.033 H 
ATOM     15  H4  DAO d          -3.237  15.204  14.602  0.00  0.00     0.033 H 
BRANCH  13  16
ATOM     16  C2  DAO d          -4.226  16.430  16.073  0.00  0.00     0.016 C 
ATOM     17  H1  DAO d          -4.799  16.706  15.176  0.00  0.00     0.049 H 
ATOM     18  H2  DAO d          -4.912  16.043  16.841  0.00  0.00     0.049 H 
BRANCH  16  19
ATOM     19  C1  DAO d          -3.547  17.683  16.617  0.00  0.00     0.172 C 
ATOM     20  O1  DAO d          -3.645  18.765  15.985  0.00  0.00    -0.648 OA
ATOM     21  O2  DAO d          -2.909  17.633  17.693  0.00  0.00    -0.648 OA
ENDBRANCH  16  19
ENDBRANCH  13  16
ENDBRANCH  10  13
ENDBRANCH   7  10
ENDBRANCH   4   7
ENDBRANCH   1   4
BRANCH   1  22
ATOM     22  C8  DAO d          -1.117  11.435  19.141  0.00  0.00    -0.065 C 
ATOM     23  H13 DAO d          -0.257  11.508  19.822  0.00  0.00     0.033 H 
ATOM     24  H14 DAO d          -0.767  11.487  18.100  0.00  0.00     0.033 H 
BRANCH  22  25
ATOM     25  C9  DAO d          -1.803  10.101  19.360  0.00  0.00    -0.065 C 
ATOM     26  H15 DAO d          -1.456   9.683  20.317  0.00  0.00     0.033 H 
ATOM     27  H16 DAO d          -1.520   9.425  18.540  0.00  0.00     0.033 H 
BRANCH  25  28
ATOM     28  C10 DAO d          -3.328  10.204  19.400  0.00  0.00    -0.065 C 
ATOM     29  H17 DAO d          -3.749   9.634  18.558  0.00  0.00     0.033 H 
ATOM     30  H18 DAO d          -3.620  11.261  19.310  0.00  0.00     0.033 H 
BRANCH  28  31
ATOM     31  C11 DAO d          -3.879   9.649  20.697  0.00  0.00    -0.069 C 
ATOM     32  H19 DAO d          -4.974   9.759  20.704  0.00  0.00     0.032 H 
ATOM     33  H20 DAO d          -3.448  10.205  21.542  0.00  0.00     0.032 H 
BRANCH  31  34
ATOM     34  C12 DAO d          -3.523   8.188  20.828  0.00  0.00    -0.077 C 
ATOM     35  H21 DAO d          -4.012   7.770  21.721  0.00  0.00     0.027 H 
ATOM     36  H22 DAO d          -2.432   8.083  20.925  0.00  0.00     0.027 H 
ATOM     37  H23 DAO d          -3.866   7.646  19.935  0.00  0.00     0.027 H 
ENDBRANCH  31  34
ENDBRANCH  28  31
ENDBRANCH  25  28
ENDBRANCH  22  25
ENDBRANCH   1  22
TORSDOF 11
ENDMDL
