REMARK  11 active torsions:
REMARK  status: ('A' for Active; 'I' for Inactive)
REMARK    1  A    between atoms: CAB_1  and  CAR_2 
REMARK    2  A    between atoms: CAR_2  and  CAC_3 
REMARK    3  A    between atoms: CAG_4  and  CAN_5 
REMARK    4  A    between atoms: CAN_5  and  CAX_6 
REMARK    5  A    between atoms: CAW_7  and  OAQ_9 
REMARK    6  A    between atoms: OAQ_9  and  CAA_10 
REMARK    7  A    between atoms: CAU_11  and  OAF_12 
REMARK    8  A    between atoms: CAY_13  and  CAS_14 
REMARK    9  A    between atoms: CAV_17  and  CAP_18 
REMARK   10  A    between atoms: CAP_18  and  CAO_19 
REMARK   11  A    between atoms: CAO_19  and  CAT_20 
ROOT
ATOM      1  CAX YFE d          16.904  19.693  47.609  0.00  0.00     0.013 A 
ATOM      2  CAW YFE d          15.597  20.168  47.737  0.00  0.00     0.078 A 
ATOM      3  CAM YFE d          15.321  21.457  48.194  0.00  0.00    -0.043 A 
ATOM      4  CAU YFE d          17.923  20.569  47.984  0.00  0.00     0.092 A 
ATOM      5  CAY YFE d          17.663  21.863  48.441  0.00  0.00     0.080 A 
ATOM      6  CAV YFE d          16.341  22.318  48.569  0.00  0.00    -0.035 A 
ATOM      7  H10 YFE d          14.292  21.791  48.257  0.00  0.00     0.088 H 
ENDROOT
BRANCH   6   8
ATOM      8  CAP YFE d          15.904  23.717  49.039  0.00  0.00    -0.036 C 
ATOM      9  H15 YFE d          14.951  23.964  48.548  0.00  0.00     0.040 H 
ATOM     10  H16 YFE d          16.673  24.441  48.731  0.00  0.00     0.040 H 
BRANCH   8  11
ATOM     11  CAO YFE d          15.712  23.837  50.540  0.00  0.00    -0.037 C 
ATOM     12  H17 YFE d          16.677  23.654  51.036  0.00  0.00     0.040 H 
ATOM     13  H18 YFE d          14.983  23.080  50.865  0.00  0.00     0.040 H 
BRANCH  11  14
ATOM     14  CAT YFE d          15.198  25.230  50.954  0.00  0.00    -0.058 A 
ATOM     15  CAK YFE d          14.802  26.175  50.009  0.00  0.00    -0.077 A 
ATOM     16  CAI YFE d          14.335  27.432  50.413  0.00  0.00    -0.082 A 
ATOM     17  H19 YFE d          14.856  25.935  48.953  0.00  0.00     0.084 H 
ATOM     18  CAH YFE d          14.270  27.741  51.771  0.00  0.00    -0.083 A 
ATOM     19  H20 YFE d          14.025  28.161  49.673  0.00  0.00     0.083 H 
ATOM     20  CAJ YFE d          14.667  26.795  52.728  0.00  0.00    -0.082 A 
ATOM     21  H21 YFE d          13.912  28.714  52.088  0.00  0.00     0.083 H 
ATOM     22  CAL YFE d          15.130  25.547  52.313  0.00  0.00    -0.077 A 
ATOM     23  H22 YFE d          14.614  27.033  53.784  0.00  0.00     0.083 H 
ATOM     24  H23 YFE d          15.440  24.816  53.051  0.00  0.00     0.084 H 
ENDBRANCH  11  14
ENDBRANCH   8  11
ENDBRANCH   6   8
BRANCH   5  25
ATOM     25  CAS YFE d          18.862  22.751  48.828  0.00  0.00     0.212 C 
ATOM     26  OAE YFE d          19.990  22.204  48.847  0.00  0.00    -0.644 OA
ATOM     27  OAD YFE d          18.655  23.948  49.134  0.00  0.00    -0.644 OA
ENDBRANCH   5  25
BRANCH   2  28
ATOM     28  OAQ YFE d          14.552  19.357  47.413  0.00  0.00    -0.355 OA
BRANCH  28  29
ATOM     29  CAA YFE d          13.413  19.630  48.276  0.00  0.00     0.010 C 
ATOM     30  H11 YFE d          12.578  18.968  48.002  0.00  0.00     0.066 H 
ATOM     31  H12 YFE d          13.104  20.679  48.155  0.00  0.00     0.066 H 
ATOM     32  H13 YFE d          13.695  19.450  49.324  0.00  0.00     0.066 H 
ENDBRANCH  28  29
ENDBRANCH   2  28
BRANCH   4  33
ATOM     33  OAF YFE d          19.216  20.159  47.890  0.00  0.00    -0.359 OA
ATOM     34  H14 YFE d          19.791  20.858  48.178  0.00  0.00     0.217 HD
ENDBRANCH   4  33
BRANCH   1  35
ATOM     35  CAN YFE d          17.227  18.266  47.078  0.00  0.00    -0.020 C 
ATOM     36  H8  YFE d          18.317  18.133  47.016  0.00  0.00     0.046 H 
ATOM     37  H9  YFE d          16.804  17.514  47.760  0.00  0.00     0.046 H 
BRANCH  35  38
ATOM     38  CAG YFE d          16.660  18.118  45.800  0.00  0.00    -0.097 C 
ATOM     39  CAR YFE d          17.179  17.810  44.524  0.00  0.00    -0.091 C 
ATOM     40  H7  YFE d          15.582  18.276  45.793  0.00  0.00     0.077 H 
BRANCH  39  41
ATOM     41  CAB YFE d          18.664  17.511  44.248  0.00  0.00    -0.055 C 
ATOM     42  H1  YFE d          18.803  17.303  43.177  0.00  0.00     0.033 H 
ATOM     43  H2  YFE d          18.977  16.635  44.836  0.00  0.00     0.033 H 
ATOM     44  H3  YFE d          19.273  18.381  44.534  0.00  0.00     0.033 H 
ENDBRANCH  39  41
BRANCH  39  45
ATOM     45  CAC YFE d          16.208  17.733  43.322  0.00  0.00    -0.055 C 
ATOM     46  H4  YFE d          15.188  17.968  43.659  0.00  0.00     0.033 H 
ATOM     47  H5  YFE d          16.230  16.718  42.898  0.00  0.00     0.033 H 
ATOM     48  H6  YFE d          16.516  18.458  42.555  0.00  0.00     0.033 H 
ENDBRANCH  39  45
ENDBRANCH  35  38
ENDBRANCH   1  35
TORSDOF 11
