MODEL 1
REMARK VINA RESULT:      -4.2      0.000      0.000
REMARK  13 active torsions:
REMARK  status: ('A' for Active; 'I' for Inactive)
REMARK    1  A    between atoms: N1_1  and  C2_2 
REMARK    2  A    between atoms: C2_2  and  C3_3 
REMARK    3  A    between atoms: C3_3  and  C4_4 
REMARK    4  A    between atoms: C4_4  and  N5_5 
REMARK    5  A    between atoms: N5_5  and  C6_6 
REMARK    6  A    between atoms: C6_6  and  C7_7 
REMARK    7  A    between atoms: C7_7  and  C8_8 
REMARK    8  A    between atoms: C8_8  and  C9_9 
REMARK    9  A    between atoms: C9_9  and  N10_10 
REMARK   10  A    between atoms: N10_10  and  C11_11 
REMARK   11  A    between atoms: C11_11  and  C12_12 
REMARK   12  A    between atoms: C12_12  and  C13_13 
REMARK   13  A    between atoms: C13_13  and  N14_14 
ROOT
ATOM      1  C7  SPM d          -5.878   5.540  14.562  0.00  0.00    -0.041 C 
ATOM      2  H14 SPM d          -6.860   6.034  14.609  0.00  0.00     0.035 H 
ATOM      3  H15 SPM d          -5.254   5.887  15.399  0.00  0.00     0.035 H 
ENDROOT
BRANCH   1   4
ATOM      4  C6  SPM d          -5.201   5.812  13.236  0.00  0.00     0.082 C 
ATOM      5  H12 SPM d          -4.791   4.862  12.860  0.00  0.00     0.075 H 
ATOM      6  H13 SPM d          -5.961   6.185  12.534  0.00  0.00     0.075 H 
BRANCH   4   7
ATOM      7  N5  SPM d          -4.121   6.781  13.288  0.00  0.00    -0.075 N 
ATOM      8  H10 SPM d          -3.527   6.613  12.490  0.00  0.00     0.277 HD
ATOM      9  H11 SPM d          -4.535   7.697  13.211  0.00  0.00     0.277 HD
BRANCH   7  10
ATOM     10  C4  SPM d          -3.276   6.787  14.460  0.00  0.00     0.083 C 
ATOM     11  H8  SPM d          -3.301   7.798  14.894  0.00  0.00     0.075 H 
ATOM     12  H9  SPM d          -3.687   6.067  15.182  0.00  0.00     0.075 H 
BRANCH  10  13
ATOM     13  C3  SPM d          -1.812   6.417  14.197  0.00  0.00    -0.020 C 
ATOM     14  H6  SPM d          -1.438   7.018  13.356  0.00  0.00     0.037 H 
ATOM     15  H7  SPM d          -1.221   6.639  15.099  0.00  0.00     0.037 H 
BRANCH  13  16
ATOM     16  C2  SPM d          -1.658   4.951  13.859  0.00  0.00     0.081 C 
ATOM     17  H4  SPM d          -2.580   4.575  13.392  0.00  0.00     0.075 H 
ATOM     18  H5  SPM d          -0.815   4.814  13.165  0.00  0.00     0.075 H 
BRANCH  16  19
ATOM     19  N1  SPM d          -1.404   4.238  15.086  0.00  0.00    -0.079 N 
ATOM     20  H1  SPM d          -0.744   4.756  15.646  0.00  0.00     0.274 HD
ATOM     21  H2  SPM d          -1.023   3.329  14.874  0.00  0.00     0.274 HD
ATOM     22  H3  SPM d          -2.266   4.129  15.596  0.00  0.00     0.274 HD
ENDBRANCH  16  19
ENDBRANCH  13  16
ENDBRANCH  10  13
ENDBRANCH   7  10
ENDBRANCH   4   7
ENDBRANCH   1   4
BRANCH   1  23
ATOM     23  C8  SPM d          -6.031   4.030  14.591  0.00  0.00    -0.041 C 
ATOM     24  H16 SPM d          -6.267   3.654  13.585  0.00  0.00     0.035 H 
ATOM     25  H17 SPM d          -6.834   3.743  15.287  0.00  0.00     0.035 H 
BRANCH  23  26
ATOM     26  C9  SPM d          -4.717   3.468  15.059  0.00  0.00     0.082 C 
ATOM     27  H18 SPM d          -4.650   3.563  16.153  0.00  0.00     0.075 H 
ATOM     28  H19 SPM d          -3.894   4.029  14.591  0.00  0.00     0.075 H 
BRANCH  26  29
ATOM     29  N10 SPM d          -4.612   2.075  14.695  0.00  0.00    -0.075 N 
ATOM     30  H20 SPM d          -3.723   1.980  14.228  0.00  0.00     0.277 HD
ATOM     31  H21 SPM d          -5.357   1.908  14.037  0.00  0.00     0.277 HD
BRANCH  29  32
ATOM     32  C11 SPM d          -4.674   0.998  15.637  0.00  0.00     0.083 C 
ATOM     33  H22 SPM d          -3.673   0.559  15.754  0.00  0.00     0.075 H 
ATOM     34  H23 SPM d          -5.371   0.231  15.268  0.00  0.00     0.075 H 
BRANCH  32  35
ATOM     35  C12 SPM d          -5.157   1.514  16.977  0.00  0.00    -0.020 C 
ATOM     36  H24 SPM d          -5.456   2.566  16.864  0.00  0.00     0.037 H 
ATOM     37  H25 SPM d          -4.331   1.442  17.701  0.00  0.00     0.037 H 
BRANCH  35  38
ATOM     38  C13 SPM d          -6.347   0.721  17.513  0.00  0.00     0.081 C 
ATOM     39  H26 SPM d          -6.323   0.736  18.612  0.00  0.00     0.075 H 
ATOM     40  H27 SPM d          -6.274  -0.319  17.159  0.00  0.00     0.075 H 
BRANCH  38  41
ATOM     41  N14 SPM d          -7.600   1.288  17.060  0.00  0.00    -0.079 N 
ATOM     42  H28 SPM d          -7.609   2.277  17.251  0.00  0.00     0.274 HD
ATOM     43  H29 SPM d          -8.365   0.845  17.546  0.00  0.00     0.274 HD
ATOM     44  H30 SPM d          -7.699   1.135  16.068  0.00  0.00     0.274 HD
ENDBRANCH  38  41
ENDBRANCH  35  38
ENDBRANCH  32  35
ENDBRANCH  29  32
ENDBRANCH  26  29
ENDBRANCH  23  26
ENDBRANCH   1  23
TORSDOF 13
ENDMDL
MODEL 2
REMARK VINA RESULT:      -4.2      1.046      5.511
REMARK  13 active torsions:
REMARK  status: ('A' for Active; 'I' for Inactive)
REMARK    1  A    between atoms: N1_1  and  C2_2 
REMARK    2  A    between atoms: C2_2  and  C3_3 
REMARK    3  A    between atoms: C3_3  and  C4_4 
REMARK    4  A    between atoms: C4_4  and  N5_5 
REMARK    5  A    between atoms: N5_5  and  C6_6 
REMARK    6  A    between atoms: C6_6  and  C7_7 
REMARK    7  A    between atoms: C7_7  and  C8_8 
REMARK    8  A    between atoms: C8_8  and  C9_9 
REMARK    9  A    between atoms: C9_9  and  N10_10 
REMARK   10  A    between atoms: N10_10  and  C11_11 
REMARK   11  A    between atoms: C11_11  and  C12_12 
REMARK   12  A    between atoms: C12_12  and  C13_13 
REMARK   13  A    between atoms: C13_13  and  N14_14 
ROOT
ATOM      1  C7  SPM d          -6.067   4.140  14.891  0.00  0.00    -0.041 C 
ATOM      2  H14 SPM d          -6.048   3.795  15.935  0.00  0.00     0.035 H 
ATOM      3  H15 SPM d          -7.081   4.016  14.483  0.00  0.00     0.035 H 
ENDROOT
BRANCH   1   4
ATOM      4  C6  SPM d          -5.054   3.386  14.056  0.00  0.00     0.082 C 
ATOM      5  H12 SPM d          -5.591   2.883  13.237  0.00  0.00     0.075 H 
ATOM      6  H13 SPM d          -4.347   4.116  13.635  0.00  0.00     0.075 H 
BRANCH   4   7
ATOM      7  N5  SPM d          -4.291   2.383  14.778  0.00  0.00    -0.075 N 
ATOM      8  H10 SPM d          -4.426   1.503  14.304  0.00  0.00     0.277 HD
ATOM      9  H11 SPM d          -3.320   2.647  14.724  0.00  0.00     0.277 HD
BRANCH   7  10
ATOM     10  C4  SPM d          -4.603   2.173  16.173  0.00  0.00     0.083 C 
ATOM     11  H8  SPM d          -3.656   2.097  16.728  0.00  0.00     0.075 H 
ATOM     12  H9  SPM d          -5.170   3.044  16.531  0.00  0.00     0.075 H 
BRANCH  10  13
ATOM     13  C3  SPM d          -5.428   0.915  16.463  0.00  0.00    -0.020 C 
ATOM     14  H6  SPM d          -5.669   0.419  15.512  0.00  0.00     0.037 H 
ATOM     15  H7  SPM d          -4.832   0.235  17.090  0.00  0.00     0.037 H 
BRANCH  13  16
ATOM     16  C2  SPM d          -6.717   1.244  17.184  0.00  0.00     0.081 C 
ATOM     17  H4  SPM d          -7.363   1.853  16.536  0.00  0.00     0.075 H 
ATOM     18  H5  SPM d          -7.241   0.316  17.456  0.00  0.00     0.075 H 
BRANCH  16  19
ATOM     19  N1  SPM d          -6.381   1.984  18.375  0.00  0.00    -0.079 N 
ATOM     20  H1  SPM d          -6.533   2.968  18.214  0.00  0.00     0.274 HD
ATOM     21  H2  SPM d          -5.412   1.828  18.606  0.00  0.00     0.274 HD
ATOM     22  H3  SPM d          -6.961   1.674  19.139  0.00  0.00     0.274 HD
ENDBRANCH  16  19
ENDBRANCH  13  16
ENDBRANCH  10  13
ENDBRANCH   7  10
ENDBRANCH   4   7
ENDBRANCH   1   4
BRANCH   1  23
ATOM     23  C8  SPM d          -5.618   5.586  14.792  0.00  0.00    -0.041 C 
ATOM     24  H16 SPM d          -4.853   5.798  15.553  0.00  0.00     0.035 H 
ATOM     25  H17 SPM d          -6.475   6.261  14.936  0.00  0.00     0.035 H 
BRANCH  23  26
ATOM     26  C9  SPM d          -5.042   5.771  13.415  0.00  0.00     0.082 C 
ATOM     27  H18 SPM d          -5.783   6.273  12.775  0.00  0.00     0.075 H 
ATOM     28  H19 SPM d          -4.797   4.786  12.988  0.00  0.00     0.075 H 
BRANCH  26  29
ATOM     29  N10 SPM d          -3.844   6.573  13.478  0.00  0.00    -0.075 N 
ATOM     30  H20 SPM d          -4.148   7.529  13.370  0.00  0.00     0.277 HD
ATOM     31  H21 SPM d          -3.292   6.304  12.679  0.00  0.00     0.277 HD
BRANCH  29  32
ATOM     32  C11 SPM d          -2.944   6.574  14.592  0.00  0.00     0.083 C 
ATOM     33  H22 SPM d          -3.519   6.493  15.525  0.00  0.00     0.075 H 
ATOM     34  H23 SPM d          -2.368   7.512  14.595  0.00  0.00     0.075 H 
BRANCH  32  35
ATOM     35  C12 SPM d          -1.991   5.401  14.485  0.00  0.00    -0.020 C 
ATOM     36  H24 SPM d          -2.515   4.490  14.811  0.00  0.00     0.037 H 
ATOM     37  H25 SPM d          -1.130   5.585  15.145  0.00  0.00     0.037 H 
BRANCH  35  38
ATOM     38  C13 SPM d          -1.482   5.190  13.061  0.00  0.00     0.081 C 
ATOM     39  H26 SPM d          -0.603   5.829  12.896  0.00  0.00     0.075 H 
ATOM     40  H27 SPM d          -2.276   5.468  12.351  0.00  0.00     0.075 H 
BRANCH  38  41
ATOM     41  N14 SPM d          -1.110   3.808  12.837  0.00  0.00    -0.079 N 
ATOM     42  H28 SPM d          -1.924   3.282  12.562  0.00  0.00     0.274 HD
ATOM     43  H29 SPM d          -0.730   3.420  13.686  0.00  0.00     0.274 HD
ATOM     44  H30 SPM d          -0.416   3.761  12.107  0.00  0.00     0.274 HD
ENDBRANCH  38  41
ENDBRANCH  35  38
ENDBRANCH  32  35
ENDBRANCH  29  32
ENDBRANCH  26  29
ENDBRANCH  23  26
ENDBRANCH   1  23
TORSDOF 13
ENDMDL
MODEL 3
REMARK VINA RESULT:      -4.1      1.705      2.587
REMARK  13 active torsions:
REMARK  status: ('A' for Active; 'I' for Inactive)
REMARK    1  A    between atoms: N1_1  and  C2_2 
REMARK    2  A    between atoms: C2_2  and  C3_3 
REMARK    3  A    between atoms: C3_3  and  C4_4 
REMARK    4  A    between atoms: C4_4  and  N5_5 
REMARK    5  A    between atoms: N5_5  and  C6_6 
REMARK    6  A    between atoms: C6_6  and  C7_7 
REMARK    7  A    between atoms: C7_7  and  C8_8 
REMARK    8  A    between atoms: C8_8  and  C9_9 
REMARK    9  A    between atoms: C9_9  and  N10_10 
REMARK   10  A    between atoms: N10_10  and  C11_11 
REMARK   11  A    between atoms: C11_11  and  C12_12 
REMARK   12  A    between atoms: C12_12  and  C13_13 
REMARK   13  A    between atoms: C13_13  and  N14_14 
ROOT
ATOM      1  C7  SPM d          -3.457   3.794  12.103  0.00  0.00    -0.041 C 
ATOM      2  H14 SPM d          -3.847   4.147  11.137  0.00  0.00     0.035 H 
ATOM      3  H15 SPM d          -3.708   4.524  12.887  0.00  0.00     0.035 H 
ENDROOT
BRANCH   1   4
ATOM      4  C6  SPM d          -1.961   3.572  12.033  0.00  0.00     0.082 C 
ATOM      5  H12 SPM d          -1.775   2.488  12.047  0.00  0.00     0.075 H 
ATOM      6  H13 SPM d          -1.598   3.993  11.083  0.00  0.00     0.075 H 
BRANCH   4   7
ATOM      7  N5  SPM d          -1.202   4.175  13.114  0.00  0.00    -0.075 N 
ATOM      8  H10 SPM d          -0.671   3.440  13.555  0.00  0.00     0.277 HD
ATOM      9  H11 SPM d          -0.570   4.844  12.701  0.00  0.00     0.277 HD
BRANCH   7  10
ATOM     10  C4  SPM d          -1.935   4.860  14.153  0.00  0.00     0.083 C 
ATOM     11  H8  SPM d          -3.000   4.610  14.042  0.00  0.00     0.075 H 
ATOM     12  H9  SPM d          -1.571   4.495  15.125  0.00  0.00     0.075 H 
BRANCH  10  13
ATOM     13  C3  SPM d          -1.798   6.386  14.136  0.00  0.00    -0.020 C 
ATOM     14  H6  SPM d          -0.935   6.674  14.754  0.00  0.00     0.037 H 
ATOM     15  H7  SPM d          -1.633   6.717  13.099  0.00  0.00     0.037 H 
BRANCH  13  16
ATOM     16  C2  SPM d          -3.037   7.065  14.677  0.00  0.00     0.081 C 
ATOM     17  H4  SPM d          -2.838   7.460  15.684  0.00  0.00     0.075 H 
ATOM     18  H5  SPM d          -3.331   7.890  14.012  0.00  0.00     0.075 H 
BRANCH  16  19
ATOM     19  N1  SPM d          -4.091   6.083  14.735  0.00  0.00    -0.079 N 
ATOM     20  H1  SPM d          -4.029   5.574  15.603  0.00  0.00     0.274 HD
ATOM     21  H2  SPM d          -3.996   5.442  13.962  0.00  0.00     0.274 HD
ATOM     22  H3  SPM d          -4.985   6.545  14.679  0.00  0.00     0.274 HD
ENDBRANCH  16  19
ENDBRANCH  13  16
ENDBRANCH  10  13
ENDBRANCH   7  10
ENDBRANCH   4   7
ENDBRANCH   1   4
BRANCH   1  23
ATOM     23  C8  SPM d          -4.014   2.424  12.443  0.00  0.00    -0.041 C 
ATOM     24  H16 SPM d          -3.192   1.718  12.633  0.00  0.00     0.035 H 
ATOM     25  H17 SPM d          -4.633   2.050  11.613  0.00  0.00     0.035 H 
BRANCH  23  26
ATOM     26  C9  SPM d          -4.852   2.588  13.681  0.00  0.00     0.082 C 
ATOM     27  H18 SPM d          -5.812   2.069  13.541  0.00  0.00     0.075 H 
ATOM     28  H19 SPM d          -5.036   3.658  13.856  0.00  0.00     0.075 H 
BRANCH  26  29
ATOM     29  N10 SPM d          -4.170   2.028  14.823  0.00  0.00    -0.075 N 
ATOM     30  H20 SPM d          -3.226   2.382  14.779  0.00  0.00     0.277 HD
ATOM     31  H21 SPM d          -4.163   1.031  14.676  0.00  0.00     0.277 HD
BRANCH  29  32
ATOM     32  C11 SPM d          -4.595   2.220  16.177  0.00  0.00     0.083 C 
ATOM     33  H22 SPM d          -4.047   3.068  16.614  0.00  0.00     0.075 H 
ATOM     34  H23 SPM d          -4.385   1.309  16.758  0.00  0.00     0.075 H 
BRANCH  32  35
ATOM     35  C12 SPM d          -6.081   2.510  16.214  0.00  0.00    -0.020 C 
ATOM     36  H24 SPM d          -6.472   2.484  15.187  0.00  0.00     0.037 H 
ATOM     37  H25 SPM d          -6.234   3.512  16.641  0.00  0.00     0.037 H 
BRANCH  35  38
ATOM     38  C13 SPM d          -6.852   1.496  17.057  0.00  0.00     0.081 C 
ATOM     39  H26 SPM d          -7.649   1.052  16.443  0.00  0.00     0.075 H 
ATOM     40  H27 SPM d          -7.298   2.012  17.920  0.00  0.00     0.075 H 
BRANCH  38  41
ATOM     41  N14 SPM d          -5.981   0.442  17.535  0.00  0.00    -0.079 N 
ATOM     42  H28 SPM d          -5.651  -0.101  16.752  0.00  0.00     0.274 HD
ATOM     43  H29 SPM d          -6.491  -0.156  18.166  0.00  0.00     0.274 HD
ATOM     44  H30 SPM d          -5.196   0.848  18.019  0.00  0.00     0.274 HD
ENDBRANCH  38  41
ENDBRANCH  35  38
ENDBRANCH  32  35
ENDBRANCH  29  32
ENDBRANCH  26  29
ENDBRANCH  23  26
ENDBRANCH   1  23
TORSDOF 13
ENDMDL
MODEL 4
REMARK VINA RESULT:      -4.0      1.695      5.314
REMARK  13 active torsions:
REMARK  status: ('A' for Active; 'I' for Inactive)
REMARK    1  A    between atoms: N1_1  and  C2_2 
REMARK    2  A    between atoms: C2_2  and  C3_3 
REMARK    3  A    between atoms: C3_3  and  C4_4 
REMARK    4  A    between atoms: C4_4  and  N5_5 
REMARK    5  A    between atoms: N5_5  and  C6_6 
REMARK    6  A    between atoms: C6_6  and  C7_7 
REMARK    7  A    between atoms: C7_7  and  C8_8 
REMARK    8  A    between atoms: C8_8  and  C9_9 
REMARK    9  A    between atoms: C9_9  and  N10_10 
REMARK   10  A    between atoms: N10_10  and  C11_11 
REMARK   11  A    between atoms: C11_11  and  C12_12 
REMARK   12  A    between atoms: C12_12  and  C13_13 
REMARK   13  A    between atoms: C13_13  and  N14_14 
ROOT
ATOM      1  C7  SPM d          -3.995   3.034  12.293  0.00  0.00    -0.041 C 
ATOM      2  H14 SPM d          -4.222   3.687  13.148  0.00  0.00     0.035 H 
ATOM      3  H15 SPM d          -4.635   3.310  11.442  0.00  0.00     0.035 H 
ENDROOT
BRANCH   1   4
ATOM      4  C6  SPM d          -4.184   1.578  12.661  0.00  0.00     0.082 C 
ATOM      5  H12 SPM d          -5.120   1.227  12.200  0.00  0.00     0.075 H 
ATOM      6  H13 SPM d          -3.338   1.009  12.250  0.00  0.00     0.075 H 
BRANCH   4   7
ATOM      7  N5  SPM d          -4.257   1.312  14.087  0.00  0.00    -0.075 N 
ATOM      8  H10 SPM d          -4.805   0.475  14.210  0.00  0.00     0.277 HD
ATOM      9  H11 SPM d          -3.316   1.148  14.410  0.00  0.00     0.277 HD
BRANCH   7  10
ATOM     10  C4  SPM d          -4.832   2.330  14.935  0.00  0.00     0.083 C 
ATOM     11  H8  SPM d          -4.204   3.231  14.861  0.00  0.00     0.075 H 
ATOM     12  H9  SPM d          -5.842   2.555  14.563  0.00  0.00     0.075 H 
BRANCH  10  13
ATOM     13  C3  SPM d          -4.943   1.946  16.414  0.00  0.00    -0.020 C 
ATOM     14  H6  SPM d          -4.834   0.856  16.508  0.00  0.00     0.037 H 
ATOM     15  H7  SPM d          -4.137   2.445  16.973  0.00  0.00     0.037 H 
BRANCH  13  16
ATOM     16  C2  SPM d          -6.275   2.358  17.001  0.00  0.00     0.081 C 
ATOM     17  H4  SPM d          -6.132   2.732  18.026  0.00  0.00     0.075 H 
ATOM     18  H5  SPM d          -6.727   3.147  16.383  0.00  0.00     0.075 H 
BRANCH  16  19
ATOM     19  N1  SPM d          -7.129   1.197  17.017  0.00  0.00    -0.079 N 
ATOM     20  H1  SPM d          -8.030   1.448  17.394  0.00  0.00     0.274 HD
ATOM     21  H2  SPM d          -6.713   0.481  17.592  0.00  0.00     0.274 HD
ATOM     22  H3  SPM d          -7.242   0.850  16.078  0.00  0.00     0.274 HD
ENDBRANCH  16  19
ENDBRANCH  13  16
ENDBRANCH  10  13
ENDBRANCH   7  10
ENDBRANCH   4   7
ENDBRANCH   1   4
BRANCH   1  23
ATOM     23  C8  SPM d          -2.527   3.128  11.917  0.00  0.00    -0.041 C 
ATOM     24  H16 SPM d          -2.411   3.064  10.826  0.00  0.00     0.035 H 
ATOM     25  H17 SPM d          -1.961   2.314  12.395  0.00  0.00     0.035 H 
BRANCH  23  26
ATOM     26  C9  SPM d          -2.034   4.460  12.413  0.00  0.00     0.082 C 
ATOM     27  H18 SPM d          -2.864   5.182  12.400  0.00  0.00     0.075 H 
ATOM     28  H19 SPM d          -1.227   4.816  11.754  0.00  0.00     0.075 H 
BRANCH  26  29
ATOM     29  N10 SPM d          -1.531   4.336  13.760  0.00  0.00    -0.075 N 
ATOM     30  H20 SPM d          -0.605   4.736  13.744  0.00  0.00     0.277 HD
ATOM     31  H21 SPM d          -1.466   3.346  13.938  0.00  0.00     0.277 HD
BRANCH  29  32
ATOM     32  C11 SPM d          -2.178   4.898  14.907  0.00  0.00     0.083 C 
ATOM     33  H22 SPM d          -1.423   5.151  15.664  0.00  0.00     0.075 H 
ATOM     34  H23 SPM d          -2.884   4.163  15.323  0.00  0.00     0.075 H 
BRANCH  32  35
ATOM     35  C12 SPM d          -2.932   6.150  14.511  0.00  0.00    -0.020 C 
ATOM     36  H24 SPM d          -2.682   6.399  13.469  0.00  0.00     0.037 H 
ATOM     37  H25 SPM d          -2.619   6.974  15.170  0.00  0.00     0.037 H 
BRANCH  35  38
ATOM     38  C13 SPM d          -4.446   5.981  14.624  0.00  0.00     0.081 C 
ATOM     39  H26 SPM d          -4.828   6.672  15.389  0.00  0.00     0.075 H 
ATOM     40  H27 SPM d          -4.670   4.945  14.921  0.00  0.00     0.075 H 
BRANCH  38  41
ATOM     41  N14 SPM d          -5.100   6.263  13.363  0.00  0.00    -0.079 N 
ATOM     42  H28 SPM d          -5.771   7.004  13.492  0.00  0.00     0.274 HD
ATOM     43  H29 SPM d          -5.573   5.435  13.036  0.00  0.00     0.274 HD
ATOM     44  H30 SPM d          -4.412   6.546  12.683  0.00  0.00     0.274 HD
ENDBRANCH  38  41
ENDBRANCH  35  38
ENDBRANCH  32  35
ENDBRANCH  29  32
ENDBRANCH  26  29
ENDBRANCH  23  26
ENDBRANCH   1  23
TORSDOF 13
ENDMDL
MODEL 5
REMARK VINA RESULT:      -3.9      1.356      5.244
REMARK  13 active torsions:
REMARK  status: ('A' for Active; 'I' for Inactive)
REMARK    1  A    between atoms: N1_1  and  C2_2 
REMARK    2  A    between atoms: C2_2  and  C3_3 
REMARK    3  A    between atoms: C3_3  and  C4_4 
REMARK    4  A    between atoms: C4_4  and  N5_5 
REMARK    5  A    between atoms: N5_5  and  C6_6 
REMARK    6  A    between atoms: C6_6  and  C7_7 
REMARK    7  A    between atoms: C7_7  and  C8_8 
REMARK    8  A    between atoms: C8_8  and  C9_9 
REMARK    9  A    between atoms: C9_9  and  N10_10 
REMARK   10  A    between atoms: N10_10  and  C11_11 
REMARK   11  A    between atoms: C11_11  and  C12_12 
REMARK   12  A    between atoms: C12_12  and  C13_13 
REMARK   13  A    between atoms: C13_13  and  N14_14 
ROOT
ATOM      1  C7  SPM d          -5.645   5.648  14.818  0.00  0.00    -0.041 C 
ATOM      2  H14 SPM d          -4.771   6.111  15.300  0.00  0.00     0.035 H 
ATOM      3  H15 SPM d          -6.511   5.711  15.493  0.00  0.00     0.035 H 
ENDROOT
BRANCH   1   4
ATOM      4  C6  SPM d          -5.355   4.210  14.444  0.00  0.00     0.082 C 
ATOM      5  H12 SPM d          -5.371   4.132  13.347  0.00  0.00     0.075 H 
ATOM      6  H13 SPM d          -4.351   3.956  14.815  0.00  0.00     0.075 H 
BRANCH   4   7
ATOM      7  N5  SPM d          -6.293   3.238  14.980  0.00  0.00    -0.075 N 
ATOM      8  H10 SPM d          -7.197   3.441  14.581  0.00  0.00     0.277 HD
ATOM      9  H11 SPM d          -5.988   2.327  14.676  0.00  0.00     0.277 HD
BRANCH   7  10
ATOM     10  C4  SPM d          -6.459   3.180  16.414  0.00  0.00     0.083 C 
ATOM     11  H8  SPM d          -6.247   4.179  16.823  0.00  0.00     0.075 H 
ATOM     12  H9  SPM d          -7.505   2.911  16.626  0.00  0.00     0.075 H 
BRANCH  10  13
ATOM     13  C3  SPM d          -5.553   2.171  17.124  0.00  0.00    -0.020 C 
ATOM     14  H6  SPM d          -4.545   2.601  17.220  0.00  0.00     0.037 H 
ATOM     15  H7  SPM d          -5.961   1.969  18.126  0.00  0.00     0.037 H 
BRANCH  13  16
ATOM     16  C2  SPM d          -5.459   0.868  16.361  0.00  0.00     0.081 C 
ATOM     17  H4  SPM d          -5.649   0.022  17.039  0.00  0.00     0.075 H 
ATOM     18  H5  SPM d          -6.199   0.857  15.547  0.00  0.00     0.075 H 
BRANCH  16  19
ATOM     19  N1  SPM d          -4.128   0.769  15.816  0.00  0.00    -0.079 N 
ATOM     20  H1  SPM d          -3.567   1.534  16.158  0.00  0.00     0.274 HD
ATOM     21  H2  SPM d          -4.173   0.810  14.810  0.00  0.00     0.274 HD
ATOM     22  H3  SPM d          -3.713  -0.105  16.098  0.00  0.00     0.274 HD
ENDBRANCH  16  19
ENDBRANCH  13  16
ENDBRANCH  10  13
ENDBRANCH   7  10
ENDBRANCH   4   7
ENDBRANCH   1   4
BRANCH   1  23
ATOM     23  C8  SPM d          -5.946   6.317  13.489  0.00  0.00    -0.041 C 
ATOM     24  H16 SPM d          -5.999   7.408  13.618  0.00  0.00     0.035 H 
ATOM     25  H17 SPM d          -6.902   5.949  13.087  0.00  0.00     0.035 H 
BRANCH  23  26
ATOM     26  C9  SPM d          -4.821   5.960  12.556  0.00  0.00     0.082 C 
ATOM     27  H18 SPM d          -5.210   5.888  11.530  0.00  0.00     0.075 H 
ATOM     28  H19 SPM d          -4.395   4.991  12.856  0.00  0.00     0.075 H 
BRANCH  26  29
ATOM     29  N10 SPM d          -3.791   6.970  12.607  0.00  0.00    -0.075 N 
ATOM     30  H20 SPM d          -3.872   7.399  13.516  0.00  0.00     0.277 HD
ATOM     31  H21 SPM d          -4.032   7.642  11.896  0.00  0.00     0.277 HD
BRANCH  29  32
ATOM     32  C11 SPM d          -2.397   6.696  12.429  0.00  0.00     0.083 C 
ATOM     33  H22 SPM d          -1.805   7.495  12.897  0.00  0.00     0.075 H 
ATOM     34  H23 SPM d          -2.169   6.652  11.353  0.00  0.00     0.075 H 
BRANCH  32  35
ATOM     35  C12 SPM d          -2.047   5.369  13.072  0.00  0.00    -0.020 C 
ATOM     36  H24 SPM d          -1.103   5.006  12.639  0.00  0.00     0.037 H 
ATOM     37  H25 SPM d          -2.851   4.650  12.856  0.00  0.00     0.037 H 
BRANCH  35  38
ATOM     38  C13 SPM d          -1.882   5.481  14.585  0.00  0.00     0.081 C 
ATOM     39  H26 SPM d          -2.829   5.823  15.026  0.00  0.00     0.075 H 
ATOM     40  H27 SPM d          -1.089   6.211  14.807  0.00  0.00     0.075 H 
BRANCH  38  41
ATOM     41  N14 SPM d          -1.524   4.204  15.168  0.00  0.00    -0.079 N 
ATOM     42  H28 SPM d          -2.295   3.562  15.068  0.00  0.00     0.274 HD
ATOM     43  H29 SPM d          -1.315   4.328  16.147  0.00  0.00     0.274 HD
ATOM     44  H30 SPM d          -0.714   3.834  14.697  0.00  0.00     0.274 HD
ENDBRANCH  38  41
ENDBRANCH  35  38
ENDBRANCH  32  35
ENDBRANCH  29  32
ENDBRANCH  26  29
ENDBRANCH  23  26
ENDBRANCH   1  23
TORSDOF 13
ENDMDL
MODEL 6
REMARK VINA RESULT:      -3.7      1.755      4.845
REMARK  13 active torsions:
REMARK  status: ('A' for Active; 'I' for Inactive)
REMARK    1  A    between atoms: N1_1  and  C2_2 
REMARK    2  A    between atoms: C2_2  and  C3_3 
REMARK    3  A    between atoms: C3_3  and  C4_4 
REMARK    4  A    between atoms: C4_4  and  N5_5 
REMARK    5  A    between atoms: N5_5  and  C6_6 
REMARK    6  A    between atoms: C6_6  and  C7_7 
REMARK    7  A    between atoms: C7_7  and  C8_8 
REMARK    8  A    between atoms: C8_8  and  C9_9 
REMARK    9  A    between atoms: C9_9  and  N10_10 
REMARK   10  A    between atoms: N10_10  and  C11_11 
REMARK   11  A    between atoms: C11_11  and  C12_12 
REMARK   12  A    between atoms: C12_12  and  C13_13 
REMARK   13  A    between atoms: C13_13  and  N14_14 
ROOT
ATOM      1  C7  SPM d          -5.715   5.639  14.079  0.00  0.00    -0.041 C 
ATOM      2  H14 SPM d          -6.420   6.451  14.307  0.00  0.00     0.035 H 
ATOM      3  H15 SPM d          -6.101   5.045  13.237  0.00  0.00     0.035 H 
ENDROOT
BRANCH   1   4
ATOM      4  C6  SPM d          -5.488   4.766  15.295  0.00  0.00     0.082 C 
ATOM      5  H12 SPM d          -4.403   4.625  15.417  0.00  0.00     0.075 H 
ATOM      6  H13 SPM d          -5.890   5.292  16.173  0.00  0.00     0.075 H 
BRANCH   4   7
ATOM      7  N5  SPM d          -6.109   3.454  15.231  0.00  0.00    -0.075 N 
ATOM      8  H10 SPM d          -6.907   3.529  14.619  0.00  0.00     0.277 HD
ATOM      9  H11 SPM d          -5.435   2.822  14.829  0.00  0.00     0.277 HD
BRANCH   7  10
ATOM     10  C4  SPM d          -6.570   2.865  16.467  0.00  0.00     0.083 C 
ATOM     11  H8  SPM d          -6.484   3.623  17.260  0.00  0.00     0.075 H 
ATOM     12  H9  SPM d          -7.626   2.585  16.339  0.00  0.00     0.075 H 
BRANCH  10  13
ATOM     13  C3  SPM d          -5.796   1.619  16.911  0.00  0.00    -0.020 C 
ATOM     14  H6  SPM d          -5.687   1.639  18.005  0.00  0.00     0.037 H 
ATOM     15  H7  SPM d          -6.362   0.723  16.615  0.00  0.00     0.037 H 
BRANCH  13  16
ATOM     16  C2  SPM d          -4.421   1.560  16.283  0.00  0.00     0.081 C 
ATOM     17  H4  SPM d          -4.293   2.399  15.583  0.00  0.00     0.075 H 
ATOM     18  H5  SPM d          -3.650   1.615  17.065  0.00  0.00     0.075 H 
BRANCH  16  19
ATOM     19  N1  SPM d          -4.312   0.310  15.573  0.00  0.00    -0.079 N 
ATOM     20  H1  SPM d          -4.808  -0.408  16.079  0.00  0.00     0.274 HD
ATOM     21  H2  SPM d          -3.341   0.053  15.491  0.00  0.00     0.274 HD
ATOM     22  H3  SPM d          -4.712   0.409  14.653  0.00  0.00     0.274 HD
ENDBRANCH  16  19
ENDBRANCH  13  16
ENDBRANCH  10  13
ENDBRANCH   7  10
ENDBRANCH   4   7
ENDBRANCH   1   4
BRANCH   1  23
ATOM     23  C8  SPM d          -4.337   6.191  13.764  0.00  0.00    -0.041 C 
ATOM     24  H16 SPM d          -4.330   7.283  13.890  0.00  0.00     0.035 H 
ATOM     25  H17 SPM d          -4.055   5.940  12.730  0.00  0.00     0.035 H 
BRANCH  23  26
ATOM     26  C9  SPM d          -3.379   5.552  14.731  0.00  0.00     0.082 C 
ATOM     27  H18 SPM d          -3.914   4.796  15.326  0.00  0.00     0.075 H 
ATOM     28  H19 SPM d          -2.969   6.323  15.400  0.00  0.00     0.075 H 
BRANCH  26  29
ATOM     29  N10 SPM d          -2.298   4.917  14.016  0.00  0.00    -0.075 N 
ATOM     30  H20 SPM d          -2.393   3.930  14.194  0.00  0.00     0.277 HD
ATOM     31  H21 SPM d          -1.451   5.257  14.443  0.00  0.00     0.277 HD
BRANCH  29  32
ATOM     32  C11 SPM d          -2.097   5.040  12.603  0.00  0.00     0.083 C 
ATOM     33  H22 SPM d          -1.119   5.506  12.412  0.00  0.00     0.075 H 
ATOM     34  H23 SPM d          -2.893   5.668  12.175  0.00  0.00     0.075 H 
BRANCH  32  35
ATOM     35  C12 SPM d          -2.134   3.670  11.957  0.00  0.00    -0.020 C 
ATOM     36  H24 SPM d          -1.485   2.991  12.529  0.00  0.00     0.037 H 
ATOM     37  H25 SPM d          -1.759   3.756  10.926  0.00  0.00     0.037 H 
BRANCH  35  38
ATOM     38  C13 SPM d          -3.543   3.082  11.917  0.00  0.00     0.081 C 
ATOM     39  H26 SPM d          -3.774   2.773  10.887  0.00  0.00     0.075 H 
ATOM     40  H27 SPM d          -4.262   3.851  12.239  0.00  0.00     0.075 H 
BRANCH  38  41
ATOM     41  N14 SPM d          -3.656   1.933  12.791  0.00  0.00    -0.079 N 
ATOM     42  H28 SPM d          -2.901   1.945  13.459  0.00  0.00     0.274 HD
ATOM     43  H29 SPM d          -3.608   1.088  12.244  0.00  0.00     0.274 HD
ATOM     44  H30 SPM d          -4.538   1.967  13.279  0.00  0.00     0.274 HD
ENDBRANCH  38  41
ENDBRANCH  35  38
ENDBRANCH  32  35
ENDBRANCH  29  32
ENDBRANCH  26  29
ENDBRANCH  23  26
ENDBRANCH   1  23
TORSDOF 13
ENDMDL
MODEL 7
REMARK VINA RESULT:      -2.7      1.808      2.062
REMARK  13 active torsions:
REMARK  status: ('A' for Active; 'I' for Inactive)
REMARK    1  A    between atoms: N1_1  and  C2_2 
REMARK    2  A    between atoms: C2_2  and  C3_3 
REMARK    3  A    between atoms: C3_3  and  C4_4 
REMARK    4  A    between atoms: C4_4  and  N5_5 
REMARK    5  A    between atoms: N5_5  and  C6_6 
REMARK    6  A    between atoms: C6_6  and  C7_7 
REMARK    7  A    between atoms: C7_7  and  C8_8 
REMARK    8  A    between atoms: C8_8  and  C9_9 
REMARK    9  A    between atoms: C9_9  and  N10_10 
REMARK   10  A    between atoms: N10_10  and  C11_11 
REMARK   11  A    between atoms: C11_11  and  C12_12 
REMARK   12  A    between atoms: C12_12  and  C13_13 
REMARK   13  A    between atoms: C13_13  and  N14_14 
ROOT
ATOM      1  C7  SPM d          -6.330   5.784  14.170  0.00  0.00    -0.041 C 
ATOM      2  H14 SPM d          -7.147   5.185  13.743  0.00  0.00     0.035 H 
ATOM      3  H15 SPM d          -6.744   6.522  14.871  0.00  0.00     0.035 H 
ENDROOT
BRANCH   1   4
ATOM      4  C6  SPM d          -5.533   6.465  13.077  0.00  0.00     0.082 C 
ATOM      5  H12 SPM d          -6.237   7.004  12.426  0.00  0.00     0.075 H 
ATOM      6  H13 SPM d          -4.849   7.184  13.551  0.00  0.00     0.075 H 
BRANCH   4   7
ATOM      7  N5  SPM d          -4.745   5.571  12.248  0.00  0.00    -0.075 N 
ATOM      8  H10 SPM d          -5.057   4.631  12.437  0.00  0.00     0.277 HD
ATOM      9  H11 SPM d          -4.940   5.803  11.286  0.00  0.00     0.277 HD
BRANCH   7  10
ATOM     10  C4  SPM d          -3.310   5.588  12.412  0.00  0.00     0.083 C 
ATOM     11  H8  SPM d          -2.911   6.447  11.852  0.00  0.00     0.075 H 
ATOM     12  H9  SPM d          -3.089   5.713  13.482  0.00  0.00     0.075 H 
BRANCH  10  13
ATOM     13  C3  SPM d          -2.593   4.326  11.922  0.00  0.00    -0.020 C 
ATOM     14  H6  SPM d          -2.227   4.497  10.899  0.00  0.00     0.037 H 
ATOM     15  H7  SPM d          -1.740   4.120  12.586  0.00  0.00     0.037 H 
BRANCH  13  16
ATOM     16  C2  SPM d          -3.513   3.125  11.919  0.00  0.00     0.081 C 
ATOM     17  H4  SPM d          -4.376   3.312  12.575  0.00  0.00     0.075 H 
ATOM     18  H5  SPM d          -3.866   2.927  10.896  0.00  0.00     0.075 H 
BRANCH  16  19
ATOM     19  N1  SPM d          -2.764   1.992  12.406  0.00  0.00    -0.079 N 
ATOM     20  H1  SPM d          -2.759   1.267  11.706  0.00  0.00     0.274 HD
ATOM     21  H2  SPM d          -3.193   1.644  13.249  0.00  0.00     0.274 HD
ATOM     22  H3  SPM d          -1.817   2.276  12.604  0.00  0.00     0.274 HD
ENDBRANCH  16  19
ENDBRANCH  13  16
ENDBRANCH  10  13
ENDBRANCH   7  10
ENDBRANCH   4   7
ENDBRANCH   1   4
BRANCH   1  23
ATOM     23  C8  SPM d          -5.313   4.893  14.862  0.00  0.00    -0.041 C 
ATOM     24  H16 SPM d          -5.191   5.202  15.910  0.00  0.00     0.035 H 
ATOM     25  H17 SPM d          -4.343   4.955  14.346  0.00  0.00     0.035 H 
BRANCH  23  26
ATOM     26  C9  SPM d          -5.846   3.489  14.795  0.00  0.00     0.082 C 
ATOM     27  H18 SPM d          -6.135   3.259  13.758  0.00  0.00     0.075 H 
ATOM     28  H19 SPM d          -6.727   3.403  15.449  0.00  0.00     0.075 H 
BRANCH  26  29
ATOM     29  N10 SPM d          -4.838   2.551  15.228  0.00  0.00    -0.075 N 
ATOM     30  H20 SPM d          -4.254   3.056  15.877  0.00  0.00     0.277 HD
ATOM     31  H21 SPM d          -4.304   2.323  14.404  0.00  0.00     0.277 HD
BRANCH  29  32
ATOM     32  C11 SPM d          -5.132   1.301  15.860  0.00  0.00     0.083 C 
ATOM     33  H22 SPM d          -4.383   1.101  16.640  0.00  0.00     0.075 H 
ATOM     34  H23 SPM d          -5.104   0.496  15.109  0.00  0.00     0.075 H 
BRANCH  32  35
ATOM     35  C12 SPM d          -6.509   1.353  16.489  0.00  0.00    -0.020 C 
ATOM     36  H24 SPM d          -6.622   0.493  17.165  0.00  0.00     0.037 H 
ATOM     37  H25 SPM d          -7.264   1.294  15.691  0.00  0.00     0.037 H 
BRANCH  35  38
ATOM     38  C13 SPM d          -6.739   2.635  17.285  0.00  0.00     0.081 C 
ATOM     39  H26 SPM d          -7.809   2.887  17.260  0.00  0.00     0.075 H 
ATOM     40  H27 SPM d          -6.160   3.451  16.827  0.00  0.00     0.075 H 
BRANCH  38  41
ATOM     41  N14 SPM d          -6.323   2.477  18.664  0.00  0.00    -0.079 N 
ATOM     42  H28 SPM d          -6.341   3.374  19.124  0.00  0.00     0.274 HD
ATOM     43  H29 SPM d          -5.388   2.103  18.692  0.00  0.00     0.274 HD
ATOM     44  H30 SPM d          -6.952   1.845  19.134  0.00  0.00     0.274 HD
ENDBRANCH  38  41
ENDBRANCH  35  38
ENDBRANCH  32  35
ENDBRANCH  29  32
ENDBRANCH  26  29
ENDBRANCH  23  26
ENDBRANCH   1  23
TORSDOF 13
ENDMDL
MODEL 8
REMARK VINA RESULT:      -2.6      1.880      5.818
REMARK  13 active torsions:
REMARK  status: ('A' for Active; 'I' for Inactive)
REMARK    1  A    between atoms: N1_1  and  C2_2 
REMARK    2  A    between atoms: C2_2  and  C3_3 
REMARK    3  A    between atoms: C3_3  and  C4_4 
REMARK    4  A    between atoms: C4_4  and  N5_5 
REMARK    5  A    between atoms: N5_5  and  C6_6 
REMARK    6  A    between atoms: C6_6  and  C7_7 
REMARK    7  A    between atoms: C7_7  and  C8_8 
REMARK    8  A    between atoms: C8_8  and  C9_9 
REMARK    9  A    between atoms: C9_9  and  N10_10 
REMARK   10  A    between atoms: N10_10  and  C11_11 
REMARK   11  A    between atoms: C11_11  and  C12_12 
REMARK   12  A    between atoms: C12_12  and  C13_13 
REMARK   13  A    between atoms: C13_13  and  N14_14 
ROOT
ATOM      1  C7  SPM d          -3.658   1.631  12.727  0.00  0.00    -0.041 C 
ATOM      2  H14 SPM d          -3.441   0.771  12.076  0.00  0.00     0.035 H 
ATOM      3  H15 SPM d          -2.748   1.913  13.276  0.00  0.00     0.035 H 
ENDROOT
BRANCH   1   4
ATOM      4  C6  SPM d          -4.787   1.311  13.683  0.00  0.00     0.082 C 
ATOM      5  H12 SPM d          -5.599   2.032  13.507  0.00  0.00     0.075 H 
ATOM      6  H13 SPM d          -5.145   0.295  13.461  0.00  0.00     0.075 H 
BRANCH   4   7
ATOM      7  N5  SPM d          -4.431   1.366  15.090  0.00  0.00    -0.075 N 
ATOM      8  H10 SPM d          -4.812   0.542  15.529  0.00  0.00     0.277 HD
ATOM      9  H11 SPM d          -3.425   1.343  15.147  0.00  0.00     0.277 HD
BRANCH   7  10
ATOM     10  C4  SPM d          -4.880   2.507  15.855  0.00  0.00     0.083 C 
ATOM     11  H8  SPM d          -3.997   3.103  16.130  0.00  0.00     0.075 H 
ATOM     12  H9  SPM d          -5.544   3.107  15.216  0.00  0.00     0.075 H 
BRANCH  10  13
ATOM     13  C3  SPM d          -5.640   2.160  17.139  0.00  0.00    -0.020 C 
ATOM     14  H6  SPM d          -4.917   2.042  17.960  0.00  0.00     0.037 H 
ATOM     15  H7  SPM d          -6.333   2.980  17.376  0.00  0.00     0.037 H 
BRANCH  13  16
ATOM     16  C2  SPM d          -6.429   0.877  16.994  0.00  0.00     0.081 C 
ATOM     17  H4  SPM d          -7.505   1.089  17.076  0.00  0.00     0.075 H 
ATOM     18  H5  SPM d          -6.220   0.418  16.016  0.00  0.00     0.075 H 
BRANCH  16  19
ATOM     19  N1  SPM d          -6.023  -0.015  18.051  0.00  0.00    -0.079 N 
ATOM     20  H1  SPM d          -6.752  -0.068  18.745  0.00  0.00     0.274 HD
ATOM     21  H2  SPM d          -5.177   0.332  18.477  0.00  0.00     0.274 HD
ATOM     22  H3  SPM d          -5.854  -0.933  17.670  0.00  0.00     0.274 HD
ENDBRANCH  16  19
ENDBRANCH  13  16
ENDBRANCH  10  13
ENDBRANCH   7  10
ENDBRANCH   4   7
ENDBRANCH   1   4
BRANCH   1  23
ATOM     23  C8  SPM d          -4.185   2.802  11.918  0.00  0.00    -0.041 C 
ATOM     24  H16 SPM d          -5.259   2.941  12.110  0.00  0.00     0.035 H 
ATOM     25  H17 SPM d          -4.025   2.623  10.844  0.00  0.00     0.035 H 
BRANCH  23  26
ATOM     26  C9  SPM d          -3.418   4.018  12.359  0.00  0.00     0.082 C 
ATOM     27  H18 SPM d          -3.052   4.557  11.473  0.00  0.00     0.075 H 
ATOM     28  H19 SPM d          -2.563   3.704  12.977  0.00  0.00     0.075 H 
BRANCH  26  29
ATOM     29  N10 SPM d          -4.269   4.891  13.131  0.00  0.00    -0.075 N 
ATOM     30  H20 SPM d          -4.220   4.552  14.080  0.00  0.00     0.277 HD
ATOM     31  H21 SPM d          -5.201   4.753  12.772  0.00  0.00     0.277 HD
BRANCH  29  32
ATOM     32  C11 SPM d          -4.089   6.309  13.214  0.00  0.00     0.083 C 
ATOM     33  H22 SPM d          -5.040   6.812  12.983  0.00  0.00     0.075 H 
ATOM     34  H23 SPM d          -3.322   6.623  12.490  0.00  0.00     0.075 H 
BRANCH  32  35
ATOM     35  C12 SPM d          -3.646   6.691  14.612  0.00  0.00    -0.020 C 
ATOM     36  H24 SPM d          -3.932   5.887  15.305  0.00  0.00     0.037 H 
ATOM     37  H25 SPM d          -4.154   7.623  14.900  0.00  0.00     0.037 H 
BRANCH  35  38
ATOM     38  C13 SPM d          -2.137   6.907  14.707  0.00  0.00     0.081 C 
ATOM     39  H26 SPM d          -1.818   6.757  15.749  0.00  0.00     0.075 H 
ATOM     40  H27 SPM d          -1.901   7.935  14.395  0.00  0.00     0.075 H 
BRANCH  38  41
ATOM     41  N14 SPM d          -1.421   5.979  13.856  0.00  0.00    -0.079 N 
ATOM     42  H28 SPM d          -0.449   6.245  13.813  0.00  0.00     0.274 HD
ATOM     43  H29 SPM d          -1.816   5.999  12.929  0.00  0.00     0.274 HD
ATOM     44  H30 SPM d          -1.499   5.048  14.233  0.00  0.00     0.274 HD
ENDBRANCH  38  41
ENDBRANCH  35  38
ENDBRANCH  32  35
ENDBRANCH  29  32
ENDBRANCH  26  29
ENDBRANCH  23  26
ENDBRANCH   1  23
TORSDOF 13
ENDMDL
MODEL 9
REMARK VINA RESULT:      -2.0      2.149      5.181
REMARK  13 active torsions:
REMARK  status: ('A' for Active; 'I' for Inactive)
REMARK    1  A    between atoms: N1_1  and  C2_2 
REMARK    2  A    between atoms: C2_2  and  C3_3 
REMARK    3  A    between atoms: C3_3  and  C4_4 
REMARK    4  A    between atoms: C4_4  and  N5_5 
REMARK    5  A    between atoms: N5_5  and  C6_6 
REMARK    6  A    between atoms: C6_6  and  C7_7 
REMARK    7  A    between atoms: C7_7  and  C8_8 
REMARK    8  A    between atoms: C8_8  and  C9_9 
REMARK    9  A    between atoms: C9_9  and  N10_10 
REMARK   10  A    between atoms: N10_10  and  C11_11 
REMARK   11  A    between atoms: C11_11  and  C12_12 
REMARK   12  A    between atoms: C12_12  and  C13_13 
REMARK   13  A    between atoms: C13_13  and  N14_14 
ROOT
ATOM      1  C7  SPM d          -3.359   2.951  11.917  0.00  0.00    -0.041 C 
ATOM      2  H14 SPM d          -4.247   3.417  12.366  0.00  0.00     0.035 H 
ATOM      3  H15 SPM d          -3.357   3.135  10.833  0.00  0.00     0.035 H 
ENDROOT
BRANCH   1   4
ATOM      4  C6  SPM d          -3.322   1.467  12.212  0.00  0.00     0.082 C 
ATOM      5  H12 SPM d          -3.225   0.930  11.256  0.00  0.00     0.075 H 
ATOM      6  H13 SPM d          -2.439   1.264  12.836  0.00  0.00     0.075 H 
BRANCH   4   7
ATOM      7  N5  SPM d          -4.491   0.951  12.903  0.00  0.00    -0.075 N 
ATOM      8  H10 SPM d          -5.256   1.578  12.708  0.00  0.00     0.277 HD
ATOM      9  H11 SPM d          -4.694   0.043  12.514  0.00  0.00     0.277 HD
BRANCH   7  10
ATOM     10  C4  SPM d          -4.415   0.799  14.337  0.00  0.00     0.083 C 
ATOM     11  H8  SPM d          -4.787  -0.204  14.595  0.00  0.00     0.075 H 
ATOM     12  H9  SPM d          -3.359   0.887  14.634  0.00  0.00     0.075 H 
BRANCH  10  13
ATOM     13  C3  SPM d          -5.222   1.827  15.135  0.00  0.00    -0.020 C 
ATOM     14  H6  SPM d          -5.391   2.714  14.507  0.00  0.00     0.037 H 
ATOM     15  H7  SPM d          -6.191   1.384  15.411  0.00  0.00     0.037 H 
BRANCH  13  16
ATOM     16  C2  SPM d          -4.500   2.250  16.396  0.00  0.00     0.081 C 
ATOM     17  H4  SPM d          -5.153   2.895  17.002  0.00  0.00     0.075 H 
ATOM     18  H5  SPM d          -4.217   1.363  16.980  0.00  0.00     0.075 H 
BRANCH  16  19
ATOM     19  N1  SPM d          -3.318   2.978  16.005  0.00  0.00    -0.079 N 
ATOM     20  H1  SPM d          -3.544   3.604  15.248  0.00  0.00     0.274 HD
ATOM     21  H2  SPM d          -2.608   2.330  15.705  0.00  0.00     0.274 HD
ATOM     22  H3  SPM d          -2.977   3.510  16.791  0.00  0.00     0.274 HD
ENDBRANCH  16  19
ENDBRANCH  13  16
ENDBRANCH  10  13
ENDBRANCH   7  10
ENDBRANCH   4   7
ENDBRANCH   1   4
BRANCH   1  23
ATOM     23  C8  SPM d          -2.088   3.482  12.557  0.00  0.00    -0.041 C 
ATOM     24  H16 SPM d          -1.235   2.841  12.292  0.00  0.00     0.035 H 
ATOM     25  H17 SPM d          -2.199   3.511  13.652  0.00  0.00     0.035 H 
BRANCH  23  26
ATOM     26  C9  SPM d          -1.878   4.872  12.022  0.00  0.00     0.082 C 
ATOM     27  H18 SPM d          -1.417   4.811  11.025  0.00  0.00     0.075 H 
ATOM     28  H19 SPM d          -1.213   5.426  12.701  0.00  0.00     0.075 H 
BRANCH  26  29
ATOM     29  N10 SPM d          -3.140   5.564  11.922  0.00  0.00    -0.075 N 
ATOM     30  H20 SPM d          -3.851   4.857  12.034  0.00  0.00     0.277 HD
ATOM     31  H21 SPM d          -3.177   5.933  10.985  0.00  0.00     0.277 HD
BRANCH  29  32
ATOM     32  C11 SPM d          -3.527   6.643  12.781  0.00  0.00     0.083 C 
ATOM     33  H22 SPM d          -3.382   7.598  12.255  0.00  0.00     0.075 H 
ATOM     34  H23 SPM d          -2.906   6.627  13.689  0.00  0.00     0.075 H 
BRANCH  32  35
ATOM     35  C12 SPM d          -4.985   6.498  13.166  0.00  0.00    -0.020 C 
ATOM     36  H24 SPM d          -5.502   5.924  12.383  0.00  0.00     0.037 H 
ATOM     37  H25 SPM d          -5.431   7.501  13.241  0.00  0.00     0.037 H 
BRANCH  35  38
ATOM     38  C13 SPM d          -5.167   5.779  14.501  0.00  0.00     0.081 C 
ATOM     39  H26 SPM d          -5.343   6.526  15.289  0.00  0.00     0.075 H 
ATOM     40  H27 SPM d          -4.253   5.212  14.731  0.00  0.00     0.075 H 
BRANCH  38  41
ATOM     41  N14 SPM d          -6.291   4.867  14.455  0.00  0.00    -0.079 N 
ATOM     42  H28 SPM d          -6.935   5.163  13.738  0.00  0.00     0.274 HD
ATOM     43  H29 SPM d          -6.759   4.864  15.348  0.00  0.00     0.274 HD
ATOM     44  H30 SPM d          -5.960   3.937  14.248  0.00  0.00     0.274 HD
ENDBRANCH  38  41
ENDBRANCH  35  38
ENDBRANCH  32  35
ENDBRANCH  29  32
ENDBRANCH  26  29
ENDBRANCH  23  26
ENDBRANCH   1  23
TORSDOF 13
ENDMDL
MODEL 10
REMARK VINA RESULT:      -1.9      1.999      4.640
REMARK  13 active torsions:
REMARK  status: ('A' for Active; 'I' for Inactive)
REMARK    1  A    between atoms: N1_1  and  C2_2 
REMARK    2  A    between atoms: C2_2  and  C3_3 
REMARK    3  A    between atoms: C3_3  and  C4_4 
REMARK    4  A    between atoms: C4_4  and  N5_5 
REMARK    5  A    between atoms: N5_5  and  C6_6 
REMARK    6  A    between atoms: C6_6  and  C7_7 
REMARK    7  A    between atoms: C7_7  and  C8_8 
REMARK    8  A    between atoms: C8_8  and  C9_9 
REMARK    9  A    between atoms: C9_9  and  N10_10 
REMARK   10  A    between atoms: N10_10  and  C11_11 
REMARK   11  A    between atoms: C11_11  and  C12_12 
REMARK   12  A    between atoms: C12_12  and  C13_13 
REMARK   13  A    between atoms: C13_13  and  N14_14 
ROOT
ATOM      1  C7  SPM d          -4.338   5.479  13.926  0.00  0.00    -0.041 C 
ATOM      2  H14 SPM d          -5.058   6.298  14.065  0.00  0.00     0.035 H 
ATOM      3  H15 SPM d          -4.794   4.691  13.309  0.00  0.00     0.035 H 
ENDROOT
BRANCH   1   4
ATOM      4  C6  SPM d          -3.887   4.926  15.261  0.00  0.00     0.082 C 
ATOM      5  H12 SPM d          -2.841   4.599  15.160  0.00  0.00     0.075 H 
ATOM      6  H13 SPM d          -3.947   5.735  16.004  0.00  0.00     0.075 H 
BRANCH   4   7
ATOM      7  N5  SPM d          -4.666   3.803  15.752  0.00  0.00    -0.075 N 
ATOM      8  H10 SPM d          -4.475   3.017  15.149  0.00  0.00     0.277 HD
ATOM      9  H11 SPM d          -4.342   3.596  16.684  0.00  0.00     0.277 HD
BRANCH   7  10
ATOM     10  C4  SPM d          -6.101   3.954  15.819  0.00  0.00     0.083 C 
ATOM     11  H8  SPM d          -6.323   5.010  16.035  0.00  0.00     0.075 H 
ATOM     12  H9  SPM d          -6.519   3.684  14.839  0.00  0.00     0.075 H 
BRANCH  10  13
ATOM     13  C3  SPM d          -6.788   3.094  16.885  0.00  0.00    -0.020 C 
ATOM     14  H6  SPM d          -6.363   3.340  17.869  0.00  0.00     0.037 H 
ATOM     15  H7  SPM d          -7.865   3.319  16.884  0.00  0.00     0.037 H 
BRANCH  13  16
ATOM     16  C2  SPM d          -6.594   1.617  16.623  0.00  0.00     0.081 C 
ATOM     17  H4  SPM d          -6.960   1.365  15.616  0.00  0.00     0.075 H 
ATOM     18  H5  SPM d          -5.528   1.360  16.700  0.00  0.00     0.075 H 
BRANCH  16  19
ATOM     19  N1  SPM d          -7.347   0.890  17.614  0.00  0.00    -0.079 N 
ATOM     20  H1  SPM d          -8.076   1.480  17.983  0.00  0.00     0.274 HD
ATOM     21  H2  SPM d          -6.733   0.607  18.362  0.00  0.00     0.274 HD
ATOM     22  H3  SPM d          -7.758   0.072  17.191  0.00  0.00     0.274 HD
ENDBRANCH  16  19
ENDBRANCH  13  16
ENDBRANCH  10  13
ENDBRANCH   7  10
ENDBRANCH   4   7
ENDBRANCH   1   4
BRANCH   1  23
ATOM     23  C8  SPM d          -3.057   5.988  13.290  0.00  0.00    -0.041 C 
ATOM     24  H16 SPM d          -2.649   6.823  13.878  0.00  0.00     0.035 H 
ATOM     25  H17 SPM d          -3.252   6.326  12.261  0.00  0.00     0.035 H 
BRANCH  23  26
ATOM     26  C9  SPM d          -2.087   4.838  13.281  0.00  0.00     0.082 C 
ATOM     27  H18 SPM d          -1.512   4.842  14.219  0.00  0.00     0.075 H 
ATOM     28  H19 SPM d          -1.401   4.948  12.429  0.00  0.00     0.075 H 
BRANCH  26  29
ATOM     29  N10 SPM d          -2.798   3.588  13.162  0.00  0.00    -0.075 N 
ATOM     30  H20 SPM d          -3.765   3.802  13.352  0.00  0.00     0.277 HD
ATOM     31  H21 SPM d          -2.435   2.996  13.893  0.00  0.00     0.277 HD
BRANCH  29  32
ATOM     32  C11 SPM d          -2.803   2.784  11.977  0.00  0.00     0.083 C 
ATOM     33  H22 SPM d          -1.784   2.424  11.776  0.00  0.00     0.075 H 
ATOM     34  H23 SPM d          -3.153   3.390  11.127  0.00  0.00     0.075 H 
BRANCH  32  35
ATOM     35  C12 SPM d          -3.727   1.598  12.162  0.00  0.00    -0.020 C 
ATOM     36  H24 SPM d          -3.125   0.678  12.165  0.00  0.00     0.037 H 
ATOM     37  H25 SPM d          -4.438   1.570  11.323  0.00  0.00     0.037 H 
BRANCH  35  38
ATOM     38  C13 SPM d          -4.515   1.671  13.468  0.00  0.00     0.081 C 
ATOM     39  H26 SPM d          -5.590   1.610  13.243  0.00  0.00     0.075 H 
ATOM     40  H27 SPM d          -4.299   2.629  13.965  0.00  0.00     0.075 H 
BRANCH  38  41
ATOM     41  N14 SPM d          -4.156   0.586  14.358  0.00  0.00    -0.079 N 
ATOM     42  H28 SPM d          -3.254   0.771  14.766  0.00  0.00     0.274 HD
ATOM     43  H29 SPM d          -4.119  -0.277  13.837  0.00  0.00     0.274 HD
ATOM     44  H30 SPM d          -4.847   0.507  15.088  0.00  0.00     0.274 HD
ENDBRANCH  38  41
ENDBRANCH  35  38
ENDBRANCH  32  35
ENDBRANCH  29  32
ENDBRANCH  26  29
ENDBRANCH  23  26
ENDBRANCH   1  23
TORSDOF 13
ENDMDL
