MODEL 1
REMARK VINA RESULT:      -7.4      0.000      0.000
REMARK  7 active torsions:
REMARK  status: ('A' for Active; 'I' for Inactive)
REMARK    1  A    between atoms: C13_2  and  C15_3 
REMARK       I    between atoms: C13_2  and  N12_13 
REMARK    2  A    between atoms: C19_7  and  C21_8 
REMARK    3  A    between atoms: C21_8  and  N22_9 
REMARK    4  A    between atoms: N22_9  and  C23_10 
REMARK    5  A    between atoms: N22_9  and  C24_11 
REMARK    6  A    between atoms: N12_13  and  C10_14 
REMARK    7  A    between atoms: C6_16  and  C2_20 
ROOT
ATOM      1  C15 DN3 d          -9.789  57.056  11.699  0.00  0.00     0.032 A 
ATOM      2  C16 DN3 d          -9.252  57.507  10.495  0.00  0.00    -0.068 A 
ATOM      3  C17 DN3 d          -9.961  58.440   9.739  0.00  0.00    -0.081 A 
ATOM      4  C18 DN3 d         -11.208  58.896  10.150  0.00  0.00    -0.075 A 
ATOM      5  C19 DN3 d         -11.692  58.521  11.404  0.00  0.00    -0.032 A 
ATOM      6  C20 DN3 d         -10.993  57.586  12.155  0.00  0.00    -0.060 A 
ATOM      7  H1  DN3 d          -8.294  57.136  10.150  0.00  0.00     0.085 H 
ATOM      8  H2  DN3 d          -9.532  58.816   8.816  0.00  0.00     0.083 H 
ATOM      9  H3  DN3 d         -11.797  59.536   9.503  0.00  0.00     0.084 H 
ATOM     10  H13 DN3 d         -11.390  57.265  13.111  0.00  0.00     0.086 H 
ENDROOT
BRANCH   1  11
ATOM     11  C13 DN3 d          -9.012  56.116  12.592  0.00  0.00     0.256 C 
ATOM     12  O14 DN3 d          -9.258  56.091  13.795  0.00  0.00    -0.267 OA
ATOM     13  N12 DN3 d          -8.080  55.331  12.037  0.00  0.00    -0.323 N 
ATOM     14  H14 DN3 d          -7.976  55.365  11.043  0.00  0.00     0.169 HD
BRANCH  13  15
ATOM     15  C10 DN3 d          -7.235  54.458  12.759  0.00  0.00     0.035 A 
ATOM     16  C11 DN3 d          -5.909  54.357  12.350  0.00  0.00    -0.043 A 
ATOM     17  C6  DN3 d          -5.017  53.539  13.036  0.00  0.00     0.017 A 
ATOM     18  H15 DN3 d          -5.567  54.921  11.490  0.00  0.00     0.088 H 
ATOM     19  C7  DN3 d          -5.439  52.809  14.142  0.00  0.00    -0.069 A 
ATOM     20  C8  DN3 d          -6.752  52.924  14.571  0.00  0.00    -0.080 A 
ATOM     21  H16 DN3 d          -4.748  52.157  14.663  0.00  0.00     0.085 H 
ATOM     22  C9  DN3 d          -7.661  53.726  13.868  0.00  0.00    -0.057 A 
ATOM     23  H17 DN3 d          -7.078  52.390  15.457  0.00  0.00     0.083 H 
ATOM     24  H18 DN3 d          -8.696  53.778  14.185  0.00  0.00     0.086 H 
BRANCH  17  25
ATOM     25  C2  DN3 d          -3.609  53.433  12.585  0.00  0.00     0.198 A 
ATOM     26  N1  DN3 d          -2.775  52.417  12.883  0.00  0.00    -0.139 NA
ATOM     27  N5  DN3 d          -1.535  52.676  12.312  0.00  0.00    -0.200 N 
ATOM     28  N4  DN3 d          -1.651  53.893  11.638  0.00  0.00     0.022 NA
ATOM     29  H19 DN3 d          -0.693  52.086  12.375  0.00  0.00     0.208 HD
ATOM     30  N3  DN3 d          -2.954  54.354  11.838  0.00  0.00    -0.136 NA
ENDBRANCH  17  25
ENDBRANCH  13  15
ENDBRANCH   1  11
BRANCH   5  31
ATOM     31  C21 DN3 d         -13.036  59.027  11.903  0.00  0.00     0.106 C 
ATOM     32  H4  DN3 d         -13.164  60.084  11.628  0.00  0.00     0.083 H 
ATOM     33  H5  DN3 d         -13.092  58.924  12.997  0.00  0.00     0.083 H 
BRANCH  31  34
ATOM     34  N22 DN3 d         -14.091  58.212  11.268  0.00  0.00    -0.075 N 
ATOM     35  H6  DN3 d         -13.662  57.470  10.737  0.00  0.00     0.279 HD
BRANCH  34  36
ATOM     36  C23 DN3 d         -14.939  57.638  12.327  0.00  0.00     0.066 C 
ATOM     37  H7  DN3 d         -15.381  58.450  12.924  0.00  0.00     0.068 H 
ATOM     38  H8  DN3 d         -14.328  56.995  12.978  0.00  0.00     0.068 H 
ATOM     39  H9  DN3 d         -15.741  57.040  11.870  0.00  0.00     0.068 H 
ENDBRANCH  34  36
BRANCH  34  40
ATOM     40  C24 DN3 d         -14.930  59.023  10.373  0.00  0.00     0.066 C 
ATOM     41  H10 DN3 d         -15.018  58.521   9.398  0.00  0.00     0.068 H 
ATOM     42  H11 DN3 d         -14.470  60.013  10.236  0.00  0.00     0.068 H 
ATOM     43  H12 DN3 d         -15.931  59.141  10.816  0.00  0.00     0.068 H 
ENDBRANCH  34  40
ENDBRANCH  31  34
ENDBRANCH   5  31
TORSDOF 7
ENDMDL
MODEL 2
REMARK VINA RESULT:      -6.9      1.684      9.170
REMARK  7 active torsions:
REMARK  status: ('A' for Active; 'I' for Inactive)
REMARK    1  A    between atoms: C13_2  and  C15_3 
REMARK       I    between atoms: C13_2  and  N12_13 
REMARK    2  A    between atoms: C19_7  and  C21_8 
REMARK    3  A    between atoms: C21_8  and  N22_9 
REMARK    4  A    between atoms: N22_9  and  C23_10 
REMARK    5  A    between atoms: N22_9  and  C24_11 
REMARK    6  A    between atoms: N12_13  and  C10_14 
REMARK    7  A    between atoms: C6_16  and  C2_20 
ROOT
ATOM      1  C15 DN3 d          -6.869  53.588  12.584  0.00  0.00     0.032 A 
ATOM      2  C16 DN3 d          -6.941  53.485  13.971  0.00  0.00    -0.068 A 
ATOM      3  C17 DN3 d          -5.874  52.920  14.670  0.00  0.00    -0.081 A 
ATOM      4  C18 DN3 d          -4.761  52.426  13.999  0.00  0.00    -0.075 A 
ATOM      5  C19 DN3 d          -4.649  52.625  12.623  0.00  0.00    -0.032 A 
ATOM      6  C20 DN3 d          -5.713  53.180  11.924  0.00  0.00    -0.060 A 
ATOM      7  H1  DN3 d          -7.816  53.840  14.503  0.00  0.00     0.085 H 
ATOM      8  H2  DN3 d          -5.913  52.866  15.752  0.00  0.00     0.083 H 
ATOM      9  H3  DN3 d          -3.989  51.891  14.540  0.00  0.00     0.084 H 
ATOM     10  H13 DN3 d          -5.643  53.297  10.849  0.00  0.00     0.086 H 
ENDROOT
BRANCH   1  11
ATOM     11  C13 DN3 d          -7.962  54.276  11.799  0.00  0.00     0.256 C 
ATOM     12  O14 DN3 d          -8.899  53.612  11.365  0.00  0.00    -0.267 OA
ATOM     13  N12 DN3 d          -7.876  55.599  11.608  0.00  0.00    -0.323 N 
ATOM     14  H14 DN3 d          -7.115  56.083  12.040  0.00  0.00     0.169 HD
BRANCH  13  15
ATOM     15  C10 DN3 d          -8.786  56.357  10.837  0.00  0.00     0.035 A 
ATOM     16  C11 DN3 d          -9.736  57.113  11.517  0.00  0.00    -0.043 A 
ATOM     17  C6  DN3 d         -10.643  57.905  10.820  0.00  0.00     0.017 A 
ATOM     18  H15 DN3 d          -9.770  57.085  12.600  0.00  0.00     0.088 H 
ATOM     19  C7  DN3 d         -10.613  57.952   9.430  0.00  0.00    -0.069 A 
ATOM     20  C8  DN3 d          -9.653  57.221   8.746  0.00  0.00    -0.080 A 
ATOM     21  H16 DN3 d         -11.332  58.553   8.887  0.00  0.00     0.085 H 
ATOM     22  C9  DN3 d          -8.755  56.402   9.443  0.00  0.00    -0.057 A 
ATOM     23  H17 DN3 d          -9.597  57.285   7.665  0.00  0.00     0.083 H 
ATOM     24  H18 DN3 d          -8.034  55.802   8.899  0.00  0.00     0.086 H 
BRANCH  17  25
ATOM     25  C2  DN3 d         -11.655  58.698  11.555  0.00  0.00     0.198 A 
ATOM     26  N1  DN3 d         -11.596  60.029  11.762  0.00  0.00    -0.139 NA
ATOM     27  N5  DN3 d         -12.702  60.413  12.512  0.00  0.00    -0.200 N 
ATOM     28  N4  DN3 d         -13.449  59.258  12.743  0.00  0.00     0.022 NA
ATOM     29  H19 DN3 d         -12.925  61.365  12.834  0.00  0.00     0.208 HD
ATOM     30  N3  DN3 d         -12.764  58.195  12.149  0.00  0.00    -0.136 NA
ENDBRANCH  17  25
ENDBRANCH  13  15
ENDBRANCH   1  11
BRANCH   5  31
ATOM     31  C21 DN3 d          -3.431  52.130  11.860  0.00  0.00     0.106 C 
ATOM     32  H4  DN3 d          -3.750  51.615  10.941  0.00  0.00     0.083 H 
ATOM     33  H5  DN3 d          -2.853  51.435  12.488  0.00  0.00     0.083 H 
BRANCH  31  34
ATOM     34  N22 DN3 d          -2.603  53.303  11.517  0.00  0.00    -0.075 N 
ATOM     35  H6  DN3 d          -3.193  54.023  11.129  0.00  0.00     0.279 HD
BRANCH  34  36
ATOM     36  C23 DN3 d          -1.961  53.797  12.747  0.00  0.00     0.066 C 
ATOM     37  H7  DN3 d          -2.560  53.496  13.620  0.00  0.00     0.068 H 
ATOM     38  H8  DN3 d          -1.894  54.894  12.710  0.00  0.00     0.068 H 
ATOM     39  H9  DN3 d          -0.951  53.370  12.831  0.00  0.00     0.068 H 
ENDBRANCH  34  36
BRANCH  34  40
ATOM     40  C24 DN3 d          -1.559  52.957  10.541  0.00  0.00     0.066 C 
ATOM     41  H10 DN3 d          -0.702  52.508  11.064  0.00  0.00     0.068 H 
ATOM     42  H11 DN3 d          -1.233  53.867  10.015  0.00  0.00     0.068 H 
ATOM     43  H12 DN3 d          -1.962  52.236   9.812  0.00  0.00     0.068 H 
ENDBRANCH  34  40
ENDBRANCH  31  34
ENDBRANCH   5  31
TORSDOF 7
ENDMDL
MODEL 3
REMARK VINA RESULT:      -6.7      2.053      2.932
REMARK  7 active torsions:
REMARK  status: ('A' for Active; 'I' for Inactive)
REMARK    1  A    between atoms: C13_2  and  C15_3 
REMARK       I    between atoms: C13_2  and  N12_13 
REMARK    2  A    between atoms: C19_7  and  C21_8 
REMARK    3  A    between atoms: C21_8  and  N22_9 
REMARK    4  A    between atoms: N22_9  and  C23_10 
REMARK    5  A    between atoms: N22_9  and  C24_11 
REMARK    6  A    between atoms: N12_13  and  C10_14 
REMARK    7  A    between atoms: C6_16  and  C2_20 
ROOT
ATOM      1  C15 DN3 d         -11.324  58.079  11.112  0.00  0.00     0.032 A 
ATOM      2  C16 DN3 d         -10.933  59.205  10.390  0.00  0.00    -0.068 A 
ATOM      3  C17 DN3 d         -11.637  60.398  10.552  0.00  0.00    -0.081 A 
ATOM      4  C18 DN3 d         -12.743  60.468  11.392  0.00  0.00    -0.075 A 
ATOM      5  C19 DN3 d         -13.065  59.369  12.189  0.00  0.00    -0.032 A 
ATOM      6  C20 DN3 d         -12.371  58.178  12.024  0.00  0.00    -0.060 A 
ATOM      7  H1  DN3 d         -10.090  59.154   9.710  0.00  0.00     0.085 H 
ATOM      8  H2  DN3 d         -11.317  61.284  10.015  0.00  0.00     0.083 H 
ATOM      9  H3  DN3 d         -13.347  61.367  11.427  0.00  0.00     0.084 H 
ATOM     10  H13 DN3 d         -12.649  57.312  12.614  0.00  0.00     0.086 H 
ENDROOT
BRANCH   1  11
ATOM     11  C13 DN3 d         -10.532  56.794  11.035  0.00  0.00     0.256 C 
ATOM     12  O14 DN3 d         -11.088  55.730  11.292  0.00  0.00    -0.267 OA
ATOM     13  N12 DN3 d          -9.243  56.858  10.679  0.00  0.00    -0.323 N 
ATOM     14  H14 DN3 d          -8.873  57.752  10.428  0.00  0.00     0.169 HD
BRANCH  13  15
ATOM     15  C10 DN3 d          -8.369  55.747  10.633  0.00  0.00     0.035 A 
ATOM     16  C11 DN3 d          -7.571  55.507  11.747  0.00  0.00    -0.043 A 
ATOM     17  C6  DN3 d          -6.710  54.414  11.779  0.00  0.00     0.017 A 
ATOM     18  H15 DN3 d          -7.619  56.177  12.598  0.00  0.00     0.088 H 
ATOM     19  C7  DN3 d          -6.636  53.545  10.696  0.00  0.00    -0.069 A 
ATOM     20  C8  DN3 d          -7.447  53.763   9.593  0.00  0.00    -0.080 A 
ATOM     21  H16 DN3 d          -5.951  52.706  10.714  0.00  0.00     0.085 H 
ATOM     22  C9  DN3 d          -8.296  54.878   9.545  0.00  0.00    -0.057 A 
ATOM     23  H17 DN3 d          -7.425  53.067   8.762  0.00  0.00     0.083 H 
ATOM     24  H18 DN3 d          -8.896  55.064   8.662  0.00  0.00     0.086 H 
BRANCH  17  25
ATOM     25  C2  DN3 d          -5.858  54.174  12.967  0.00  0.00     0.198 A 
ATOM     26  N1  DN3 d          -4.535  53.919  12.933  0.00  0.00    -0.139 NA
ATOM     27  N5  DN3 d          -4.085  53.721  14.233  0.00  0.00    -0.200 N 
ATOM     28  N4  DN3 d          -5.192  53.880  15.067  0.00  0.00     0.022 NA
ATOM     29  H19 DN3 d          -3.122  53.499  14.523  0.00  0.00     0.208 HD
ATOM     30  N3  DN3 d          -6.292  54.146  14.250  0.00  0.00    -0.136 NA
ENDBRANCH  17  25
ENDBRANCH  13  15
ENDBRANCH   1  11
BRANCH   5  31
ATOM     31  C21 DN3 d         -14.246  59.419  13.145  0.00  0.00     0.106 C 
ATOM     32  H4  DN3 d         -14.363  60.439  13.541  0.00  0.00     0.083 H 
ATOM     33  H5  DN3 d         -14.084  58.719  13.978  0.00  0.00     0.083 H 
BRANCH  31  34
ATOM     34  N22 DN3 d         -15.456  59.032  12.392  0.00  0.00    -0.075 N 
ATOM     35  H6  DN3 d         -15.189  58.732  11.468  0.00  0.00     0.279 HD
BRANCH  34  36
ATOM     36  C23 DN3 d         -16.113  57.922  13.104  0.00  0.00     0.066 C 
ATOM     37  H7  DN3 d         -17.172  57.874  12.808  0.00  0.00     0.068 H 
ATOM     38  H8  DN3 d         -16.042  58.089  14.188  0.00  0.00     0.068 H 
ATOM     39  H9  DN3 d         -15.616  56.976  12.845  0.00  0.00     0.068 H 
ENDBRANCH  34  36
BRANCH  34  40
ATOM     40  C24 DN3 d         -16.401  60.153  12.281  0.00  0.00     0.066 C 
ATOM     41  H10 DN3 d         -15.941  61.063  12.694  0.00  0.00     0.068 H 
ATOM     42  H11 DN3 d         -17.317  59.917  12.842  0.00  0.00     0.068 H 
ATOM     43  H12 DN3 d         -16.651  60.318  11.222  0.00  0.00     0.068 H 
ENDBRANCH  34  40
ENDBRANCH  31  34
ENDBRANCH   5  31
TORSDOF 7
ENDMDL
MODEL 4
REMARK VINA RESULT:      -6.5      1.576      9.320
REMARK  7 active torsions:
REMARK  status: ('A' for Active; 'I' for Inactive)
REMARK    1  A    between atoms: C13_2  and  C15_3 
REMARK       I    between atoms: C13_2  and  N12_13 
REMARK    2  A    between atoms: C19_7  and  C21_8 
REMARK    3  A    between atoms: C21_8  and  N22_9 
REMARK    4  A    between atoms: N22_9  and  C23_10 
REMARK    5  A    between atoms: N22_9  and  C24_11 
REMARK    6  A    between atoms: N12_13  and  C10_14 
REMARK    7  A    between atoms: C6_16  and  C2_20 
ROOT
ATOM      1  C15 DN3 d          -8.409  54.529  12.348  0.00  0.00     0.032 A 
ATOM      2  C16 DN3 d          -8.959  53.369  11.806  0.00  0.00    -0.068 A 
ATOM      3  C17 DN3 d          -8.248  52.172  11.889  0.00  0.00    -0.081 A 
ATOM      4  C18 DN3 d          -6.986  52.130  12.470  0.00  0.00    -0.075 A 
ATOM      5  C19 DN3 d          -6.485  53.268  13.101  0.00  0.00    -0.032 A 
ATOM      6  C20 DN3 d          -7.188  54.463  13.013  0.00  0.00    -0.060 A 
ATOM      7  H1  DN3 d          -9.930  53.397  11.325  0.00  0.00     0.085 H 
ATOM      8  H2  DN3 d          -8.687  51.262  11.496  0.00  0.00     0.083 H 
ATOM      9  H3  DN3 d          -6.397  51.220  12.432  0.00  0.00     0.084 H 
ATOM     10  H13 DN3 d          -6.779  55.358  13.469  0.00  0.00     0.086 H 
ENDROOT
BRANCH   1  11
ATOM     11  C13 DN3 d          -9.186  55.825  12.360  0.00  0.00     0.256 C 
ATOM     12  O14 DN3 d          -9.335  56.425  13.420  0.00  0.00    -0.267 OA
ATOM     13  N12 DN3 d          -9.683  56.283  11.204  0.00  0.00    -0.323 N 
ATOM     14  H14 DN3 d          -9.472  55.771  10.371  0.00  0.00     0.169 HD
BRANCH  13  15
ATOM     15  C10 DN3 d         -10.485  57.441  11.080  0.00  0.00     0.035 A 
ATOM     16  C11 DN3 d         -11.719  57.443  11.722  0.00  0.00    -0.043 A 
ATOM     17  C6  DN3 d         -12.545  58.562  11.665  0.00  0.00     0.017 A 
ATOM     18  H15 DN3 d         -12.041  56.567  12.272  0.00  0.00     0.088 H 
ATOM     19  C7  DN3 d         -12.147  59.695  10.963  0.00  0.00    -0.069 A 
ATOM     20  C8  DN3 d         -10.907  59.709  10.342  0.00  0.00    -0.080 A 
ATOM     21  H16 DN3 d         -12.799  60.558  10.903  0.00  0.00     0.085 H 
ATOM     22  C9  DN3 d         -10.084  58.575  10.375  0.00  0.00    -0.057 A 
ATOM     23  H17 DN3 d         -10.573  60.603   9.828  0.00  0.00     0.083 H 
ATOM     24  H18 DN3 d          -9.135  58.580   9.852  0.00  0.00     0.086 H 
BRANCH  17  25
ATOM     25  C2  DN3 d         -13.861  58.549  12.345  0.00  0.00     0.198 A 
ATOM     26  N1  DN3 d         -14.688  57.487  12.414  0.00  0.00    -0.139 NA
ATOM     27  N5  DN3 d         -15.836  57.859  13.103  0.00  0.00    -0.200 N 
ATOM     28  N4  DN3 d         -15.668  59.195  13.467  0.00  0.00     0.022 NA
ATOM     29  H19 DN3 d         -16.651  57.263  13.306  0.00  0.00     0.208 HD
ATOM     30  N3  DN3 d         -14.432  59.609  12.966  0.00  0.00    -0.136 NA
ENDBRANCH  17  25
ENDBRANCH  13  15
ENDBRANCH   1  11
BRANCH   5  31
ATOM     31  C21 DN3 d          -5.124  53.250  13.777  0.00  0.00     0.106 C 
ATOM     32  H4  DN3 d          -5.002  52.318  14.348  0.00  0.00     0.083 H 
ATOM     33  H5  DN3 d          -5.031  54.111  14.456  0.00  0.00     0.083 H 
BRANCH  31  34
ATOM     34  N22 DN3 d          -4.094  53.331  12.723  0.00  0.00    -0.075 N 
ATOM     35  H6  DN3 d          -4.535  53.250  11.821  0.00  0.00     0.279 HD
BRANCH  34  36
ATOM     36  C23 DN3 d          -3.418  54.636  12.829  0.00  0.00     0.066 C 
ATOM     37  H7  DN3 d          -4.087  55.427  12.457  0.00  0.00     0.068 H 
ATOM     38  H8  DN3 d          -2.497  54.621  12.228  0.00  0.00     0.068 H 
ATOM     39  H9  DN3 d          -3.167  54.834  13.881  0.00  0.00     0.068 H 
ENDBRANCH  34  36
BRANCH  34  40
ATOM     40  C24 DN3 d          -3.093  52.263  12.867  0.00  0.00     0.066 C 
ATOM     41  H10 DN3 d          -2.378  52.315  12.032  0.00  0.00     0.068 H 
ATOM     42  H11 DN3 d          -3.597  51.285  12.859  0.00  0.00     0.068 H 
ATOM     43  H12 DN3 d          -2.554  52.391  13.819  0.00  0.00     0.068 H 
ENDBRANCH  34  40
ENDBRANCH  31  34
ENDBRANCH   5  31
TORSDOF 7
ENDMDL
MODEL 5
REMARK VINA RESULT:      -6.2      1.843      2.188
REMARK  7 active torsions:
REMARK  status: ('A' for Active; 'I' for Inactive)
REMARK    1  A    between atoms: C13_2  and  C15_3 
REMARK       I    between atoms: C13_2  and  N12_13 
REMARK    2  A    between atoms: C19_7  and  C21_8 
REMARK    3  A    between atoms: C21_8  and  N22_9 
REMARK    4  A    between atoms: N22_9  and  C23_10 
REMARK    5  A    between atoms: N22_9  and  C24_11 
REMARK    6  A    between atoms: N12_13  and  C10_14 
REMARK    7  A    between atoms: C6_16  and  C2_20 
ROOT
ATOM      1  C15 DN3 d         -10.509  57.126  10.619  0.00  0.00     0.032 A 
ATOM      2  C16 DN3 d         -10.338  58.154  11.544  0.00  0.00    -0.068 A 
ATOM      3  C17 DN3 d         -11.186  59.260  11.500  0.00  0.00    -0.081 A 
ATOM      4  C18 DN3 d         -12.171  59.367  10.525  0.00  0.00    -0.075 A 
ATOM      5  C19 DN3 d         -12.405  58.291   9.668  0.00  0.00    -0.032 A 
ATOM      6  C20 DN3 d         -11.557  57.192   9.705  0.00  0.00    -0.060 A 
ATOM      7  H1  DN3 d          -9.554  58.094  12.291  0.00  0.00     0.085 H 
ATOM      8  H2  DN3 d         -11.076  60.047  12.237  0.00  0.00     0.083 H 
ATOM      9  H3  DN3 d         -12.752  60.278  10.431  0.00  0.00     0.084 H 
ATOM     10  H13 DN3 d         -11.714  56.373   9.012  0.00  0.00     0.086 H 
ENDROOT
BRANCH   1  11
ATOM     11  C13 DN3 d          -9.672  55.870  10.691  0.00  0.00     0.256 C 
ATOM     12  O14 DN3 d          -9.696  55.078   9.753  0.00  0.00    -0.267 OA
ATOM     13  N12 DN3 d          -8.919  55.664  11.779  0.00  0.00    -0.323 N 
ATOM     14  H14 DN3 d          -8.905  56.380  12.477  0.00  0.00     0.169 HD
BRANCH  13  15
ATOM     15  C10 DN3 d          -8.144  54.505  12.010  0.00  0.00     0.035 A 
ATOM     16  C11 DN3 d          -6.770  54.665  12.161  0.00  0.00    -0.043 A 
ATOM     17  C6  DN3 d          -5.954  53.568  12.419  0.00  0.00     0.017 A 
ATOM     18  H15 DN3 d          -6.332  55.652  12.077  0.00  0.00     0.088 H 
ATOM     19  C7  DN3 d          -6.501  52.294  12.529  0.00  0.00    -0.069 A 
ATOM     20  C8  DN3 d          -7.872  52.130  12.405  0.00  0.00    -0.080 A 
ATOM     21  H16 DN3 d          -5.862  51.438  12.710  0.00  0.00     0.085 H 
ATOM     22  C9  DN3 d          -8.695  53.228  12.119  0.00  0.00    -0.057 A 
ATOM     23  H17 DN3 d          -8.310  51.146  12.531  0.00  0.00     0.083 H 
ATOM     24  H18 DN3 d          -9.761  53.085  11.983  0.00  0.00     0.086 H 
BRANCH  17  25
ATOM     25  C2  DN3 d          -4.492  53.750  12.569  0.00  0.00     0.198 A 
ATOM     26  N1  DN3 d          -3.857  54.003  13.731  0.00  0.00    -0.139 NA
ATOM     27  N5  DN3 d          -2.498  54.140  13.477  0.00  0.00    -0.200 N 
ATOM     28  N4  DN3 d          -2.326  53.944  12.106  0.00  0.00     0.022 NA
ATOM     29  H19 DN3 d          -1.761  54.345  14.166  0.00  0.00     0.208 HD
ATOM     30  N3  DN3 d          -3.590  53.719  11.558  0.00  0.00    -0.136 NA
ENDBRANCH  17  25
ENDBRANCH  13  15
ENDBRANCH   1  11
BRANCH   5  31
ATOM     31  C21 DN3 d         -13.496  58.358   8.612  0.00  0.00     0.106 C 
ATOM     32  H4  DN3 d         -13.138  57.905   7.676  0.00  0.00     0.083 H 
ATOM     33  H5  DN3 d         -13.777  59.406   8.429  0.00  0.00     0.083 H 
BRANCH  31  34
ATOM     34  N22 DN3 d         -14.663  57.608   9.118  0.00  0.00    -0.075 N 
ATOM     35  H6  DN3 d         -14.569  57.480  10.114  0.00  0.00     0.279 HD
BRANCH  34  36
ATOM     36  C23 DN3 d         -15.880  58.388   8.831  0.00  0.00     0.066 C 
ATOM     37  H7  DN3 d         -15.746  59.420   9.187  0.00  0.00     0.068 H 
ATOM     38  H8  DN3 d         -16.737  57.931   9.346  0.00  0.00     0.068 H 
ATOM     39  H9  DN3 d         -16.063  58.394   7.747  0.00  0.00     0.068 H 
ENDBRANCH  34  36
BRANCH  34  40
ATOM     40  C24 DN3 d         -14.777  56.292   8.472  0.00  0.00     0.066 C 
ATOM     41  H10 DN3 d         -13.771  55.883   8.293  0.00  0.00     0.068 H 
ATOM     42  H11 DN3 d         -15.305  56.399   7.513  0.00  0.00     0.068 H 
ATOM     43  H12 DN3 d         -15.339  55.609   9.127  0.00  0.00     0.068 H 
ENDBRANCH  34  40
ENDBRANCH  31  34
ENDBRANCH   5  31
TORSDOF 7
ENDMDL
MODEL 6
REMARK VINA RESULT:      -6.2      1.978      2.326
REMARK  7 active torsions:
REMARK  status: ('A' for Active; 'I' for Inactive)
REMARK    1  A    between atoms: C13_2  and  C15_3 
REMARK       I    between atoms: C13_2  and  N12_13 
REMARK    2  A    between atoms: C19_7  and  C21_8 
REMARK    3  A    between atoms: C21_8  and  N22_9 
REMARK    4  A    between atoms: N22_9  and  C23_10 
REMARK    5  A    between atoms: N22_9  and  C24_11 
REMARK    6  A    between atoms: N12_13  and  C10_14 
REMARK    7  A    between atoms: C6_16  and  C2_20 
ROOT
ATOM      1  C15 DN3 d         -10.301  55.070  10.355  0.00  0.00     0.032 A 
ATOM      2  C16 DN3 d         -11.213  54.494   9.473  0.00  0.00    -0.068 A 
ATOM      3  C17 DN3 d         -12.171  55.299   8.859  0.00  0.00    -0.081 A 
ATOM      4  C18 DN3 d         -12.252  56.658   9.143  0.00  0.00    -0.075 A 
ATOM      5  C19 DN3 d         -11.274  57.247   9.944  0.00  0.00    -0.032 A 
ATOM      6  C20 DN3 d         -10.324  56.446  10.563  0.00  0.00    -0.060 A 
ATOM      7  H1  DN3 d         -11.178  53.430   9.266  0.00  0.00     0.085 H 
ATOM      8  H2  DN3 d         -12.863  54.860   8.149  0.00  0.00     0.083 H 
ATOM      9  H3  DN3 d         -13.067  57.252   8.745  0.00  0.00     0.084 H 
ATOM     10  H13 DN3 d          -9.589  56.899  11.218  0.00  0.00     0.086 H 
ENDROOT
BRANCH   1  11
ATOM     11  C13 DN3 d          -9.191  54.250  10.970  0.00  0.00     0.256 C 
ATOM     12  O14 DN3 d          -9.127  53.048  10.727  0.00  0.00    -0.267 OA
ATOM     13  N12 DN3 d          -8.302  54.867  11.759  0.00  0.00    -0.323 N 
ATOM     14  H14 DN3 d          -8.383  55.858  11.865  0.00  0.00     0.169 HD
BRANCH  13  15
ATOM     15  C10 DN3 d          -7.258  54.214  12.452  0.00  0.00     0.035 A 
ATOM     16  C11 DN3 d          -6.030  54.093  11.808  0.00  0.00    -0.043 A 
ATOM     17  C6  DN3 d          -4.952  53.487  12.446  0.00  0.00     0.017 A 
ATOM     18  H15 DN3 d          -5.912  54.475  10.801  0.00  0.00     0.088 H 
ATOM     19  C7  DN3 d          -5.087  52.992  13.739  0.00  0.00    -0.069 A 
ATOM     20  C8  DN3 d          -6.300  53.131  14.396  0.00  0.00    -0.080 A 
ATOM     21  H16 DN3 d          -4.253  52.502  14.227  0.00  0.00     0.085 H 
ATOM     22  C9  DN3 d          -7.396  53.717  13.748  0.00  0.00    -0.057 A 
ATOM     23  H17 DN3 d          -6.401  52.784  15.419  0.00  0.00     0.083 H 
ATOM     24  H18 DN3 d          -8.352  53.784  14.254  0.00  0.00     0.086 H 
BRANCH  17  25
ATOM     25  C2  DN3 d          -3.653  53.357  11.747  0.00  0.00     0.198 A 
ATOM     26  N1  DN3 d          -2.542  54.063  12.038  0.00  0.00    -0.139 NA
ATOM     27  N5  DN3 d          -1.534  53.692  11.157  0.00  0.00    -0.200 N 
ATOM     28  N4  DN3 d          -2.074  52.715  10.319  0.00  0.00     0.022 NA
ATOM     29  H19 DN3 d          -0.574  54.065  11.128  0.00  0.00     0.208 HD
ATOM     30  N3  DN3 d          -3.406  52.536  10.698  0.00  0.00    -0.136 NA
ENDBRANCH  17  25
ENDBRANCH  13  15
ENDBRANCH   1  11
BRANCH   5  31
ATOM     31  C21 DN3 d         -11.310  58.736  10.249  0.00  0.00     0.106 C 
ATOM     32  H4  DN3 d         -12.081  59.225   9.636  0.00  0.00     0.083 H 
ATOM     33  H5  DN3 d         -10.330  59.186  10.031  0.00  0.00     0.083 H 
BRANCH  31  34
ATOM     34  N22 DN3 d         -11.628  58.898  11.681  0.00  0.00    -0.075 N 
ATOM     35  H6  DN3 d         -10.888  58.495  12.233  0.00  0.00     0.279 HD
BRANCH  34  36
ATOM     36  C23 DN3 d         -11.739  60.337  11.975  0.00  0.00     0.066 C 
ATOM     37  H7  DN3 d         -11.497  60.916  11.071  0.00  0.00     0.068 H 
ATOM     38  H8  DN3 d         -11.037  60.602  12.779  0.00  0.00     0.068 H 
ATOM     39  H9  DN3 d         -12.766  60.568  12.294  0.00  0.00     0.068 H 
ENDBRANCH  34  36
BRANCH  34  40
ATOM     40  C24 DN3 d         -12.899  58.242  12.026  0.00  0.00     0.066 C 
ATOM     41  H10 DN3 d         -13.591  58.984  12.449  0.00  0.00     0.068 H 
ATOM     42  H11 DN3 d         -12.713  57.450  12.766  0.00  0.00     0.068 H 
ATOM     43  H12 DN3 d         -13.342  57.802  11.120  0.00  0.00     0.068 H 
ENDBRANCH  34  40
ENDBRANCH  31  34
ENDBRANCH   5  31
TORSDOF 7
ENDMDL
MODEL 7
REMARK VINA RESULT:      -6.0      1.401      9.196
REMARK  7 active torsions:
REMARK  status: ('A' for Active; 'I' for Inactive)
REMARK    1  A    between atoms: C13_2  and  C15_3 
REMARK       I    between atoms: C13_2  and  N12_13 
REMARK    2  A    between atoms: C19_7  and  C21_8 
REMARK    3  A    between atoms: C21_8  and  N22_9 
REMARK    4  A    between atoms: N22_9  and  C23_10 
REMARK    5  A    between atoms: N22_9  and  C24_11 
REMARK    6  A    between atoms: N12_13  and  C10_14 
REMARK    7  A    between atoms: C6_16  and  C2_20 
ROOT
ATOM      1  C15 DN3 d          -7.135  54.288  12.985  0.00  0.00     0.032 A 
ATOM      2  C16 DN3 d          -7.045  53.767  14.274  0.00  0.00    -0.068 A 
ATOM      3  C17 DN3 d          -6.017  52.875  14.579  0.00  0.00    -0.081 A 
ATOM      4  C18 DN3 d          -5.108  52.472  13.608  0.00  0.00    -0.075 A 
ATOM      5  C19 DN3 d          -5.140  53.074  12.350  0.00  0.00    -0.032 A 
ATOM      6  C20 DN3 d          -6.167  53.956  12.041  0.00  0.00    -0.060 A 
ATOM      7  H1  DN3 d          -7.766  54.052  15.032  0.00  0.00     0.085 H 
ATOM      8  H2  DN3 d          -5.925  52.491  15.589  0.00  0.00     0.083 H 
ATOM      9  H3  DN3 d          -4.381  51.697  13.826  0.00  0.00     0.084 H 
ATOM     10  H13 DN3 d          -6.215  54.393  11.050  0.00  0.00     0.086 H 
ENDROOT
BRANCH   1  11
ATOM     11  C13 DN3 d          -8.177  55.326  12.638  0.00  0.00     0.256 C 
ATOM     12  O14 DN3 d          -8.794  55.882  13.542  0.00  0.00    -0.267 OA
ATOM     13  N12 DN3 d          -8.389  55.613  11.347  0.00  0.00    -0.323 N 
ATOM     14  H14 DN3 d          -7.808  55.162  10.669  0.00  0.00     0.169 HD
BRANCH  13  15
ATOM     15  C10 DN3 d          -9.377  56.508  10.878  0.00  0.00     0.035 A 
ATOM     16  C11 DN3 d         -10.702  56.241  11.210  0.00  0.00    -0.043 A 
ATOM     17  C6  DN3 d         -11.720  57.099  10.804  0.00  0.00     0.017 A 
ATOM     18  H15 DN3 d         -10.943  55.358  11.789  0.00  0.00     0.088 H 
ATOM     19  C7  DN3 d         -11.427  58.237  10.060  0.00  0.00    -0.069 A 
ATOM     20  C8  DN3 d         -10.107  58.523   9.747  0.00  0.00    -0.080 A 
ATOM     21  H16 DN3 d         -12.223  58.893   9.728  0.00  0.00     0.085 H 
ATOM     22  C9  DN3 d          -9.081  57.648  10.130  0.00  0.00    -0.057 A 
ATOM     23  H17 DN3 d          -9.867  59.429   9.202  0.00  0.00     0.083 H 
ATOM     24  H18 DN3 d          -8.057  57.858   9.846  0.00  0.00     0.086 H 
BRANCH  17  25
ATOM     25  C2  DN3 d         -13.127  56.799  11.156  0.00  0.00     0.198 A 
ATOM     26  N1  DN3 d         -13.555  56.405  12.373  0.00  0.00    -0.139 NA
ATOM     27  N5  DN3 d         -14.927  56.192  12.316  0.00  0.00    -0.200 N 
ATOM     28  N4  DN3 d         -15.323  56.486  11.011  0.00  0.00     0.022 NA
ATOM     29  H19 DN3 d         -15.533  55.877  13.087  0.00  0.00     0.208 HD
ATOM     30  N3  DN3 d         -14.176  56.847  10.301  0.00  0.00    -0.136 NA
ENDBRANCH  17  25
ENDBRANCH  13  15
ENDBRANCH   1  11
BRANCH   5  31
ATOM     31  C21 DN3 d          -4.140  52.684  11.273  0.00  0.00     0.106 C 
ATOM     32  H4  DN3 d          -4.156  53.427  10.463  0.00  0.00     0.083 H 
ATOM     33  H5  DN3 d          -4.395  51.694  10.867  0.00  0.00     0.083 H 
BRANCH  31  34
ATOM     34  N22 DN3 d          -2.801  52.644  11.892  0.00  0.00    -0.075 N 
ATOM     35  H6  DN3 d          -2.814  52.003  12.670  0.00  0.00     0.279 HD
BRANCH  34  36
ATOM     36  C23 DN3 d          -1.834  52.178  10.883  0.00  0.00     0.066 C 
ATOM     37  H7  DN3 d          -2.260  52.311   9.877  0.00  0.00     0.068 H 
ATOM     38  H8  DN3 d          -1.615  51.113  11.050  0.00  0.00     0.068 H 
ATOM     39  H9  DN3 d          -0.905  52.761  10.968  0.00  0.00     0.068 H 
ENDBRANCH  34  36
BRANCH  34  40
ATOM     40  C24 DN3 d          -2.389  53.973  12.368  0.00  0.00     0.066 C 
ATOM     41  H10 DN3 d          -3.215  54.685  12.227  0.00  0.00     0.068 H 
ATOM     42  H11 DN3 d          -1.511  54.311  11.797  0.00  0.00     0.068 H 
ATOM     43  H12 DN3 d          -2.132  53.916  13.437  0.00  0.00     0.068 H 
ENDBRANCH  34  40
ENDBRANCH  31  34
ENDBRANCH   5  31
TORSDOF 7
ENDMDL
MODEL 8
REMARK VINA RESULT:      -5.2      2.568      8.864
REMARK  7 active torsions:
REMARK  status: ('A' for Active; 'I' for Inactive)
REMARK    1  A    between atoms: C13_2  and  C15_3 
REMARK       I    between atoms: C13_2  and  N12_13 
REMARK    2  A    between atoms: C19_7  and  C21_8 
REMARK    3  A    between atoms: C21_8  and  N22_9 
REMARK    4  A    between atoms: N22_9  and  C23_10 
REMARK    5  A    between atoms: N22_9  and  C24_11 
REMARK    6  A    between atoms: N12_13  and  C10_14 
REMARK    7  A    between atoms: C6_16  and  C2_20 
ROOT
ATOM      1  C15 DN3 d          -7.773  55.027  12.774  0.00  0.00     0.032 A 
ATOM      2  C16 DN3 d          -6.695  55.224  13.635  0.00  0.00    -0.068 A 
ATOM      3  C17 DN3 d          -5.578  54.396  13.529  0.00  0.00    -0.081 A 
ATOM      4  C18 DN3 d          -5.541  53.358  12.606  0.00  0.00    -0.075 A 
ATOM      5  C19 DN3 d          -6.576  53.231  11.679  0.00  0.00    -0.032 A 
ATOM      6  C20 DN3 d          -7.693  54.049  11.787  0.00  0.00    -0.060 A 
ATOM      7  H1  DN3 d          -6.725  56.011  14.379  0.00  0.00     0.085 H 
ATOM      8  H2  DN3 d          -4.725  54.566  14.177  0.00  0.00     0.083 H 
ATOM      9  H3  DN3 d          -4.716  52.655  12.606  0.00  0.00     0.084 H 
ATOM     10  H13 DN3 d          -8.516  53.923  11.092  0.00  0.00     0.086 H 
ENDROOT
BRANCH   1  11
ATOM     11  C13 DN3 d          -8.963  55.959  12.794  0.00  0.00     0.256 C 
ATOM     12  O14 DN3 d          -9.489  56.238  13.867  0.00  0.00    -0.267 OA
ATOM     13  N12 DN3 d          -9.403  56.458  11.632  0.00  0.00    -0.323 N 
ATOM     14  H14 DN3 d          -8.890  56.232  10.804  0.00  0.00     0.169 HD
BRANCH  13  15
ATOM     15  C10 DN3 d         -10.544  57.282  11.496  0.00  0.00     0.035 A 
ATOM     16  C11 DN3 d         -11.788  56.661  11.445  0.00  0.00    -0.043 A 
ATOM     17  C6  DN3 d         -12.952  57.416  11.341  0.00  0.00     0.017 A 
ATOM     18  H15 DN3 d         -11.851  55.580  11.486  0.00  0.00     0.088 H 
ATOM     19  C7  DN3 d         -12.888  58.804  11.287  0.00  0.00    -0.069 A 
ATOM     20  C8  DN3 d         -11.654  59.431  11.362  0.00  0.00    -0.080 A 
ATOM     21  H16 DN3 d         -13.794  59.390  11.186  0.00  0.00     0.085 H 
ATOM     22  C9  DN3 d         -10.477  58.674  11.440  0.00  0.00    -0.057 A 
ATOM     23  H17 DN3 d         -11.600  60.514  11.362  0.00  0.00     0.083 H 
ATOM     24  H18 DN3 d          -9.514  59.171  11.457  0.00  0.00     0.086 H 
BRANCH  17  25
ATOM     25  C2  DN3 d         -14.270  56.743  11.279  0.00  0.00     0.198 A 
ATOM     26  N1  DN3 d         -15.241  57.020  10.385  0.00  0.00    -0.139 NA
ATOM     27  N5  DN3 d         -16.338  56.211  10.652  0.00  0.00    -0.200 N 
ATOM     28  N4  DN3 d         -15.991  55.414  11.744  0.00  0.00     0.022 NA
ATOM     29  H19 DN3 d         -17.234  56.202  10.143  0.00  0.00     0.208 HD
ATOM     30  N3  DN3 d         -14.699  55.778  12.128  0.00  0.00    -0.136 NA
ENDBRANCH  17  25
ENDBRANCH  13  15
ENDBRANCH   1  11
BRANCH   5  31
ATOM     31  C21 DN3 d          -6.554  52.130  10.631  0.00  0.00     0.106 C 
ATOM     32  H4  DN3 d          -7.410  51.456  10.780  0.00  0.00     0.083 H 
ATOM     33  H5  DN3 d          -5.618  51.557  10.710  0.00  0.00     0.083 H 
BRANCH  31  34
ATOM     34  N22 DN3 d          -6.642  52.767   9.303  0.00  0.00    -0.075 N 
ATOM     35  H6  DN3 d          -6.525  53.763   9.404  0.00  0.00     0.279 HD
BRANCH  34  36
ATOM     36  C23 DN3 d          -5.567  52.225   8.453  0.00  0.00     0.066 C 
ATOM     37  H7  DN3 d          -5.969  51.996   7.454  0.00  0.00     0.068 H 
ATOM     38  H8  DN3 d          -5.169  51.306   8.907  0.00  0.00     0.068 H 
ATOM     39  H9  DN3 d          -4.762  52.969   8.362  0.00  0.00     0.068 H 
ENDBRANCH  34  36
BRANCH  34  40
ATOM     40  C24 DN3 d          -7.938  52.496   8.662  0.00  0.00     0.066 C 
ATOM     41  H10 DN3 d          -8.686  53.214   9.030  0.00  0.00     0.068 H 
ATOM     42  H11 DN3 d          -8.261  51.472   8.906  0.00  0.00     0.068 H 
ATOM     43  H12 DN3 d          -7.837  52.599   7.571  0.00  0.00     0.068 H 
ENDBRANCH  34  40
ENDBRANCH  31  34
ENDBRANCH   5  31
TORSDOF 7
ENDMDL
MODEL 9
REMARK VINA RESULT:      -5.1      2.508      3.386
REMARK  7 active torsions:
REMARK  status: ('A' for Active; 'I' for Inactive)
REMARK    1  A    between atoms: C13_2  and  C15_3 
REMARK       I    between atoms: C13_2  and  N12_13 
REMARK    2  A    between atoms: C19_7  and  C21_8 
REMARK    3  A    between atoms: C21_8  and  N22_9 
REMARK    4  A    between atoms: N22_9  and  C23_10 
REMARK    5  A    between atoms: N22_9  and  C24_11 
REMARK    6  A    between atoms: N12_13  and  C10_14 
REMARK    7  A    between atoms: C6_16  and  C2_20 
ROOT
ATOM      1  C15 DN3 d         -11.373  57.316   9.970  0.00  0.00     0.032 A 
ATOM      2  C16 DN3 d         -11.479  58.704  10.029  0.00  0.00    -0.068 A 
ATOM      3  C17 DN3 d         -12.743  59.290  10.073  0.00  0.00    -0.081 A 
ATOM      4  C18 DN3 d         -13.895  58.513  10.022  0.00  0.00    -0.075 A 
ATOM      5  C19 DN3 d         -13.783  57.123  10.069  0.00  0.00    -0.032 A 
ATOM      6  C20 DN3 d         -12.525  56.537  10.016  0.00  0.00    -0.060 A 
ATOM      7  H1  DN3 d         -10.588  59.321  10.039  0.00  0.00     0.085 H 
ATOM      8  H2  DN3 d         -12.830  60.368  10.149  0.00  0.00     0.083 H 
ATOM      9  H3  DN3 d         -14.869  58.982   9.948  0.00  0.00     0.084 H 
ATOM     10  H13 DN3 d         -12.440  55.456  10.012  0.00  0.00     0.086 H 
ENDROOT
BRANCH   1  11
ATOM     11  C13 DN3 d         -10.023  56.637  10.013  0.00  0.00     0.256 C 
ATOM     12  O14 DN3 d          -9.027  57.259   9.653  0.00  0.00    -0.267 OA
ATOM     13  N12 DN3 d          -9.956  55.375  10.454  0.00  0.00    -0.323 N 
ATOM     14  H14 DN3 d         -10.799  54.952  10.785  0.00  0.00     0.169 HD
BRANCH  13  15
ATOM     15  C10 DN3 d          -8.774  54.598  10.482  0.00  0.00     0.035 A 
ATOM     16  C11 DN3 d          -8.080  54.521  11.685  0.00  0.00    -0.043 A 
ATOM     17  C6  DN3 d          -6.926  53.750  11.788  0.00  0.00     0.017 A 
ATOM     18  H15 DN3 d          -8.441  55.065  12.550  0.00  0.00     0.088 H 
ATOM     19  C7  DN3 d          -6.450  53.045  10.688  0.00  0.00    -0.069 A 
ATOM     20  C8  DN3 d          -7.150  53.097   9.493  0.00  0.00    -0.080 A 
ATOM     21  H16 DN3 d          -5.540  52.462  10.764  0.00  0.00     0.085 H 
ATOM     22  C9  DN3 d          -8.298  53.893   9.377  0.00  0.00    -0.057 A 
ATOM     23  H17 DN3 d          -6.808  52.518   8.642  0.00  0.00     0.083 H 
ATOM     24  H18 DN3 d          -8.816  53.961   8.427  0.00  0.00     0.086 H 
BRANCH  17  25
ATOM     25  C2  DN3 d          -6.191  53.683  13.073  0.00  0.00     0.198 A 
ATOM     26  N1  DN3 d          -6.763  53.588  14.290  0.00  0.00    -0.139 NA
ATOM     27  N5  DN3 d          -5.763  53.578  15.254  0.00  0.00    -0.200 N 
ATOM     28  N4  DN3 d          -4.549  53.656  14.571  0.00  0.00     0.022 NA
ATOM     29  H19 DN3 d          -5.893  53.523  16.274  0.00  0.00     0.208 HD
ATOM     30  N3  DN3 d          -4.844  53.737  13.208  0.00  0.00    -0.136 NA
ENDBRANCH  17  25
ENDBRANCH  13  15
ENDBRANCH   1  11
BRANCH   5  31
ATOM     31  C21 DN3 d         -15.021  56.240  10.050  0.00  0.00     0.106 C 
ATOM     32  H4  DN3 d         -14.846  55.366   9.406  0.00  0.00     0.083 H 
ATOM     33  H5  DN3 d         -15.881  56.810   9.669  0.00  0.00     0.083 H 
BRANCH  31  34
ATOM     34  N22 DN3 d         -15.284  55.800  11.434  0.00  0.00    -0.075 N 
ATOM     35  H6  DN3 d         -16.257  55.949  11.650  0.00  0.00     0.279 HD
BRANCH  34  36
ATOM     36  C23 DN3 d         -14.967  54.365  11.536  0.00  0.00     0.066 C 
ATOM     37  H7  DN3 d         -14.502  54.024  10.598  0.00  0.00     0.068 H 
ATOM     38  H8  DN3 d         -15.892  53.797  11.713  0.00  0.00     0.068 H 
ATOM     39  H9  DN3 d         -14.271  54.201  12.371  0.00  0.00     0.068 H 
ENDBRANCH  34  36
BRANCH  34  40
ATOM     40  C24 DN3 d         -14.457  56.540  12.400  0.00  0.00     0.066 C 
ATOM     41  H10 DN3 d         -13.866  57.300  11.869  0.00  0.00     0.068 H 
ATOM     42  H11 DN3 d         -13.780  55.841  12.914  0.00  0.00     0.068 H 
ATOM     43  H12 DN3 d         -15.108  57.032  13.139  0.00  0.00     0.068 H 
ENDBRANCH  34  40
ENDBRANCH  31  34
ENDBRANCH   5  31
TORSDOF 7
ENDMDL
MODEL 10
REMARK VINA RESULT:      -4.8      2.358      9.528
REMARK  7 active torsions:
REMARK  status: ('A' for Active; 'I' for Inactive)
REMARK    1  A    between atoms: C13_2  and  C15_3 
REMARK       I    between atoms: C13_2  and  N12_13 
REMARK    2  A    between atoms: C19_7  and  C21_8 
REMARK    3  A    between atoms: C21_8  and  N22_9 
REMARK    4  A    between atoms: N22_9  and  C23_10 
REMARK    5  A    between atoms: N22_9  and  C24_11 
REMARK    6  A    between atoms: N12_13  and  C10_14 
REMARK    7  A    between atoms: C6_16  and  C2_20 
ROOT
ATOM      1  C15 DN3 d          -8.940  56.524  10.420  0.00  0.00     0.032 A 
ATOM      2  C16 DN3 d          -8.471  55.763   9.351  0.00  0.00    -0.068 A 
ATOM      3  C17 DN3 d          -7.403  54.889   9.553  0.00  0.00    -0.081 A 
ATOM      4  C18 DN3 d          -6.779  54.795  10.791  0.00  0.00    -0.075 A 
ATOM      5  C19 DN3 d          -7.318  55.480  11.881  0.00  0.00    -0.032 A 
ATOM      6  C20 DN3 d          -8.375  56.358  11.681  0.00  0.00    -0.060 A 
ATOM      7  H1  DN3 d          -8.931  55.850   8.373  0.00  0.00     0.085 H 
ATOM      8  H2  DN3 d          -7.055  54.273   8.731  0.00  0.00     0.083 H 
ATOM      9  H3  DN3 d          -5.884  54.196  10.909  0.00  0.00     0.084 H 
ATOM     10  H13 DN3 d          -8.768  56.921  12.520  0.00  0.00     0.086 H 
ENDROOT
BRANCH   1  11
ATOM     11  C13 DN3 d         -10.152  57.415  10.266  0.00  0.00     0.256 C 
ATOM     12  O14 DN3 d         -10.002  58.632  10.240  0.00  0.00    -0.267 OA
ATOM     13  N12 DN3 d         -11.356  56.840  10.155  0.00  0.00    -0.323 N 
ATOM     14  H14 DN3 d         -11.395  55.841  10.126  0.00  0.00     0.169 HD
BRANCH  13  15
ATOM     15  C10 DN3 d         -12.577  57.549  10.076  0.00  0.00     0.035 A 
ATOM     16  C11 DN3 d         -13.323  57.685  11.243  0.00  0.00    -0.043 A 
ATOM     17  C6  DN3 d         -14.519  58.396  11.240  0.00  0.00     0.017 A 
ATOM     18  H15 DN3 d         -12.969  57.232  12.162  0.00  0.00     0.088 H 
ATOM     19  C7  DN3 d         -14.986  58.982  10.069  0.00  0.00    -0.069 A 
ATOM     20  C8  DN3 d         -14.236  58.873   8.908  0.00  0.00    -0.080 A 
ATOM     21  H16 DN3 d         -15.927  59.519  10.064  0.00  0.00     0.085 H 
ATOM     22  C9  DN3 d         -13.044  58.135   8.900  0.00  0.00    -0.057 A 
ATOM     23  H17 DN3 d         -14.573  59.362   8.001  0.00  0.00     0.083 H 
ATOM     24  H18 DN3 d         -12.485  58.021   7.979  0.00  0.00     0.086 H 
BRANCH  17  25
ATOM     25  C2  DN3 d         -15.308  58.525  12.487  0.00  0.00     0.198 A 
ATOM     26  N1  DN3 d         -15.521  59.677  13.154  0.00  0.00    -0.139 NA
ATOM     27  N5  DN3 d         -16.278  59.404  14.286  0.00  0.00    -0.200 N 
ATOM     28  N4  DN3 d         -16.533  58.033  14.276  0.00  0.00     0.022 NA
ATOM     29  H19 DN3 d         -16.591  60.083  14.995  0.00  0.00     0.208 HD
ATOM     30  N3  DN3 d         -15.901  57.503  13.149  0.00  0.00    -0.136 NA
ENDBRANCH  17  25
ENDBRANCH  13  15
ENDBRANCH   1  11
BRANCH   5  31
ATOM     31  C21 DN3 d          -6.684  55.375  13.258  0.00  0.00     0.106 C 
ATOM     32  H4  DN3 d          -7.468  55.338  14.028  0.00  0.00     0.083 H 
ATOM     33  H5  DN3 d          -6.034  56.244  13.439  0.00  0.00     0.083 H 
BRANCH  31  34
ATOM     34  N22 DN3 d          -5.884  54.135  13.296  0.00  0.00    -0.075 N 
ATOM     35  H6  DN3 d          -6.178  53.528  12.546  0.00  0.00     0.279 HD
BRANCH  34  36
ATOM     36  C23 DN3 d          -4.465  54.489  13.120  0.00  0.00     0.066 C 
ATOM     37  H7  DN3 d          -4.290  55.506  13.501  0.00  0.00     0.068 H 
ATOM     38  H8  DN3 d          -4.207  54.448  12.052  0.00  0.00     0.068 H 
ATOM     39  H9  DN3 d          -3.838  53.776  13.676  0.00  0.00     0.068 H 
ENDBRANCH  34  36
BRANCH  34  40
ATOM     40  C24 DN3 d          -6.044  53.431  14.577  0.00  0.00     0.066 C 
ATOM     41  H10 DN3 d          -5.918  52.349  14.419  0.00  0.00     0.068 H 
ATOM     42  H11 DN3 d          -7.049  53.629  14.980  0.00  0.00     0.068 H 
ATOM     43  H12 DN3 d          -5.285  53.788  15.290  0.00  0.00     0.068 H 
ENDBRANCH  34  40
ENDBRANCH  31  34
ENDBRANCH   5  31
TORSDOF 7
ENDMDL
