MODEL 1
REMARK VINA RESULT:      -9.8      0.000      0.000
REMARK  8 active torsions:
REMARK  status: ('A' for Active; 'I' for Inactive)
REMARK    1  A    between atoms: CA_4  and  C_1 
REMARK    2  A    between atoms: N_2  and  CA_4 
REMARK    3  A    between atoms: OAR_19  and  CAA_5 
REMARK    4  A    between atoms: NAQ_18  and  CAO_17 
REMARK    5  A    between atoms: CAO_17  and  CAV_22 
REMARK    6  A    between atoms: SBC_28  and  NAQ_18 
REMARK    7  A    between atoms: CAU_21  and  OAR_19 
REMARK    8  A    between atoms: CAW_23  and  SBC_28 
ROOT
ATOM      1  N   FG5 d           0.777 -11.248  38.273  0.00  0.00    -0.338 N 
ATOM      2  CAH FG5 d          -0.435  -9.830  41.408  0.00  0.00    -0.049 A 
ATOM      3  CAK FG5 d           0.187 -10.714  40.547  0.00  0.00    -0.054 A 
ATOM      4  CAL FG5 d          -0.964  -8.536  39.424  0.00  0.00    -0.039 A 
ATOM      5  CAM FG5 d          -0.151  -9.497  37.307  0.00  0.00    -0.047 A 
ATOM      6  CAU FG5 d          -1.019  -8.717  40.821  0.00  0.00     0.069 A 
ATOM      7  CAV FG5 d           0.555 -10.621  37.115  0.00  0.00     0.032 A 
ATOM      8  CAY FG5 d          -0.347  -9.431  38.631  0.00  0.00    -0.005 A 
ATOM      9  CBA FG5 d           0.227 -10.507  39.217  0.00  0.00     0.045 A 
ATOM     10  H8  FG5 d          -0.466  -9.996  42.479  0.00  0.00     0.087 H 
ATOM     11  H11 FG5 d           0.658 -11.600  40.955  0.00  0.00     0.087 H 
ATOM     12  H12 FG5 d          -1.426  -7.661  38.982  0.00  0.00     0.089 H 
ATOM     13  H13 FG5 d          -0.491  -8.791  36.551  0.00  0.00     0.088 H 
ENDROOT
BRANCH   7  14
ATOM     14  CAO FG5 d           1.075 -11.214  35.782  0.00  0.00     0.041 C 
ATOM     15  H15 FG5 d           2.135 -10.941  35.678  0.00  0.00     0.074 H 
ATOM     16  H16 FG5 d           0.983 -12.309  35.837  0.00  0.00     0.074 H 
BRANCH  14  17
ATOM     17  NAQ FG5 d           0.363 -10.754  34.581  0.00  0.00    -0.308 N 
ATOM     18  H17 FG5 d          -0.439 -11.204  34.187  0.00  0.00     0.172 HD
BRANCH  17  19
ATOM     19  SBC FG5 d           1.135  -9.264  33.912  0.00  0.00     0.281 S 
ATOM     20  OAC FG5 d           2.532  -9.147  34.542  0.00  0.00    -0.199 OA
ATOM     21  OAD FG5 d           0.326  -7.968  34.108  0.00  0.00    -0.199 OA
BRANCH  19  22
ATOM     22  CAW FG5 d           1.326  -9.499  32.175  0.00  0.00     0.191 A 
ATOM     23  CAN FG5 d           1.920  -8.612  31.398  0.00  0.00    -0.025 A 
ATOM     24  CAX FG5 d           1.920  -9.049  30.146  0.00  0.00     0.001 A 
ATOM     25  H14 FG5 d           2.346  -7.668  31.734  0.00  0.00     0.090 H 
ATOM     26  CAI FG5 d           2.409  -8.475  29.042  0.00  0.00    -0.070 A 
ATOM     27  CAZ FG5 d           1.304 -10.237  30.133  0.00  0.00     0.087 A 
ATOM     28  CAF FG5 d           2.287  -9.116  27.823  0.00  0.00    -0.082 A 
ATOM     29  H9  FG5 d           2.900  -7.510  29.103  0.00  0.00     0.084 H 
ATOM     30  CAG FG5 d           1.648 -10.353  27.816  0.00  0.00    -0.080 A 
ATOM     31  H6  FG5 d           2.671  -8.674  26.911  0.00  0.00     0.083 H 
ATOM     32  CAJ FG5 d           1.162 -10.910  28.995  0.00  0.00    -0.049 A 
ATOM     33  H7  FG5 d           1.528 -10.889  26.881  0.00  0.00     0.083 H 
ATOM     34  H10 FG5 d           0.674 -11.878  28.987  0.00  0.00     0.087 H 
ATOM     35  OAS FG5 d           0.914 -10.534  31.456  0.00  0.00    -0.296 OA
ENDBRANCH  19  22
ENDBRANCH  17  19
ENDBRANCH  14  17
ENDBRANCH   7  14
BRANCH   1  36
ATOM     36  CA  FG5 d           1.517 -12.492  38.715  0.00  0.00     0.080 C 
ATOM     37  H1  FG5 d           1.376 -12.580  39.802  0.00  0.00     0.081 H 
ATOM     38  H2  FG5 d           1.036 -13.345  38.213  0.00  0.00     0.081 H 
BRANCH  36  39
ATOM     39  C   FG5 d           3.006 -12.609  38.454  0.00  0.00     0.191 C 
ATOM     40  O   FG5 d           3.751 -12.313  39.432  0.00  0.00    -0.647 OA
ATOM     41  OXT FG5 d           3.372 -13.025  37.334  0.00  0.00    -0.647 OA
ENDBRANCH  36  39
ENDBRANCH   1  36
BRANCH   6  42
ATOM     42  OAR FG5 d          -1.635  -7.850  41.648  0.00  0.00    -0.356 OA
BRANCH  42  43
ATOM     43  CAA FG5 d          -2.380  -6.820  40.998  0.00  0.00     0.010 C 
ATOM     44  H3  FG5 d          -3.456  -7.024  41.103  0.00  0.00     0.066 H 
ATOM     45  H4  FG5 d          -2.114  -6.792  39.932  0.00  0.00     0.066 H 
ATOM     46  H5  FG5 d          -2.145  -5.850  41.460  0.00  0.00     0.066 H 
ENDBRANCH  42  43
ENDBRANCH   6  42
TORSDOF 8
ENDMDL
MODEL 2
REMARK VINA RESULT:      -9.1      1.976      8.919
REMARK  8 active torsions:
REMARK  status: ('A' for Active; 'I' for Inactive)
REMARK    1  A    between atoms: CA_4  and  C_1 
REMARK    2  A    between atoms: N_2  and  CA_4 
REMARK    3  A    between atoms: OAR_19  and  CAA_5 
REMARK    4  A    between atoms: NAQ_18  and  CAO_17 
REMARK    5  A    between atoms: CAO_17  and  CAV_22 
REMARK    6  A    between atoms: SBC_28  and  NAQ_18 
REMARK    7  A    between atoms: CAU_21  and  OAR_19 
REMARK    8  A    between atoms: CAW_23  and  SBC_28 
ROOT
ATOM      1  N   FG5 d           0.982  -9.554  33.657  0.00  0.00    -0.338 N 
ATOM      2  CAH FG5 d           1.688  -8.686  30.185  0.00  0.00    -0.049 A 
ATOM      3  CAK FG5 d           1.355  -8.516  31.515  0.00  0.00    -0.054 A 
ATOM      4  CAL FG5 d           1.849 -11.051  30.705  0.00  0.00    -0.039 A 
ATOM      5  CAM FG5 d           1.366 -11.638  33.047  0.00  0.00    -0.047 A 
ATOM      6  CAU FG5 d           1.941  -9.989  29.783  0.00  0.00     0.069 A 
ATOM      7  CAV FG5 d           1.048 -10.824  34.065  0.00  0.00     0.032 A 
ATOM      8  CAY FG5 d           1.516 -10.829  31.990  0.00  0.00    -0.005 A 
ATOM      9  CBA FG5 d           1.282  -9.553  32.371  0.00  0.00     0.045 A 
ATOM     10  H8  FG5 d           1.747  -7.851  29.496  0.00  0.00     0.087 H 
ATOM     11  H11 FG5 d           1.145  -7.518  31.881  0.00  0.00     0.087 H 
ATOM     12  H12 FG5 d           2.050 -12.063  30.373  0.00  0.00     0.089 H 
ATOM     13  H13 FG5 d           1.478 -12.721  33.075  0.00  0.00     0.088 H 
ENDROOT
BRANCH   7  14
ATOM     14  CAO FG5 d           0.758 -11.197  35.540  0.00  0.00     0.041 C 
ATOM     15  H15 FG5 d           0.006 -10.495  35.928  0.00  0.00     0.074 H 
ATOM     16  H16 FG5 d           0.351 -12.218  35.561  0.00  0.00     0.074 H 
BRANCH  14  17
ATOM     17  NAQ FG5 d           1.928 -11.152  36.431  0.00  0.00    -0.308 N 
ATOM     18  H17 FG5 d           2.814 -10.759  36.186  0.00  0.00     0.172 HD
BRANCH  17  19
ATOM     19  SBC FG5 d           1.544 -11.905  38.027  0.00  0.00     0.281 S 
ATOM     20  OAC FG5 d           2.875 -12.138  38.758  0.00  0.00    -0.199 OA
ATOM     21  OAD FG5 d           0.715 -13.201  37.952  0.00  0.00    -0.199 OA
BRANCH  19  22
ATOM     22  CAW FG5 d           0.598 -10.737  38.950  0.00  0.00     0.191 A 
ATOM     23  CAN FG5 d          -0.145  -9.809  38.375  0.00  0.00    -0.025 A 
ATOM     24  CAX FG5 d          -0.740  -9.076  39.306  0.00  0.00     0.001 A 
ATOM     25  H14 FG5 d          -0.253  -9.668  37.300  0.00  0.00     0.090 H 
ATOM     26  CAI FG5 d          -1.570  -8.038  39.173  0.00  0.00    -0.070 A 
ATOM     27  CAZ FG5 d          -0.356  -9.550  40.498  0.00  0.00     0.087 A 
ATOM     28  CAF FG5 d          -2.070  -7.409  40.299  0.00  0.00    -0.082 A 
ATOM     29  H9  FG5 d          -1.852  -7.689  38.185  0.00  0.00     0.084 H 
ATOM     30  CAG FG5 d          -1.670  -7.907  41.536  0.00  0.00    -0.080 A 
ATOM     31  H6  FG5 d          -2.743  -6.563  40.221  0.00  0.00     0.083 H 
ATOM     32  CAJ FG5 d          -0.807  -8.996  41.619  0.00  0.00    -0.049 A 
ATOM     33  H7  FG5 d          -2.035  -7.442  42.444  0.00  0.00     0.083 H 
ATOM     34  H10 FG5 d          -0.506  -9.387  42.584  0.00  0.00     0.087 H 
ATOM     35  OAS FG5 d           0.518 -10.633  40.270  0.00  0.00    -0.296 OA
ENDBRANCH  19  22
ENDBRANCH  17  19
ENDBRANCH  14  17
ENDBRANCH   7  14
BRANCH   1  36
ATOM     36  CA  FG5 d           0.720  -8.213  34.307  0.00  0.00     0.080 C 
ATOM     37  H1  FG5 d           0.645  -7.473  33.496  0.00  0.00     0.081 H 
ATOM     38  H2  FG5 d          -0.249  -8.291  34.822  0.00  0.00     0.081 H 
BRANCH  36  39
ATOM     39  C   FG5 d           1.711  -7.663  35.314  0.00  0.00     0.191 C 
ATOM     40  O   FG5 d           2.313  -6.608  34.959  0.00  0.00    -0.647 OA
ATOM     41  OXT FG5 d           1.821  -8.253  36.409  0.00  0.00    -0.647 OA
ENDBRANCH  36  39
ENDBRANCH   1  36
BRANCH   6  42
ATOM     42  OAR FG5 d           2.261 -10.170  28.486  0.00  0.00    -0.356 OA
BRANCH  42  43
ATOM     43  CAA FG5 d           1.696 -11.334  27.881  0.00  0.00     0.010 C 
ATOM     44  H3  FG5 d           1.264 -11.066  26.906  0.00  0.00     0.066 H 
ATOM     45  H4  FG5 d           0.909 -11.741  28.532  0.00  0.00     0.066 H 
ATOM     46  H5  FG5 d           2.481 -12.091  27.738  0.00  0.00     0.066 H 
ENDBRANCH  42  43
ENDBRANCH   6  42
TORSDOF 8
ENDMDL
MODEL 3
REMARK VINA RESULT:      -8.9      1.938      3.305
REMARK  8 active torsions:
REMARK  status: ('A' for Active; 'I' for Inactive)
REMARK    1  A    between atoms: CA_4  and  C_1 
REMARK    2  A    between atoms: N_2  and  CA_4 
REMARK    3  A    between atoms: OAR_19  and  CAA_5 
REMARK    4  A    between atoms: NAQ_18  and  CAO_17 
REMARK    5  A    between atoms: CAO_17  and  CAV_22 
REMARK    6  A    between atoms: SBC_28  and  NAQ_18 
REMARK    7  A    between atoms: CAU_21  and  OAR_19 
REMARK    8  A    between atoms: CAW_23  and  SBC_28 
ROOT
ATOM      1  N   FG5 d           0.062  -9.886  36.106  0.00  0.00    -0.338 N 
ATOM      2  CAH FG5 d          -0.608  -8.791  39.521  0.00  0.00    -0.049 A 
ATOM      3  CAK FG5 d          -0.575  -8.762  38.140  0.00  0.00    -0.054 A 
ATOM      4  CAL FG5 d           0.498 -10.943  39.332  0.00  0.00    -0.039 A 
ATOM      5  CAM FG5 d           0.957 -11.679  37.027  0.00  0.00    -0.047 A 
ATOM      6  CAU FG5 d          -0.057  -9.914  40.120  0.00  0.00     0.069 A 
ATOM      7  CAV FG5 d           0.659 -11.059  35.876  0.00  0.00     0.032 A 
ATOM      8  CAY FG5 d           0.507 -10.862  37.988  0.00  0.00    -0.005 A 
ATOM      9  CBA FG5 d          -0.042  -9.766  37.417  0.00  0.00     0.045 A 
ATOM     10  H8  FG5 d          -1.039  -7.983  40.102  0.00  0.00     0.087 H 
ATOM     11  H11 FG5 d          -0.992  -7.906  37.622  0.00  0.00     0.087 H 
ATOM     12  H12 FG5 d           0.925 -11.813  39.816  0.00  0.00     0.089 H 
ATOM     13  H13 FG5 d           1.456 -12.639  37.152  0.00  0.00     0.088 H 
ENDROOT
BRANCH   7  14
ATOM     14  CAO FG5 d           0.938 -11.532  34.427  0.00  0.00     0.041 C 
ATOM     15  H15 FG5 d           0.247 -12.357  34.199  0.00  0.00     0.074 H 
ATOM     16  H16 FG5 d           0.740 -10.690  33.748  0.00  0.00     0.074 H 
BRANCH  14  17
ATOM     17  NAQ FG5 d           2.309 -12.004  34.184  0.00  0.00    -0.308 N 
ATOM     18  H17 FG5 d           2.615 -12.949  34.302  0.00  0.00     0.172 HD
BRANCH  17  19
ATOM     19  SBC FG5 d           3.366 -10.643  33.643  0.00  0.00     0.281 S 
ATOM     20  OAC FG5 d           4.811 -11.166  33.612  0.00  0.00    -0.199 OA
ATOM     21  OAD FG5 d           3.256  -9.359  34.487  0.00  0.00    -0.199 OA
BRANCH  19  22
ATOM     22  CAW FG5 d           2.890 -10.225  31.997  0.00  0.00     0.191 A 
ATOM     23  CAN FG5 d           2.241 -11.062  31.209  0.00  0.00    -0.025 A 
ATOM     24  CAX FG5 d           2.016 -10.485  30.037  0.00  0.00     0.001 A 
ATOM     25  H14 FG5 d           1.937 -12.072  31.481  0.00  0.00     0.090 H 
ATOM     26  CAI FG5 d           1.399 -10.966  28.953  0.00  0.00    -0.070 A 
ATOM     27  CAZ FG5 d           2.543  -9.255  30.086  0.00  0.00     0.087 A 
ATOM     28  CAF FG5 d           1.286 -10.180  27.821  0.00  0.00    -0.082 A 
ATOM     29  H9  FG5 d           0.989 -11.970  28.962  0.00  0.00     0.084 H 
ATOM     30  CAG FG5 d           1.833  -8.901  27.878  0.00  0.00    -0.080 A 
ATOM     31  H6  FG5 d           0.793 -10.545  26.927  0.00  0.00     0.083 H 
ATOM     32  CAJ FG5 d           2.460  -8.446  29.034  0.00  0.00    -0.049 A 
ATOM     33  H7  FG5 d           1.769  -8.252  27.012  0.00  0.00     0.083 H 
ATOM     34  H10 FG5 d           2.876  -7.445  29.077  0.00  0.00     0.087 H 
ATOM     35  OAS FG5 d           3.115  -9.082  31.363  0.00  0.00    -0.296 OA
ENDBRANCH  19  22
ENDBRANCH  17  19
ENDBRANCH  14  17
ENDBRANCH   7  14
BRANCH   1  36
ATOM     36  CA  FG5 d          -0.531  -8.780  35.261  0.00  0.00     0.080 C 
ATOM     37  H1  FG5 d          -1.227  -9.256  34.554  0.00  0.00     0.081 H 
ATOM     38  H2  FG5 d          -1.093  -8.124  35.942  0.00  0.00     0.081 H 
BRANCH  36  39
ATOM     39  C   FG5 d           0.384  -7.889  34.445  0.00  0.00     0.191 C 
ATOM     40  O   FG5 d           1.068  -7.060  35.113  0.00  0.00    -0.647 OA
ATOM     41  OXT FG5 d           0.427  -8.069  33.209  0.00  0.00    -0.647 OA
ENDBRANCH  36  39
ENDBRANCH   1  36
BRANCH   6  42
ATOM     42  OAR FG5 d          -0.077  -9.953  41.466  0.00  0.00    -0.356 OA
BRANCH  42  43
ATOM     43  CAA FG5 d          -1.120  -9.195  42.079  0.00  0.00     0.010 C 
ATOM     44  H3  FG5 d          -2.081  -9.447  41.607  0.00  0.00     0.066 H 
ATOM     45  H4  FG5 d          -0.918  -8.121  41.948  0.00  0.00     0.066 H 
ATOM     46  H5  FG5 d          -1.164  -9.431  43.152  0.00  0.00     0.066 H 
ENDBRANCH  42  43
ENDBRANCH   6  42
TORSDOF 8
ENDMDL
MODEL 4
REMARK VINA RESULT:      -7.5      2.197      8.504
REMARK  8 active torsions:
REMARK  status: ('A' for Active; 'I' for Inactive)
REMARK    1  A    between atoms: CA_4  and  C_1 
REMARK    2  A    between atoms: N_2  and  CA_4 
REMARK    3  A    between atoms: OAR_19  and  CAA_5 
REMARK    4  A    between atoms: NAQ_18  and  CAO_17 
REMARK    5  A    between atoms: CAO_17  and  CAV_22 
REMARK    6  A    between atoms: SBC_28  and  NAQ_18 
REMARK    7  A    between atoms: CAU_21  and  OAR_19 
REMARK    8  A    between atoms: CAW_23  and  SBC_28 
ROOT
ATOM      1  N   FG5 d           2.770 -11.673  34.381  0.00  0.00    -0.338 N 
ATOM      2  CAH FG5 d           3.295  -9.834  31.274  0.00  0.00    -0.049 A 
ATOM      3  CAK FG5 d           3.587 -10.426  32.488  0.00  0.00    -0.054 A 
ATOM      4  CAL FG5 d           1.022 -10.599  31.642  0.00  0.00    -0.039 A 
ATOM      5  CAM FG5 d           0.666 -11.835  33.743  0.00  0.00    -0.047 A 
ATOM      6  CAU FG5 d           1.978  -9.931  30.851  0.00  0.00     0.069 A 
ATOM      7  CAV FG5 d           1.562 -12.152  34.688  0.00  0.00     0.032 A 
ATOM      8  CAY FG5 d           1.360 -11.156  32.820  0.00  0.00    -0.005 A 
ATOM      9  CBA FG5 d           2.650 -11.063  33.216  0.00  0.00     0.045 A 
ATOM     10  H8  FG5 d           4.050  -9.323  30.688  0.00  0.00     0.087 H 
ATOM     11  H11 FG5 d           4.602 -10.378  32.865  0.00  0.00     0.087 H 
ATOM     12  H12 FG5 d          -0.003 -10.666  31.296  0.00  0.00     0.089 H 
ATOM     13  H13 FG5 d          -0.396 -12.077  33.729  0.00  0.00     0.088 H 
ENDROOT
BRANCH   7  14
ATOM     14  CAO FG5 d           1.336 -12.941  36.002  0.00  0.00     0.041 C 
ATOM     15  H15 FG5 d           0.933 -13.931  35.741  0.00  0.00     0.074 H 
ATOM     16  H16 FG5 d           2.309 -13.062  36.500  0.00  0.00     0.074 H 
BRANCH  14  17
ATOM     17  NAQ FG5 d           0.411 -12.307  36.953  0.00  0.00    -0.308 N 
ATOM     18  H17 FG5 d          -0.561 -12.143  36.779  0.00  0.00     0.172 HD
BRANCH  17  19
ATOM     19  SBC FG5 d           1.269 -11.863  38.480  0.00  0.00     0.281 S 
ATOM     20  OAC FG5 d           2.640 -11.291  38.087  0.00  0.00    -0.199 OA
ATOM     21  OAD FG5 d           1.414 -13.008  39.500  0.00  0.00    -0.199 OA
BRANCH  19  22
ATOM     22  CAW FG5 d           0.336 -10.587  39.261  0.00  0.00     0.191 A 
ATOM     23  CAN FG5 d          -0.358  -9.694  38.579  0.00  0.00    -0.025 A 
ATOM     24  CAX FG5 d          -0.955  -8.860  39.419  0.00  0.00     0.001 A 
ATOM     25  H14 FG5 d          -0.429  -9.649  37.493  0.00  0.00     0.090 H 
ATOM     26  CAI FG5 d          -1.746  -7.813  39.165  0.00  0.00    -0.070 A 
ATOM     27  CAZ FG5 d          -0.623  -9.234  40.662  0.00  0.00     0.087 A 
ATOM     28  CAF FG5 d          -2.258  -7.068  40.212  0.00  0.00    -0.082 A 
ATOM     29  H9  FG5 d          -1.986  -7.549  38.141  0.00  0.00     0.084 H 
ATOM     30  CAG FG5 d          -1.912  -7.463  41.502  0.00  0.00    -0.080 A 
ATOM     31  H6  FG5 d          -2.900  -6.213  40.036  0.00  0.00     0.083 H 
ATOM     32  CAJ FG5 d          -1.089  -8.565  41.712  0.00  0.00    -0.049 A 
ATOM     33  H7  FG5 d          -2.289  -6.905  42.352  0.00  0.00     0.083 H 
ATOM     34  H10 FG5 d          -0.830  -8.875  42.719  0.00  0.00     0.087 H 
ATOM     35  OAS FG5 d           0.220 -10.360  40.562  0.00  0.00    -0.296 OA
ENDBRANCH  19  22
ENDBRANCH  17  19
ENDBRANCH  14  17
ENDBRANCH   7  14
BRANCH   1  36
ATOM     36  CA  FG5 d           4.152 -11.725  34.994  0.00  0.00     0.080 C 
ATOM     37  H1  FG5 d           4.869 -11.514  34.187  0.00  0.00     0.081 H 
ATOM     38  H2  FG5 d           4.199 -10.922  35.745  0.00  0.00     0.081 H 
BRANCH  36  39
ATOM     39  C   FG5 d           4.620 -12.995  35.678  0.00  0.00     0.191 C 
ATOM     40  O   FG5 d           4.817 -13.981  34.909  0.00  0.00    -0.647 OA
ATOM     41  OXT FG5 d           4.815 -12.958  36.911  0.00  0.00    -0.647 OA
ENDBRANCH  36  39
ENDBRANCH   1  36
BRANCH   6  42
ATOM     42  OAR FG5 d           1.677  -9.353  29.672  0.00  0.00    -0.356 OA
BRANCH  42  43
ATOM     43  CAA FG5 d           2.454  -9.802  28.561  0.00  0.00     0.010 C 
ATOM     44  H3  FG5 d           2.151 -10.825  28.293  0.00  0.00     0.066 H 
ATOM     45  H4  FG5 d           3.519  -9.794  28.832  0.00  0.00     0.066 H 
ATOM     46  H5  FG5 d           2.288  -9.135  27.703  0.00  0.00     0.066 H 
ENDBRANCH  42  43
ENDBRANCH   6  42
TORSDOF 8
ENDMDL
MODEL 5
REMARK VINA RESULT:      -7.1      2.188      8.783
REMARK  8 active torsions:
REMARK  status: ('A' for Active; 'I' for Inactive)
REMARK    1  A    between atoms: CA_4  and  C_1 
REMARK    2  A    between atoms: N_2  and  CA_4 
REMARK    3  A    between atoms: OAR_19  and  CAA_5 
REMARK    4  A    between atoms: NAQ_18  and  CAO_17 
REMARK    5  A    between atoms: CAO_17  and  CAV_22 
REMARK    6  A    between atoms: SBC_28  and  NAQ_18 
REMARK    7  A    between atoms: CAU_21  and  OAR_19 
REMARK    8  A    between atoms: CAW_23  and  SBC_28 
ROOT
ATOM      1  N   FG5 d           2.840  -9.714  33.454  0.00  0.00    -0.338 N 
ATOM      2  CAH FG5 d           2.896 -10.528  29.898  0.00  0.00    -0.049 A 
ATOM      3  CAK FG5 d           3.239 -10.567  31.236  0.00  0.00    -0.054 A 
ATOM      4  CAL FG5 d           1.275  -8.840  30.538  0.00  0.00    -0.039 A 
ATOM      5  CAM FG5 d           1.242  -8.285  32.938  0.00  0.00    -0.047 A 
ATOM      6  CAU FG5 d           1.888  -9.641  29.554  0.00  0.00     0.069 A 
ATOM      7  CAV FG5 d           1.983  -8.805  33.927  0.00  0.00     0.032 A 
ATOM      8  CAY FG5 d           1.651  -8.914  31.829  0.00  0.00    -0.005 A 
ATOM      9  CBA FG5 d           2.629  -9.791  32.153  0.00  0.00     0.045 A 
ATOM     10  H8  FG5 d           3.387 -11.154  29.161  0.00  0.00     0.087 H 
ATOM     11  H11 FG5 d           4.023 -11.242  31.558  0.00  0.00     0.087 H 
ATOM     12  H12 FG5 d           0.489  -8.152  30.252  0.00  0.00     0.089 H 
ATOM     13  H13 FG5 d           0.474  -7.517  33.019  0.00  0.00     0.088 H 
ENDROOT
BRANCH   7  14
ATOM     14  CAO FG5 d           1.949  -8.462  35.437  0.00  0.00     0.041 C 
ATOM     15  H15 FG5 d           2.844  -7.867  35.673  0.00  0.00     0.074 H 
ATOM     16  H16 FG5 d           1.048  -7.860  35.631  0.00  0.00     0.074 H 
BRANCH  14  17
ATOM     17  NAQ FG5 d           1.923  -9.626  36.335  0.00  0.00    -0.308 N 
ATOM     18  H17 FG5 d           2.731 -10.030  36.766  0.00  0.00     0.172 HD
BRANCH  17  19
ATOM     19  SBC FG5 d           0.234 -10.227  36.554  0.00  0.00     0.281 S 
ATOM     20  OAC FG5 d           0.316 -11.730  36.861  0.00  0.00    -0.199 OA
ATOM     21  OAD FG5 d          -0.712  -9.951  35.370  0.00  0.00    -0.199 OA
BRANCH  19  22
ATOM     22  CAW FG5 d          -0.443  -9.407  37.961  0.00  0.00     0.191 A 
ATOM     23  CAN FG5 d          -0.166  -9.774  39.199  0.00  0.00    -0.025 A 
ATOM     24  CAX FG5 d          -0.810  -8.987  40.050  0.00  0.00     0.001 A 
ATOM     25  H14 FG5 d           0.490 -10.597  39.479  0.00  0.00     0.090 H 
ATOM     26  CAI FG5 d          -0.821  -9.002  41.386  0.00  0.00    -0.070 A 
ATOM     27  CAZ FG5 d          -1.515  -8.106  39.328  0.00  0.00     0.087 A 
ATOM     28  CAF FG5 d          -1.584  -8.078  42.077  0.00  0.00    -0.082 A 
ATOM     29  H9  FG5 d          -0.233  -9.735  41.926  0.00  0.00     0.084 H 
ATOM     30  CAG FG5 d          -2.313  -7.163  41.323  0.00  0.00    -0.080 A 
ATOM     31  H6  FG5 d          -1.613  -8.068  43.161  0.00  0.00     0.083 H 
ATOM     32  CAJ FG5 d          -2.262  -7.187  39.932  0.00  0.00    -0.049 A 
ATOM     33  H7  FG5 d          -2.927  -6.424  41.824  0.00  0.00     0.083 H 
ATOM     34  H10 FG5 d          -2.824  -6.466  39.349  0.00  0.00     0.087 H 
ATOM     35  OAS FG5 d          -1.279  -8.378  37.965  0.00  0.00    -0.296 OA
ENDBRANCH  19  22
ENDBRANCH  17  19
ENDBRANCH  14  17
ENDBRANCH   7  14
BRANCH   1  36
ATOM     36  CA  FG5 d           3.875 -10.646  34.043  0.00  0.00     0.080 C 
ATOM     37  H1  FG5 d           4.548 -10.937  33.223  0.00  0.00     0.081 H 
ATOM     38  H2  FG5 d           4.438 -10.068  34.791  0.00  0.00     0.081 H 
BRANCH  36  39
ATOM     39  C   FG5 d           3.429 -11.927  34.721  0.00  0.00     0.191 C 
ATOM     40  O   FG5 d           4.301 -12.485  35.449  0.00  0.00    -0.647 OA
ATOM     41  OXT FG5 d           2.249 -12.299  34.550  0.00  0.00    -0.647 OA
ENDBRANCH  36  39
ENDBRANCH   1  36
BRANCH   6  42
ATOM     42  OAR FG5 d           1.547  -9.588  28.251  0.00  0.00    -0.356 OA
BRANCH  42  43
ATOM     43  CAA FG5 d           0.663 -10.621  27.815  0.00  0.00     0.010 C 
ATOM     44  H3  FG5 d           0.644 -10.646  26.715  0.00  0.00     0.066 H 
ATOM     45  H4  FG5 d          -0.350 -10.421  28.195  0.00  0.00     0.066 H 
ATOM     46  H5  FG5 d           1.013 -11.590  28.198  0.00  0.00     0.066 H 
ENDBRANCH  42  43
ENDBRANCH   6  42
TORSDOF 8
ENDMDL
