MODEL 1
REMARK VINA RESULT:     -10.5      0.000      0.000
REMARK  3 active torsions:
REMARK  status: ('A' for Active; 'I' for Inactive)
REMARK    1  A    between atoms: CAU_21  and  OAA_1 
REMARK    2  A    between atoms: CAQ_17  and  CAP_16 
REMARK    3  A    between atoms: CAR_18  and  CAU_21 
ROOT
ATOM      1  CAK MOL d          58.107  11.856  51.823  0.00  0.00    -0.036 C 
ATOM      2  CAL MOL d          56.677  10.386  53.084  0.00  0.00    -0.036 C 
ATOM      3  CAM MOL d          57.410  11.269  50.600  0.00  0.00     0.084 C 
ATOM      4  CAN MOL d          55.791  10.036  51.890  0.00  0.00     0.084 C 
ATOM      5  CAO MOL d          55.345  12.353  51.313  0.00  0.00     0.116 C 
ATOM      6  CAS MOL d          57.095  11.847  52.963  0.00  0.00    -0.015 C 
ATOM      7  NAT MOL d          55.972  11.087  50.873  0.00  0.00    -0.068 N 
ATOM      8  CAU MOL d          55.904  12.759  52.676  0.00  0.00     0.113 C 
ATOM      9  H11 MOL d          58.432  12.886  51.614  0.00  0.00     0.036 H 
ATOM     10  H12 MOL d          58.981  11.243  52.090  0.00  0.00     0.036 H 
ATOM     11  H13 MOL d          57.569   9.743  53.085  0.00  0.00     0.036 H 
ATOM     12  H14 MOL d          56.116  10.237  54.018  0.00  0.00     0.036 H 
ATOM     13  H15 MOL d          57.860  10.295  50.357  0.00  0.00     0.076 H 
ATOM     14  H16 MOL d          57.535  11.953  49.748  0.00  0.00     0.076 H 
ATOM     15  H17 MOL d          54.737   9.997  52.204  0.00  0.00     0.076 H 
ATOM     16  H18 MOL d          56.086   9.060  51.477  0.00  0.00     0.076 H 
ATOM     17  H19 MOL d          54.257  12.214  51.392  0.00  0.00     0.081 H 
ATOM     18  H20 MOL d          55.562  13.143  50.579  0.00  0.00     0.081 H 
ATOM     19  H21 MOL d          57.575  12.181  53.895  0.00  0.00     0.045 H 
ATOM     20  H22 MOL d          55.520  10.791  50.022  0.00  0.00     0.280 HD
ENDROOT
BRANCH   8  21
ATOM     21  OAA MOL d          54.906  12.497  53.668  0.00  0.00    -0.383 OA
ATOM     22  H1  MOL d          54.934  13.177  54.331  0.00  0.00     0.211 HD
ENDBRANCH   8  21
BRANCH   8  23
ATOM     23  CAR MOL d          56.234  14.226  52.783  0.00  0.00    -0.022 A 
ATOM     24  CAI MOL d          56.948  14.752  53.856  0.00  0.00    -0.073 A 
ATOM     25  CAG MOL d          57.260  16.107  53.921  0.00  0.00    -0.072 A 
ATOM     26  H9  MOL d          57.267  14.095  54.657  0.00  0.00     0.084 H 
ATOM     27  CAQ MOL d          56.887  17.020  52.938  0.00  0.00    -0.026 A 
ATOM     28  H7  MOL d          57.820  16.468  54.776  0.00  0.00     0.084 H 
ATOM     29  CAH MOL d          56.186  16.484  51.858  0.00  0.00    -0.072 A 
ATOM     30  CAJ MOL d          55.882  15.123  51.772  0.00  0.00    -0.073 A 
ATOM     31  H8  MOL d          55.868  17.144  51.060  0.00  0.00     0.084 H 
ATOM     32  H10 MOL d          55.359  14.754  50.898  0.00  0.00     0.084 H 
BRANCH  27  33
ATOM     33  CAP MOL d          57.203  18.370  53.038  0.00  0.00    -0.026 A 
ATOM     34  CAE MOL d          57.726  18.925  54.205  0.00  0.00    -0.072 A 
ATOM     35  CAC MOL d          58.032  20.279  54.338  0.00  0.00    -0.082 A 
ATOM     36  H5  MOL d          57.903  18.272  55.052  0.00  0.00     0.084 H 
ATOM     37  CAB MOL d          57.840  21.152  53.266  0.00  0.00    -0.083 A 
ATOM     38  H3  MOL d          58.420  20.655  55.278  0.00  0.00     0.083 H 
ATOM     39  CAD MOL d          57.349  20.605  52.082  0.00  0.00    -0.082 A 
ATOM     40  H2  MOL d          58.064  22.209  53.350  0.00  0.00     0.083 H 
ATOM     41  CAF MOL d          57.025  19.251  51.976  0.00  0.00    -0.072 A 
ATOM     42  H4  MOL d          57.215  21.249  51.220  0.00  0.00     0.083 H 
ATOM     43  H6  MOL d          56.624  18.877  51.042  0.00  0.00     0.084 H 
ENDBRANCH  27  33
ENDBRANCH   8  23
TORSDOF 3
ENDMDL
MODEL 2
REMARK VINA RESULT:      -9.8      1.250      2.384
REMARK  3 active torsions:
REMARK  status: ('A' for Active; 'I' for Inactive)
REMARK    1  A    between atoms: CAU_21  and  OAA_1 
REMARK    2  A    between atoms: CAQ_17  and  CAP_16 
REMARK    3  A    between atoms: CAR_18  and  CAU_21 
ROOT
ATOM      1  CAK MOL d          54.401  12.165  53.267  0.00  0.00    -0.036 C 
ATOM      2  CAL MOL d          54.593  10.836  51.270  0.00  0.00    -0.036 C 
ATOM      3  CAM MOL d          55.209  11.052  53.927  0.00  0.00     0.084 C 
ATOM      4  CAN MOL d          55.641   9.894  51.858  0.00  0.00     0.084 C 
ATOM      5  CAO MOL d          57.122  11.689  52.554  0.00  0.00     0.116 C 
ATOM      6  CAS MOL d          54.845  12.239  51.811  0.00  0.00    -0.015 C 
ATOM      7  NAT MOL d          56.260  10.575  53.009  0.00  0.00    -0.068 N 
ATOM      8  CAU MOL d          56.311  12.645  51.681  0.00  0.00     0.113 C 
ATOM      9  H11 MOL d          54.598  13.123  53.771  0.00  0.00     0.036 H 
ATOM     10  H12 MOL d          53.326  11.936  53.323  0.00  0.00     0.036 H 
ATOM     11  H13 MOL d          53.587  10.501  51.562  0.00  0.00     0.036 H 
ATOM     12  H14 MOL d          54.673  10.841  50.173  0.00  0.00     0.036 H 
ATOM     13  H15 MOL d          54.539  10.216  54.177  0.00  0.00     0.076 H 
ATOM     14  H16 MOL d          55.675  11.436  54.846  0.00  0.00     0.076 H 
ATOM     15  H17 MOL d          56.407   9.667  51.102  0.00  0.00     0.076 H 
ATOM     16  H18 MOL d          55.164   8.960  52.188  0.00  0.00     0.076 H 
ATOM     17  H19 MOL d          57.964  11.287  51.972  0.00  0.00     0.081 H 
ATOM     18  H20 MOL d          57.508  12.233  53.430  0.00  0.00     0.081 H 
ATOM     19  H21 MOL d          54.229  12.970  51.267  0.00  0.00     0.045 H 
ATOM     20  H22 MOL d          56.837   9.912  53.502  0.00  0.00     0.280 HD
ENDROOT
BRANCH   8  21
ATOM     21  OAA MOL d          56.699  12.445  50.317  0.00  0.00    -0.383 OA
ATOM     22  H1  MOL d          57.316  13.122  50.062  0.00  0.00     0.211 HD
ENDBRANCH   8  21
BRANCH   8  23
ATOM     23  CAR MOL d          56.558  14.100  51.983  0.00  0.00    -0.022 A 
ATOM     24  CAI MOL d          56.129  15.120  51.138  0.00  0.00    -0.073 A 
ATOM     25  CAG MOL d          56.349  16.458  51.450  0.00  0.00    -0.072 A 
ATOM     26  H9  MOL d          55.615  14.868  50.218  0.00  0.00     0.084 H 
ATOM     27  CAQ MOL d          57.004  16.869  52.608  0.00  0.00    -0.026 A 
ATOM     28  H7  MOL d          55.994  17.215  50.761  0.00  0.00     0.084 H 
ATOM     29  CAH MOL d          57.417  15.844  53.459  0.00  0.00    -0.072 A 
ATOM     30  CAJ MOL d          57.186  14.498  53.165  0.00  0.00    -0.073 A 
ATOM     31  H8  MOL d          57.932  16.100  54.377  0.00  0.00     0.084 H 
ATOM     32  H10 MOL d          57.504  13.742  53.874  0.00  0.00     0.084 H 
BRANCH  27  33
ATOM     33  CAP MOL d          57.220  18.214  52.887  0.00  0.00    -0.026 A 
ATOM     34  CAE MOL d          57.069  19.206  51.918  0.00  0.00    -0.072 A 
ATOM     35  CAC MOL d          57.300  20.559  52.165  0.00  0.00    -0.082 A 
ATOM     36  H5  MOL d          56.758  18.910  50.923  0.00  0.00     0.084 H 
ATOM     37  CAB MOL d          57.681  20.986  53.439  0.00  0.00    -0.083 A 
ATOM     38  H3  MOL d          57.182  21.281  51.366  0.00  0.00     0.083 H 
ATOM     39  CAD MOL d          57.804  20.010  54.425  0.00  0.00    -0.082 A 
ATOM     40  H2  MOL d          57.872  22.031  53.651  0.00  0.00     0.083 H 
ATOM     41  CAF MOL d          57.593  18.657  54.151  0.00  0.00    -0.072 A 
ATOM     42  H4  MOL d          58.070  20.309  55.432  0.00  0.00     0.083 H 
ATOM     43  H6  MOL d          57.724  17.932  54.947  0.00  0.00     0.084 H 
ENDBRANCH  27  33
ENDBRANCH   8  23
TORSDOF 3
ENDMDL
MODEL 3
REMARK VINA RESULT:      -8.0      1.429      2.006
REMARK  3 active torsions:
REMARK  status: ('A' for Active; 'I' for Inactive)
REMARK    1  A    between atoms: CAU_21  and  OAA_1 
REMARK    2  A    between atoms: CAQ_17  and  CAP_16 
REMARK    3  A    between atoms: CAR_18  and  CAU_21 
ROOT
ATOM      1  CAK MOL d          54.401  11.600  52.675  0.00  0.00    -0.036 C 
ATOM      2  CAL MOL d          55.517  10.180  51.083  0.00  0.00    -0.036 C 
ATOM      3  CAM MOL d          54.838  10.564  53.706  0.00  0.00     0.084 C 
ATOM      4  CAN MOL d          56.197   9.324  52.150  0.00  0.00     0.084 C 
ATOM      5  CAO MOL d          57.155  11.224  53.320  0.00  0.00     0.116 C 
ATOM      6  CAS MOL d          55.463  11.620  51.582  0.00  0.00    -0.015 C 
ATOM      7  NAT MOL d          56.203  10.093  53.406  0.00  0.00    -0.068 N 
ATOM      8  CAU MOL d          56.817  12.091  52.109  0.00  0.00     0.113 C 
ATOM      9  H11 MOL d          54.326  12.592  53.146  0.00  0.00     0.036 H 
ATOM     10  H12 MOL d          53.426  11.321  52.249  0.00  0.00     0.036 H 
ATOM     11  H13 MOL d          54.496   9.811  50.906  0.00  0.00     0.036 H 
ATOM     12  H14 MOL d          56.092  10.133  50.147  0.00  0.00     0.036 H 
ATOM     13  H15 MOL d          54.145   9.710  53.679  0.00  0.00     0.076 H 
ATOM     14  H16 MOL d          54.822  11.019  54.707  0.00  0.00     0.076 H 
ATOM     15  H17 MOL d          57.228   9.096  51.845  0.00  0.00     0.076 H 
ATOM     16  H18 MOL d          55.640   8.385  52.288  0.00  0.00     0.076 H 
ATOM     17  H19 MOL d          58.178  10.834  53.217  0.00  0.00     0.081 H 
ATOM     18  H20 MOL d          57.084  11.831  54.236  0.00  0.00     0.081 H 
ATOM     19  H21 MOL d          55.152  12.291  50.767  0.00  0.00     0.045 H 
ATOM     20  H22 MOL d          56.503   9.486  54.153  0.00  0.00     0.280 HD
ENDROOT
BRANCH   8  21
ATOM     21  OAA MOL d          57.791  11.841  51.091  0.00  0.00    -0.383 OA
ATOM     22  H1  MOL d          58.585  11.503  51.490  0.00  0.00     0.211 HD
ENDBRANCH   8  21
BRANCH   8  23
ATOM     23  CAR MOL d          56.867  13.571  52.390  0.00  0.00    -0.022 A 
ATOM     24  CAI MOL d          56.943  14.082  53.683  0.00  0.00    -0.073 A 
ATOM     25  CAG MOL d          57.012  15.452  53.915  0.00  0.00    -0.072 A 
ATOM     26  H9  MOL d          56.948  13.399  54.525  0.00  0.00     0.084 H 
ATOM     27  CAQ MOL d          57.008  16.396  52.892  0.00  0.00    -0.026 A 
ATOM     28  H7  MOL d          57.072  15.800  54.940  0.00  0.00     0.084 H 
ATOM     29  CAH MOL d          56.949  15.879  51.599  0.00  0.00    -0.072 A 
ATOM     30  CAJ MOL d          56.897  14.504  51.351  0.00  0.00    -0.073 A 
ATOM     31  H8  MOL d          56.943  16.564  50.759  0.00  0.00     0.084 H 
ATOM     32  H10 MOL d          56.880  14.154  50.326  0.00  0.00     0.084 H 
BRANCH  27  33
ATOM     33  CAP MOL d          57.065  17.760  53.157  0.00  0.00    -0.026 A 
ATOM     34  CAE MOL d          57.779  18.276  54.237  0.00  0.00    -0.072 A 
ATOM     35  CAC MOL d          57.836  19.637  54.538  0.00  0.00    -0.082 A 
ATOM     36  H5  MOL d          58.317  17.586  54.877  0.00  0.00     0.084 H 
ATOM     37  CAB MOL d          57.177  20.564  53.728  0.00  0.00    -0.083 A 
ATOM     38  H3  MOL d          58.394  19.977  55.402  0.00  0.00     0.083 H 
ATOM     39  CAD MOL d          56.486  20.065  52.625  0.00  0.00    -0.082 A 
ATOM     40  H2  MOL d          57.201  21.625  53.947  0.00  0.00     0.083 H 
ATOM     41  CAF MOL d          56.421  18.697  52.356  0.00  0.00    -0.072 A 
ATOM     42  H4  MOL d          55.986  20.759  51.959  0.00  0.00     0.083 H 
ATOM     43  H6  MOL d          55.851  18.355  51.499  0.00  0.00     0.084 H 
ENDBRANCH  27  33
ENDBRANCH   8  23
TORSDOF 3
ENDMDL
MODEL 4
REMARK VINA RESULT:      -7.5      2.588      7.447
REMARK  3 active torsions:
REMARK  status: ('A' for Active; 'I' for Inactive)
REMARK    1  A    between atoms: CAU_21  and  OAA_1 
REMARK    2  A    between atoms: CAQ_17  and  CAP_16 
REMARK    3  A    between atoms: CAR_18  and  CAU_21 
ROOT
ATOM      1  CAK MOL d          58.859  18.178  52.400  0.00  0.00    -0.036 C 
ATOM      2  CAL MOL d          57.351  20.038  52.146  0.00  0.00    -0.036 C 
ATOM      3  CAM MOL d          59.189  18.802  53.753  0.00  0.00     0.084 C 
ATOM      4  CAN MOL d          57.463  20.477  53.605  0.00  0.00     0.084 C 
ATOM      5  CAO MOL d          56.924  18.282  54.494  0.00  0.00     0.116 C 
ATOM      6  CAS MOL d          57.404  18.515  52.094  0.00  0.00    -0.015 C 
ATOM      7  NAT MOL d          57.964  19.329  54.382  0.00  0.00    -0.068 N 
ATOM      8  CAU MOL d          56.447  17.877  53.100  0.00  0.00     0.113 C 
ATOM      9  H11 MOL d          58.992  17.087  52.445  0.00  0.00     0.036 H 
ATOM     10  H12 MOL d          59.514  18.596  51.622  0.00  0.00     0.036 H 
ATOM     11  H13 MOL d          58.187  20.458  51.566  0.00  0.00     0.036 H 
ATOM     12  H14 MOL d          56.398  20.391  51.725  0.00  0.00     0.036 H 
ATOM     13  H15 MOL d          59.906  19.623  53.609  0.00  0.00     0.076 H 
ATOM     14  H16 MOL d          59.633  18.036  54.407  0.00  0.00     0.076 H 
ATOM     15  H17 MOL d          56.476  20.782  53.981  0.00  0.00     0.076 H 
ATOM     16  H18 MOL d          58.164  21.321  53.689  0.00  0.00     0.076 H 
ATOM     17  H19 MOL d          56.073  18.671  55.072  0.00  0.00     0.081 H 
ATOM     18  H20 MOL d          57.344  17.403  55.006  0.00  0.00     0.081 H 
ATOM     19  H21 MOL d          57.139  18.161  51.087  0.00  0.00     0.045 H 
ATOM     20  H22 MOL d          58.193  19.646  55.311  0.00  0.00     0.280 HD
ENDROOT
BRANCH   8  21
ATOM     21  OAA MOL d          55.150  18.444  52.886  0.00  0.00    -0.383 OA
ATOM     22  H1  MOL d          54.504  17.748  52.842  0.00  0.00     0.211 HD
ENDBRANCH   8  21
BRANCH   8  23
ATOM     23  CAR MOL d          56.294  16.389  52.920  0.00  0.00    -0.022 A 
ATOM     24  CAI MOL d          55.882  15.823  51.716  0.00  0.00    -0.073 A 
ATOM     25  CAG MOL d          55.771  14.443  51.568  0.00  0.00    -0.072 A 
ATOM     26  H9  MOL d          55.643  16.468  50.879  0.00  0.00     0.084 H 
ATOM     27  CAQ MOL d          56.055  13.544  52.592  0.00  0.00    -0.026 A 
ATOM     28  H7  MOL d          55.448  14.051  50.610  0.00  0.00     0.084 H 
ATOM     29  CAH MOL d          56.482  14.116  53.790  0.00  0.00    -0.072 A 
ATOM     30  CAJ MOL d          56.616  15.499  53.946  0.00  0.00    -0.073 A 
ATOM     31  H8  MOL d          56.720  13.468  54.625  0.00  0.00     0.084 H 
ATOM     32  H10 MOL d          56.978  15.890  54.890  0.00  0.00     0.084 H 
BRANCH  27  33
ATOM     33  CAP MOL d          55.922  12.172  52.417  0.00  0.00    -0.026 A 
ATOM     34  CAE MOL d          54.904  11.618  51.641  0.00  0.00    -0.072 A 
ATOM     35  CAC MOL d          54.735  10.245  51.465  0.00  0.00    -0.082 A 
ATOM     36  H5  MOL d          54.208  12.289  51.149  0.00  0.00     0.084 H 
ATOM     37  CAB MOL d          55.622   9.347  52.062  0.00  0.00    -0.083 A 
ATOM     38  H3  MOL d          53.914   9.874  50.864  0.00  0.00     0.083 H 
ATOM     39  CAD MOL d          56.663   9.886  52.813  0.00  0.00    -0.082 A 
ATOM     40  H2  MOL d          55.505   8.275  51.945  0.00  0.00     0.083 H 
ATOM     41  CAF MOL d          56.800  11.263  52.998  0.00  0.00    -0.072 A 
ATOM     42  H4  MOL d          57.387   9.218  53.267  0.00  0.00     0.083 H 
ATOM     43  H6  MOL d          57.614  11.634  53.610  0.00  0.00     0.084 H 
ENDBRANCH  27  33
ENDBRANCH   8  23
TORSDOF 3
ENDMDL
