MODEL 1
REMARK VINA RESULT:     -11.5      0.000      0.000
REMARK  11 active torsions:
REMARK  status: ('A' for Active; 'I' for Inactive)
REMARK       I    between atoms: N1_3  and  C20_36 
REMARK    1  A    between atoms: C28_44  and  N1_3 
REMARK    2  A    between atoms: O1_4  and  C9_24 
REMARK    3  A    between atoms: C20_36  and  O1_4 
REMARK    4  A    between atoms: N3_10  and  S1_5 
REMARK    5  A    between atoms: S1_5  and  C23_39 
REMARK    6  A    between atoms: C2_6  and  C4_12 
REMARK       I    between atoms: C4_12  and  N3_10 
REMARK       I    between atoms: C35_51  and  N4_13 
REMARK    7  A    between atoms: C9_24  and  C6_18 
REMARK    8  A    between atoms: C9_24  and  C7_20 
REMARK    9  A    between atoms: C9_24  and  C8_22 
REMARK   10  A    between atoms: C30_46  and  O8_23 
REMARK   11  A    between atoms: O8_23  and  C35_51 
ROOT
ATOM      1  C1  TSV d         -12.659  -6.232  17.127  0.00  0.00    -0.023 A 
ATOM      2  C2  TSV d         -12.241  -6.601  15.705  0.00  0.00     0.122 A 
ATOM      3  N2  TSV d         -12.541  -7.950  15.296  0.00  0.00    -0.341 N 
ATOM      4  C3  TSV d         -13.516  -5.769  15.965  0.00  0.00    -0.002 A 
ATOM      5  O3  TSV d         -15.662  -8.228  15.034  0.00  0.00    -0.271 OA
ATOM      6  C5  TSV d         -13.532  -4.296  15.668  0.00  0.00    -0.100 C 
ATOM      7  N5  TSV d         -14.987  -9.548  13.379  0.00  0.00    -0.334 N 
ATOM      8  O7  TSV d         -13.182  -7.332  13.225  0.00  0.00    -0.271 OA
ATOM      9  C10 TSV d         -14.417  -3.733  14.827  0.00  0.00    -0.106 C 
ATOM     10  C11 TSV d         -13.061  -8.196  14.100  0.00  0.00     0.241 C 
ATOM     11  C13 TSV d         -15.499  -4.494  14.087  0.00  0.00    -0.050 C 
ATOM     12  C15 TSV d         -13.603  -9.578  13.886  0.00  0.00     0.094 C 
ATOM     13  C18 TSV d         -15.330  -4.413  12.579  0.00  0.00    -0.062 C 
ATOM     14  C19 TSV d         -16.464  -5.139  11.831  0.00  0.00    -0.065 C 
ATOM     15  C22 TSV d         -16.415  -6.663  11.983  0.00  0.00    -0.063 C 
ATOM     16  C25 TSV d         -17.468  -7.168  12.972  0.00  0.00    -0.038 C 
ATOM     17  C27 TSV d         -12.865 -10.307  12.781  0.00  0.00    -0.011 C 
ATOM     18  C28 TSV d         -17.260  -8.630  13.340  0.00  0.00     0.091 C 
ATOM     19  C30 TSV d         -13.892 -11.224  12.183  0.00  0.00     0.067 C 
ATOM     20  C33 TSV d         -15.903  -8.797  13.986  0.00  0.00     0.243 C 
ATOM     21  C34 TSV d         -15.159 -10.414  12.192  0.00  0.00     0.023 C 
ATOM     22  H1  TSV d         -12.069  -5.500  17.698  0.00  0.00     0.038 H 
ATOM     23  H2  TSV d         -13.033  -7.011  17.807  0.00  0.00     0.038 H 
ATOM     24  H4  TSV d         -12.355  -8.709  15.919  0.00  0.00     0.163 HD
ATOM     25  H5  TSV d         -14.508  -6.205  15.781  0.00  0.00     0.050 H 
ATOM     26  H7  TSV d         -12.796  -3.657  16.154  0.00  0.00     0.077 H 
ATOM     27  H17 TSV d         -14.351  -2.658  14.666  0.00  0.00     0.076 H 
ATOM     28  H19 TSV d         -16.477  -4.070  14.357  0.00  0.00     0.038 H 
ATOM     29  H20 TSV d         -15.461  -5.550  14.391  0.00  0.00     0.038 H 
ATOM     30  H22 TSV d         -13.544 -10.137  14.831  0.00  0.00     0.088 H 
ATOM     31  H25 TSV d         -14.370  -4.874  12.304  0.00  0.00     0.033 H 
ATOM     32  H26 TSV d         -15.328  -3.355  12.279  0.00  0.00     0.033 H 
ATOM     33  H27 TSV d         -16.389  -4.893  10.762  0.00  0.00     0.033 H 
ATOM     34  H28 TSV d         -17.426  -4.781  12.224  0.00  0.00     0.033 H 
ATOM     35  H29 TSV d         -15.418  -6.954  12.345  0.00  0.00     0.033 H 
ATOM     36  H30 TSV d         -16.599  -7.124  11.002  0.00  0.00     0.033 H 
ATOM     37  H32 TSV d         -18.463  -7.056  12.518  0.00  0.00     0.036 H 
ATOM     38  H33 TSV d         -17.413  -6.561  13.888  0.00  0.00     0.036 H 
ATOM     39  H34 TSV d         -12.022 -10.882  13.191  0.00  0.00     0.040 H 
ATOM     40  H35 TSV d         -12.493  -9.597  12.028  0.00  0.00     0.040 H 
ATOM     41  H36 TSV d         -17.313  -9.249  12.431  0.00  0.00     0.087 H 
ATOM     42  H39 TSV d         -13.608 -11.558  11.175  0.00  0.00     0.086 H 
ATOM     43  H43 TSV d         -15.252  -9.814  11.275  0.00  0.00     0.068 H 
ATOM     44  H44 TSV d         -16.042 -11.061  12.298  0.00  0.00     0.068 H 
ENDROOT
BRANCH  18  45
ATOM     45  N1  TSV d         -18.284  -9.043  14.261  0.00  0.00    -0.324 N 
ATOM     46  C20 TSV d         -19.124 -10.031  13.990  0.00  0.00     0.362 C 
ATOM     47  O2  TSV d         -19.161 -10.670  12.936  0.00  0.00    -0.238 OA
ATOM     48  H3  TSV d         -18.365  -8.568  15.137  0.00  0.00     0.165 HD
BRANCH  46  49
ATOM     49  O1  TSV d         -20.027 -10.333  15.071  0.00  0.00    -0.294 OA
BRANCH  49  50
ATOM     50  C9  TSV d         -19.889 -11.444  15.961  0.00  0.00     0.061 C 
BRANCH  50  51
ATOM     51  C6  TSV d         -18.566 -12.156  15.715  0.00  0.00    -0.048 C 
ATOM     52  H8  TSV d         -17.736 -11.515  16.047  0.00  0.00     0.031 H 
ATOM     53  H9  TSV d         -18.457 -12.368  14.641  0.00  0.00     0.031 H 
ATOM     54  H10 TSV d         -18.548 -13.100  16.279  0.00  0.00     0.031 H 
ENDBRANCH  50  51
BRANCH  50  55
ATOM     55  C7  TSV d         -19.942 -10.864  17.372  0.00  0.00    -0.048 C 
ATOM     56  H11 TSV d         -20.510  -9.922  17.360  0.00  0.00     0.031 H 
ATOM     57  H12 TSV d         -18.919 -10.670  17.727  0.00  0.00     0.031 H 
ATOM     58  H13 TSV d         -20.435 -11.581  18.046  0.00  0.00     0.031 H 
ENDBRANCH  50  55
BRANCH  50  59
ATOM     59  C8  TSV d         -21.053 -12.404  15.734  0.00  0.00    -0.048 C 
ATOM     60  H14 TSV d         -21.493 -12.683  16.702  0.00  0.00     0.031 H 
ATOM     61  H15 TSV d         -20.688 -13.307  15.224  0.00  0.00     0.031 H 
ATOM     62  H16 TSV d         -21.816 -11.915  15.111  0.00  0.00     0.031 H 
ENDBRANCH  50  59
ENDBRANCH  49  50
ENDBRANCH  46  49
ENDBRANCH  18  45
BRANCH  19  63
ATOM     63  O8  TSV d         -14.115 -12.322  13.053  0.00  0.00    -0.296 OA
BRANCH  63  64
ATOM     64  C35 TSV d         -13.239 -13.441  12.881  0.00  0.00     0.371 C 
ATOM     65  N4  TSV d         -13.210 -14.242  13.898  0.00  0.00    -0.278 N 
ATOM     66  C12 TSV d         -12.515 -15.537  13.867  0.00  0.00     0.000 A 
ATOM     67  C31 TSV d         -13.892 -13.973  15.164  0.00  0.00     0.003 A 
ATOM     68  C24 TSV d         -12.854 -16.090  15.199  0.00  0.00    -0.005 A 
ATOM     69  H18 TSV d         -11.909 -15.975  13.074  0.00  0.00     0.113 H 
ATOM     70  C16 TSV d         -12.478 -17.333  15.702  0.00  0.00    -0.071 A 
ATOM     71  C26 TSV d         -13.621 -15.239  15.926  0.00  0.00     0.030 A 
ATOM     72  C14 TSV d         -12.904 -17.667  16.971  0.00  0.00    -0.079 A 
ATOM     73  H23 TSV d         -11.870 -18.013  15.118  0.00  0.00     0.084 H 
ATOM     74  C17 TSV d         -13.694 -16.792  17.720  0.00  0.00    -0.045 A 
ATOM     75  H21 TSV d         -12.622 -18.624  17.393  0.00  0.00     0.083 H 
ATOM     76  C21 TSV d         -14.054 -15.546  17.185  0.00  0.00     0.128 A 
ATOM     77  H24 TSV d         -14.028 -17.074  18.712  0.00  0.00     0.088 H 
ATOM     78  F1  TSV d         -14.806 -14.672  17.885  0.00  0.00    -0.205 F 
ATOM     79  H40 TSV d         -14.448 -13.089  15.473  0.00  0.00     0.114 H 
ATOM     80  O5  TSV d         -12.589 -13.597  11.852  0.00  0.00    -0.238 OA
ENDBRANCH  63  64
ENDBRANCH  19  63
BRANCH   2  81
ATOM     81  C4  TSV d         -10.984  -5.953  15.220  0.00  0.00     0.260 C 
ATOM     82  N3  TSV d         -10.312  -6.592  14.266  0.00  0.00    -0.252 N 
ATOM     83  H6  TSV d         -10.620  -7.483  13.931  0.00  0.00     0.181 HD
ATOM     84  O9  TSV d         -10.622  -4.896  15.681  0.00  0.00    -0.270 OA
BRANCH  82  85
ATOM     85  S1  TSV d          -9.017  -5.909  13.676  0.00  0.00     0.237 S 
ATOM     86  O4  TSV d          -8.136  -5.462  14.717  0.00  0.00    -0.205 OA
ATOM     87  O6  TSV d          -9.396  -4.845  12.765  0.00  0.00    -0.205 OA
BRANCH  85  88
ATOM     88  C23 TSV d          -8.292  -7.092  12.750  0.00  0.00     0.063 A 
ATOM     89  C29 TSV d          -6.907  -6.765  12.200  0.00  0.00    -0.046 A 
ATOM     90  C32 TSV d          -7.045  -7.774  13.319  0.00  0.00    -0.046 A 
ATOM     91  H37 TSV d          -6.455  -5.783  12.401  0.00  0.00     0.035 H 
ATOM     92  H38 TSV d          -6.624  -7.099  11.191  0.00  0.00     0.035 H 
ATOM     93  H41 TSV d          -6.864  -8.841  13.122  0.00  0.00     0.035 H 
ATOM     94  H42 TSV d          -6.695  -7.523  14.332  0.00  0.00     0.035 H 
ATOM     95  H31 TSV d          -9.034  -7.650  12.160  0.00  0.00     0.066 H 
ENDBRANCH  85  88
ENDBRANCH  82  85
ENDBRANCH   2  81
TORSDOF 11
ENDMDL
MODEL 2
REMARK VINA RESULT:     -10.3      2.167      2.669
REMARK  11 active torsions:
REMARK  status: ('A' for Active; 'I' for Inactive)
REMARK       I    between atoms: N1_3  and  C20_36 
REMARK    1  A    between atoms: C28_44  and  N1_3 
REMARK    2  A    between atoms: O1_4  and  C9_24 
REMARK    3  A    between atoms: C20_36  and  O1_4 
REMARK    4  A    between atoms: N3_10  and  S1_5 
REMARK    5  A    between atoms: S1_5  and  C23_39 
REMARK    6  A    between atoms: C2_6  and  C4_12 
REMARK       I    between atoms: C4_12  and  N3_10 
REMARK       I    between atoms: C35_51  and  N4_13 
REMARK    7  A    between atoms: C9_24  and  C6_18 
REMARK    8  A    between atoms: C9_24  and  C7_20 
REMARK    9  A    between atoms: C9_24  and  C8_22 
REMARK   10  A    between atoms: C30_46  and  O8_23 
REMARK   11  A    between atoms: O8_23  and  C35_51 
ROOT
ATOM      1  C1  TSV d         -12.605  -6.329  17.130  0.00  0.00    -0.023 A 
ATOM      2  C2  TSV d         -12.219  -6.633  15.684  0.00  0.00     0.122 A 
ATOM      3  N2  TSV d         -12.540  -7.959  15.218  0.00  0.00    -0.341 N 
ATOM      4  C3  TSV d         -13.480  -5.803  16.009  0.00  0.00    -0.002 A 
ATOM      5  O3  TSV d         -15.668  -8.198  15.006  0.00  0.00    -0.271 OA
ATOM      6  C5  TSV d         -13.489  -4.318  15.782  0.00  0.00    -0.100 C 
ATOM      7  N5  TSV d         -15.037  -9.443  13.277  0.00  0.00    -0.334 N 
ATOM      8  O7  TSV d         -13.215  -7.237  13.192  0.00  0.00    -0.271 OA
ATOM      9  C10 TSV d         -14.384  -3.709  14.987  0.00  0.00    -0.106 C 
ATOM     10  C11 TSV d         -13.085  -8.143  14.023  0.00  0.00     0.241 C 
ATOM     11  C13 TSV d         -15.488  -4.424  14.233  0.00  0.00    -0.050 C 
ATOM     12  C15 TSV d         -13.644  -9.509  13.754  0.00  0.00     0.094 C 
ATOM     13  C18 TSV d         -15.348  -4.273  12.728  0.00  0.00    -0.062 C 
ATOM     14  C19 TSV d         -16.503  -4.954  11.970  0.00  0.00    -0.065 C 
ATOM     15  C22 TSV d         -16.466  -6.483  12.048  0.00  0.00    -0.063 C 
ATOM     16  C25 TSV d         -17.504  -7.026  13.033  0.00  0.00    -0.038 C 
ATOM     17  C27 TSV d         -12.935 -10.191  12.601  0.00  0.00    -0.011 C 
ATOM     18  C28 TSV d         -17.302  -8.505  13.327  0.00  0.00     0.091 C 
ATOM     19  C30 TSV d         -13.981 -11.069  11.981  0.00  0.00     0.067 C 
ATOM     20  C33 TSV d         -15.934  -8.714  13.937  0.00  0.00     0.243 C 
ATOM     21  C34 TSV d         -15.241 -10.250  12.054  0.00  0.00     0.023 C 
ATOM     22  H1  TSV d         -11.997  -5.630  17.723  0.00  0.00     0.038 H 
ATOM     23  H2  TSV d         -12.973  -7.136  17.780  0.00  0.00     0.038 H 
ATOM     24  H4  TSV d         -12.349  -8.748  15.801  0.00  0.00     0.163 HD
ATOM     25  H5  TSV d         -14.480  -6.222  15.825  0.00  0.00     0.050 H 
ATOM     26  H7  TSV d         -12.737  -3.710  16.283  0.00  0.00     0.077 H 
ATOM     27  H17 TSV d         -14.312  -2.627  14.876  0.00  0.00     0.076 H 
ATOM     28  H19 TSV d         -16.457  -4.005  14.543  0.00  0.00     0.038 H 
ATOM     29  H20 TSV d         -15.454  -5.494  14.486  0.00  0.00     0.038 H 
ATOM     30  H22 TSV d         -13.572 -10.113  14.670  0.00  0.00     0.088 H 
ATOM     31  H25 TSV d         -14.398  -4.728  12.412  0.00  0.00     0.033 H 
ATOM     32  H26 TSV d         -15.341  -3.202  12.478  0.00  0.00     0.033 H 
ATOM     33  H27 TSV d         -16.447  -4.657  10.912  0.00  0.00     0.033 H 
ATOM     34  H28 TSV d         -17.454  -4.606  12.399  0.00  0.00     0.033 H 
ATOM     35  H29 TSV d         -15.465  -6.799  12.375  0.00  0.00     0.033 H 
ATOM     36  H30 TSV d         -16.673  -6.896  11.050  0.00  0.00     0.033 H 
ATOM     37  H32 TSV d         -18.506  -6.884  12.604  0.00  0.00     0.036 H 
ATOM     38  H33 TSV d         -17.424  -6.464  13.975  0.00  0.00     0.036 H 
ATOM     39  H34 TSV d         -12.089 -10.792  12.966  0.00  0.00     0.040 H 
ATOM     40  H35 TSV d         -12.571  -9.449  11.875  0.00  0.00     0.040 H 
ATOM     41  H36 TSV d         -17.379  -9.079  12.391  0.00  0.00     0.087 H 
ATOM     42  H39 TSV d         -13.721 -11.357  10.953  0.00  0.00     0.086 H 
ATOM     43  H43 TSV d         -15.346  -9.607  11.168  0.00  0.00     0.068 H 
ATOM     44  H44 TSV d         -16.128 -10.894  12.147  0.00  0.00     0.068 H 
ENDROOT
BRANCH  18  45
ATOM     45  N1  TSV d         -18.311  -8.953  14.248  0.00  0.00    -0.324 N 
ATOM     46  C20 TSV d         -19.036 -10.041  14.031  0.00  0.00     0.362 C 
ATOM     47  O2  TSV d         -18.969 -10.757  13.029  0.00  0.00    -0.238 OA
ATOM     48  H3  TSV d         -18.472  -8.425  15.082  0.00  0.00     0.165 HD
BRANCH  46  49
ATOM     49  O1  TSV d         -19.942 -10.354  15.105  0.00  0.00    -0.294 OA
BRANCH  49  50
ATOM     50  C9  TSV d         -21.358 -10.150  15.063  0.00  0.00     0.061 C 
BRANCH  50  51
ATOM     51  C6  TSV d         -21.685  -8.891  14.270  0.00  0.00    -0.048 C 
ATOM     52  H8  TSV d         -21.329  -9.006  13.236  0.00  0.00     0.031 H 
ATOM     53  H9  TSV d         -21.190  -8.025  14.734  0.00  0.00     0.031 H 
ATOM     54  H10 TSV d         -22.774  -8.733  14.268  0.00  0.00     0.031 H 
ENDBRANCH  50  51
BRANCH  50  55
ATOM     55  C7  TSV d         -21.943 -11.387  14.388  0.00  0.00    -0.048 C 
ATOM     56  H11 TSV d         -21.658 -11.394  13.325  0.00  0.00     0.031 H 
ATOM     57  H12 TSV d         -23.039 -11.367  14.473  0.00  0.00     0.031 H 
ATOM     58  H13 TSV d         -21.554 -12.292  14.878  0.00  0.00     0.031 H 
ENDBRANCH  50  55
BRANCH  50  59
ATOM     59  C8  TSV d         -21.879 -10.022  16.491  0.00  0.00    -0.048 C 
ATOM     60  H14 TSV d         -21.384  -9.175  16.987  0.00  0.00     0.031 H 
ATOM     61  H15 TSV d         -21.666 -10.947  17.044  0.00  0.00     0.031 H 
ATOM     62  H16 TSV d         -22.966  -9.850  16.470  0.00  0.00     0.031 H 
ENDBRANCH  50  59
ENDBRANCH  49  50
ENDBRANCH  46  49
ENDBRANCH  18  45
BRANCH  19  63
ATOM     63  O8  TSV d         -14.197 -12.206  12.802  0.00  0.00    -0.296 OA
BRANCH  63  64
ATOM     64  C35 TSV d         -14.911 -13.287  12.194  0.00  0.00     0.371 C 
ATOM     65  N4  TSV d         -15.985 -13.628  12.833  0.00  0.00    -0.278 N 
ATOM     66  C12 TSV d         -16.954 -14.593  12.295  0.00  0.00     0.000 A 
ATOM     67  C31 TSV d         -16.372 -13.068  14.128  0.00  0.00     0.003 A 
ATOM     68  C24 TSV d         -18.014 -14.561  13.330  0.00  0.00    -0.005 A 
ATOM     69  H18 TSV d         -16.906 -15.179  11.378  0.00  0.00     0.113 H 
ATOM     70  C16 TSV d         -19.209 -15.275  13.316  0.00  0.00    -0.071 A 
ATOM     71  C26 TSV d         -17.709 -13.717  14.348  0.00  0.00     0.030 A 
ATOM     72  C14 TSV d         -20.073 -15.100  14.378  0.00  0.00    -0.079 A 
ATOM     73  H23 TSV d         -19.453 -15.944  12.500  0.00  0.00     0.084 H 
ATOM     74  C17 TSV d         -19.760 -14.231  15.426  0.00  0.00    -0.045 A 
ATOM     75  H21 TSV d         -21.008 -15.646  14.400  0.00  0.00     0.083 H 
ATOM     76  C21 TSV d         -18.547 -13.529  15.411  0.00  0.00     0.128 A 
ATOM     77  H24 TSV d         -20.454 -14.099  16.249  0.00  0.00     0.088 H 
ATOM     78  F1  TSV d         -18.208 -12.690  16.412  0.00  0.00    -0.205 F 
ATOM     79  H40 TSV d         -15.834 -12.366  14.764  0.00  0.00     0.114 H 
ATOM     80  O5  TSV d         -14.515 -13.821  11.163  0.00  0.00    -0.238 OA
ENDBRANCH  63  64
ENDBRANCH  19  63
BRANCH   2  81
ATOM     81  C4  TSV d         -10.965  -5.973  15.205  0.00  0.00     0.260 C 
ATOM     82  N3  TSV d         -10.287  -6.602  14.249  0.00  0.00    -0.252 N 
ATOM     83  H6  TSV d         -10.588  -7.493  13.908  0.00  0.00     0.181 HD
ATOM     84  O9  TSV d         -10.612  -4.916  15.673  0.00  0.00    -0.270 OA
BRANCH  82  85
ATOM     85  S1  TSV d          -8.995  -5.906  13.666  0.00  0.00     0.237 S 
ATOM     86  O4  TSV d          -8.118  -5.463  14.711  0.00  0.00    -0.205 OA
ATOM     87  O6  TSV d          -9.380  -4.838  12.763  0.00  0.00    -0.205 OA
BRANCH  85  88
ATOM     88  C23 TSV d          -8.263  -7.077  12.731  0.00  0.00     0.063 A 
ATOM     89  C29 TSV d          -6.865  -6.752  12.214  0.00  0.00    -0.046 A 
ATOM     90  C32 TSV d          -7.033  -7.781  13.310  0.00  0.00    -0.046 A 
ATOM     91  H37 TSV d          -6.409  -5.778  12.442  0.00  0.00     0.035 H 
ATOM     92  H38 TSV d          -6.566  -7.069  11.204  0.00  0.00     0.035 H 
ATOM     93  H41 TSV d          -6.857  -8.846  13.096  0.00  0.00     0.035 H 
ATOM     94  H42 TSV d          -6.700  -7.553  14.334  0.00  0.00     0.035 H 
ATOM     95  H31 TSV d          -8.998  -7.618  12.116  0.00  0.00     0.066 H 
ENDBRANCH  85  88
ENDBRANCH  82  85
ENDBRANCH   2  81
TORSDOF 11
ENDMDL
MODEL 3
REMARK VINA RESULT:      -9.1      2.116      2.523
REMARK  11 active torsions:
REMARK  status: ('A' for Active; 'I' for Inactive)
REMARK       I    between atoms: N1_3  and  C20_36 
REMARK    1  A    between atoms: C28_44  and  N1_3 
REMARK    2  A    between atoms: O1_4  and  C9_24 
REMARK    3  A    between atoms: C20_36  and  O1_4 
REMARK    4  A    between atoms: N3_10  and  S1_5 
REMARK    5  A    between atoms: S1_5  and  C23_39 
REMARK    6  A    between atoms: C2_6  and  C4_12 
REMARK       I    between atoms: C4_12  and  N3_10 
REMARK       I    between atoms: C35_51  and  N4_13 
REMARK    7  A    between atoms: C9_24  and  C6_18 
REMARK    8  A    between atoms: C9_24  and  C7_20 
REMARK    9  A    between atoms: C9_24  and  C8_22 
REMARK   10  A    between atoms: C30_46  and  O8_23 
REMARK   11  A    between atoms: O8_23  and  C35_51 
ROOT
ATOM      1  C1  TSV d         -12.717  -6.094  16.925  0.00  0.00    -0.023 A 
ATOM      2  C2  TSV d         -12.329  -6.600  15.537  0.00  0.00     0.122 A 
ATOM      3  N2  TSV d         -12.657  -7.977  15.260  0.00  0.00    -0.341 N 
ATOM      4  C3  TSV d         -13.586  -5.726  15.738  0.00  0.00    -0.002 A 
ATOM      5  O3  TSV d         -15.786  -8.224  15.072  0.00  0.00    -0.271 OA
ATOM      6  C5  TSV d         -13.585  -4.288  15.305  0.00  0.00    -0.100 C 
ATOM      7  N5  TSV d         -15.158  -9.703  13.537  0.00  0.00    -0.334 N 
ATOM      8  O7  TSV d         -13.322  -7.542  13.150  0.00  0.00    -0.271 OA
ATOM      9  C10 TSV d         -14.474  -3.790  14.428  0.00  0.00    -0.106 C 
ATOM     10  C11 TSV d         -13.200  -8.324  14.100  0.00  0.00     0.241 C 
ATOM     11  C13 TSV d         -15.580  -4.597  13.779  0.00  0.00    -0.050 C 
ATOM     12  C15 TSV d         -13.767  -9.710  14.023  0.00  0.00     0.094 C 
ATOM     13  C18 TSV d         -15.435  -4.659  12.268  0.00  0.00    -0.062 C 
ATOM     14  C19 TSV d         -16.591  -5.433  11.608  0.00  0.00    -0.065 C 
ATOM     15  C22 TSV d         -16.564  -6.937  11.899  0.00  0.00    -0.063 C 
ATOM     16  C25 TSV d         -17.609  -7.330  12.947  0.00  0.00    -0.038 C 
ATOM     17  C27 TSV d         -13.059 -10.551  12.980  0.00  0.00    -0.011 C 
ATOM     18  C28 TSV d         -17.417  -8.755  13.446  0.00  0.00     0.091 C 
ATOM     19  C30 TSV d         -14.109 -11.501  12.486  0.00  0.00     0.067 C 
ATOM     20  C33 TSV d         -16.052  -8.884  14.084  0.00  0.00     0.243 C 
ATOM     21  C34 TSV d         -15.363 -10.673  12.438  0.00  0.00     0.023 C 
ATOM     22  H1  TSV d         -12.107  -5.323  17.416  0.00  0.00     0.038 H 
ATOM     23  H2  TSV d         -13.092  -6.801  17.680  0.00  0.00     0.038 H 
ATOM     24  H4  TSV d         -12.473  -8.677  15.948  0.00  0.00     0.163 HD
ATOM     25  H5  TSV d         -14.588  -6.161  15.610  0.00  0.00     0.050 H 
ATOM     26  H7  TSV d         -12.831  -3.619  15.719  0.00  0.00     0.077 H 
ATOM     27  H17 TSV d         -14.395  -2.736  14.167  0.00  0.00     0.076 H 
ATOM     28  H19 TSV d         -16.547  -4.134  14.023  0.00  0.00     0.038 H 
ATOM     29  H20 TSV d         -15.553  -5.622  14.179  0.00  0.00     0.038 H 
ATOM     30  H22 TSV d         -13.701 -10.180  15.016  0.00  0.00     0.088 H 
ATOM     31  H25 TSV d         -14.487  -5.160  12.023  0.00  0.00     0.033 H 
ATOM     32  H26 TSV d         -15.421  -3.634  11.870  0.00  0.00     0.033 H 
ATOM     33  H27 TSV d         -16.531  -5.288  10.519  0.00  0.00     0.033 H 
ATOM     34  H28 TSV d         -17.541  -5.023  11.980  0.00  0.00     0.033 H 
ATOM     35  H29 TSV d         -15.566  -7.209  12.272  0.00  0.00     0.033 H 
ATOM     36  H30 TSV d         -16.771  -7.484  10.968  0.00  0.00     0.033 H 
ATOM     37  H32 TSV d         -18.609  -7.244  12.499  0.00  0.00     0.036 H 
ATOM     38  H33 TSV d         -17.528  -6.642  13.802  0.00  0.00     0.036 H 
ATOM     39  H34 TSV d         -12.218 -11.100  13.429  0.00  0.00     0.040 H 
ATOM     40  H35 TSV d         -12.688  -9.920  12.158  0.00  0.00     0.040 H 
ATOM     41  H36 TSV d         -17.495  -9.454  12.600  0.00  0.00     0.087 H 
ATOM     42  H39 TSV d         -13.847 -11.932  11.508  0.00  0.00     0.086 H 
ATOM     43  H43 TSV d         -15.462 -10.159  11.470  0.00  0.00     0.068 H 
ATOM     44  H44 TSV d         -16.255 -11.292  12.617  0.00  0.00     0.068 H 
ENDROOT
BRANCH  18  45
ATOM     45  N1  TSV d         -18.432  -9.063  14.417  0.00  0.00    -0.324 N 
ATOM     46  C20 TSV d         -19.370  -9.973  14.197  0.00  0.00     0.362 C 
ATOM     47  O2  TSV d         -19.511 -10.617  13.155  0.00  0.00    -0.238 OA
ATOM     48  H3  TSV d         -18.430  -8.573  15.289  0.00  0.00     0.165 HD
BRANCH  46  49
ATOM     49  O1  TSV d         -20.247 -10.180  15.320  0.00  0.00    -0.294 OA
BRANCH  49  50
ATOM     50  C9  TSV d         -20.221 -11.327  16.174  0.00  0.00     0.061 C 
BRANCH  50  51
ATOM     51  C6  TSV d         -20.500 -10.919  17.614  0.00  0.00    -0.048 C 
ATOM     52  H8  TSV d         -19.773 -10.155  17.927  0.00  0.00     0.031 H 
ATOM     53  H9  TSV d         -20.412 -11.799  18.269  0.00  0.00     0.031 H 
ATOM     54  H10 TSV d         -21.518 -10.508  17.688  0.00  0.00     0.031 H 
ENDBRANCH  50  51
BRANCH  50  55
ATOM     55  C7  TSV d         -21.305 -12.267  15.654  0.00  0.00    -0.048 C 
ATOM     56  H11 TSV d         -21.354 -13.160  16.294  0.00  0.00     0.031 H 
ATOM     57  H12 TSV d         -21.066 -12.568  14.623  0.00  0.00     0.031 H 
ATOM     58  H13 TSV d         -22.277 -11.751  15.669  0.00  0.00     0.031 H 
ENDBRANCH  50  55
BRANCH  50  59
ATOM     59  C8  TSV d         -18.848 -11.985  16.072  0.00  0.00    -0.048 C 
ATOM     60  H14 TSV d         -18.827 -12.888  16.698  0.00  0.00     0.031 H 
ATOM     61  H15 TSV d         -18.077 -11.281  16.418  0.00  0.00     0.031 H 
ATOM     62  H16 TSV d         -18.650 -12.260  15.025  0.00  0.00     0.031 H 
ENDBRANCH  50  59
ENDBRANCH  49  50
ENDBRANCH  46  49
ENDBRANCH  18  45
BRANCH  19  63
ATOM     63  O8  TSV d         -14.335 -12.511  13.457  0.00  0.00    -0.296 OA
BRANCH  63  64
ATOM     64  C35 TSV d         -14.059 -13.851  13.038  0.00  0.00     0.371 C 
ATOM     65  N4  TSV d         -15.100 -14.621  13.037  0.00  0.00    -0.278 N 
ATOM     66  C12 TSV d         -15.078 -15.982  12.480  0.00  0.00     0.000 A 
ATOM     67  C31 TSV d         -16.412 -14.217  13.544  0.00  0.00     0.003 A 
ATOM     68  C24 TSV d         -16.494 -16.389  12.629  0.00  0.00    -0.005 A 
ATOM     69  H18 TSV d         -14.241 -16.544  12.068  0.00  0.00     0.113 H 
ATOM     70  C16 TSV d         -17.057 -17.598  12.230  0.00  0.00    -0.071 A 
ATOM     71  C26 TSV d         -17.246 -15.420  13.211  0.00  0.00     0.030 A 
ATOM     72  C14 TSV d         -18.407 -17.782  12.452  0.00  0.00    -0.079 A 
ATOM     73  H23 TSV d         -16.457 -18.368  11.761  0.00  0.00     0.084 H 
ATOM     74  C17 TSV d         -19.182 -16.785  13.050  0.00  0.00    -0.045 A 
ATOM     75  H21 TSV d         -18.873 -18.715  12.158  0.00  0.00     0.083 H 
ATOM     76  C21 TSV d         -18.584 -15.579  13.443  0.00  0.00     0.128 A 
ATOM     77  H24 TSV d         -20.242 -16.943  13.210  0.00  0.00     0.088 H 
ATOM     78  F1  TSV d         -19.300 -14.600  14.033  0.00  0.00    -0.205 F 
ATOM     79  H40 TSV d         -16.704 -13.289  14.033  0.00  0.00     0.114 H 
ATOM     80  O5  TSV d         -12.929 -14.206  12.718  0.00  0.00    -0.238 OA
ENDBRANCH  63  64
ENDBRANCH  19  63
BRANCH   2  81
ATOM     81  C4  TSV d         -11.070  -6.022  14.975  0.00  0.00     0.260 C 
ATOM     82  N3  TSV d         -10.581  -6.603  13.883  0.00  0.00    -0.252 N 
ATOM     83  H6  TSV d         -11.019  -7.413  13.494  0.00  0.00     0.181 HD
ATOM     84  O9  TSV d         -10.547  -5.067  15.500  0.00  0.00    -0.270 OA
BRANCH  82  85
ATOM     85  S1  TSV d          -9.292  -5.981  13.217  0.00  0.00     0.237 S 
ATOM     86  O4  TSV d          -8.174  -5.996  14.116  0.00  0.00    -0.205 OA
ATOM     87  O6  TSV d          -9.592  -4.653  12.716  0.00  0.00    -0.205 OA
BRANCH  85  88
ATOM     88  C23 TSV d          -8.995  -6.935  11.882  0.00  0.00     0.063 A 
ATOM     89  C29 TSV d         -10.201  -7.652  11.283  0.00  0.00    -0.046 A 
ATOM     90  C32 TSV d          -9.585  -6.485  10.543  0.00  0.00    -0.046 A 
ATOM     91  H37 TSV d         -11.191  -7.544  11.750  0.00  0.00     0.035 H 
ATOM     92  H38 TSV d         -10.092  -8.672  10.887  0.00  0.00     0.035 H 
ATOM     93  H41 TSV d          -9.028  -6.658   9.610  0.00  0.00     0.035 H 
ATOM     94  H42 TSV d         -10.127  -5.530  10.474  0.00  0.00     0.035 H 
ATOM     95  H31 TSV d          -8.007  -7.413  11.942  0.00  0.00     0.066 H 
ENDBRANCH  85  88
ENDBRANCH  82  85
ENDBRANCH   2  81
TORSDOF 11
ENDMDL
