MODEL 1
REMARK VINA RESULT:      -6.5      0.000      0.000
REMARK WARNING: 32 MAX_TORS EXCEEDED!!!
REMARK  33 active torsions:
REMARK  status: ('A' for Active; 'I' for Inactive)
REMARK    1  A    between atoms: CA_2  and  C_3 
REMARK       I    between atoms: C_3  and  N_8 
REMARK    2  A    between atoms: N_8  and  CA_9 
REMARK    3  A    between atoms: CA_9  and  C_10 
REMARK    4  A    between atoms: CA_9  and  CB_12 
REMARK       I    between atoms: C_10  and  N_18 
REMARK    5  A    between atoms: CB_12  and  CG_13 
REMARK    6  A    between atoms: N_18  and  CA_19 
REMARK    7  A    between atoms: CA_19  and  C_20 
REMARK    8  A    between atoms: CA_19  and  CB_22 
REMARK       I    between atoms: C_20  and  N_26 
REMARK    9  A    between atoms: CB_22  and  CG_23 
REMARK   10  A    between atoms: CG_23  and  CD1_24 
REMARK   11  A    between atoms: CG_23  and  CD2_25 
REMARK   12  A    between atoms: N_26  and  CA_27 
REMARK   13  A    between atoms: CA_27  and  C_28 
REMARK   14  A    between atoms: CA_27  and  CB_30 
REMARK       I    between atoms: C_28  and  N_32 
REMARK   15  A    between atoms: CB_30  and  OG_31 
REMARK   16  A    between atoms: N_32  and  C1_33 
REMARK   17  A    between atoms: C1_33  and  C2_34 
REMARK   18  A    between atoms: C1_33  and  C9_41 
REMARK   19  A    between atoms: C2_34  and  C3_35 
REMARK   20  A    between atoms: C9_41  and  N2_42 
REMARK   21  A    between atoms: N2_42  and  C10_43 
REMARK   22  A    between atoms: C10_43  and  C11_44 
REMARK   23  A    between atoms: C10_43  and  C_48 
REMARK   24  A    between atoms: C11_44  and  C12_45 
REMARK   25  A    between atoms: C12_45  and  SD_46 
REMARK   26  A    between atoms: SD_46  and  C13_47 
REMARK       I    between atoms: C_48  and  N_50 
REMARK   27  A    between atoms: N_50  and  CA_51 
REMARK   28  A    between atoms: CA_51  and  C_52 
REMARK   29  A    between atoms: CA_51  and  CB_54 
REMARK       I    between atoms: C_52  and  N_55 
REMARK   30  A    between atoms: N_55  and  CA_56 
REMARK   31  A    between atoms: CA_56  and  C_57 
REMARK   32  A    between atoms: CA_56  and  CB_59 
REMARK   33  A    between atoms: CB_59  and  CG_60 
ROOT
ATOM      1  C   PRO d           1.705  30.088  17.453  0.00  0.00     0.242 C 
ATOM      2  O   PRO d           2.889  29.935  17.824  0.00  0.00    -0.271 OA
ATOM      3  N   PRO d           0.713  29.381  18.002  0.00  0.00    -0.353 N 
ATOM      4  H33 PRO d          -0.207  29.461  17.619  0.00  0.00     0.163 HD
ENDROOT
BRANCH   3   5
ATOM      5  C1  PRO d           0.929  28.496  19.139  0.00  0.00     0.039 C 
ATOM      6  H34 PRO d           1.604  29.005  19.842  0.00  0.00     0.075 H 
BRANCH   5   7
ATOM      7  C2  PRO d          -0.385  28.214  19.831  0.00  0.00    -0.021 C 
ATOM      8  H35 PRO d          -0.160  28.016  20.890  0.00  0.00     0.043 H 
ATOM      9  H36 PRO d          -0.809  27.310  19.371  0.00  0.00     0.043 H 
BRANCH   7  10
ATOM     10  C3  PRO d          -1.465  29.292  19.792  0.00  0.00    -0.056 A 
ATOM     11  C4  PRO d          -1.434  30.284  20.780  0.00  0.00    -0.077 A 
ATOM     12  C6  PRO d          -2.387  31.301  20.773  0.00  0.00    -0.082 A 
ATOM     13  H37 PRO d          -0.671  30.260  21.549  0.00  0.00     0.084 H 
ATOM     14  C8  PRO d          -3.376  31.335  19.792  0.00  0.00    -0.083 A 
ATOM     15  H39 PRO d          -2.359  32.070  21.536  0.00  0.00     0.083 H 
ATOM     16  C7  PRO d          -3.412  30.344  18.817  0.00  0.00    -0.082 A 
ATOM     17  H41 PRO d          -4.113  32.129  19.789  0.00  0.00     0.083 H 
ATOM     18  C5  PRO d          -2.462  29.328  18.808  0.00  0.00    -0.077 A 
ATOM     19  H40 PRO d          -4.186  30.364  18.057  0.00  0.00     0.083 H 
ATOM     20  H38 PRO d          -2.493  28.564  18.039  0.00  0.00     0.084 H 
ENDBRANCH   7  10
ENDBRANCH   5   7
BRANCH   5  21
ATOM     21  C9  PRO d           1.551  27.153  18.759  0.00  0.00     0.101 C 
ATOM     22  H42 PRO d           2.643  27.276  18.698  0.00  0.00     0.079 H 
ATOM     23  H43 PRO d           1.162  26.851  17.776  0.00  0.00     0.079 H 
BRANCH  21  24
ATOM     24  N2  PRO d           1.256  26.113  19.712  0.00  0.00    -0.060 N 
ATOM     25  H44 PRO d           1.248  25.234  19.220  0.00  0.00     0.278 HD
ATOM     26  H45 PRO d           0.340  26.293  20.094  0.00  0.00     0.278 HD
BRANCH  24  27
ATOM     27  C10 PRO d           2.196  25.994  20.834  0.00  0.00     0.178 C 
ATOM     28  H46 PRO d           2.116  26.905  21.445  0.00  0.00     0.099 H 
BRANCH  27  29
ATOM     29  C11 PRO d           1.788  24.779  21.698  0.00  0.00    -0.022 C 
ATOM     30  H47 PRO d           1.252  25.171  22.575  0.00  0.00     0.037 H 
ATOM     31  H48 PRO d           2.717  24.288  22.024  0.00  0.00     0.037 H 
BRANCH  29  32
ATOM     32  C12 PRO d           0.899  23.691  21.075  0.00  0.00    -0.021 C 
ATOM     33  H49 PRO d           1.395  22.720  21.226  0.00  0.00     0.049 H 
ATOM     34  H50 PRO d           0.816  23.895  19.998  0.00  0.00     0.049 H 
BRANCH  32  35
ATOM     35  SD  PRO d          -0.773  23.575  21.751  0.00  0.00    -0.173 SA
BRANCH  35  36
ATOM     36  C13 PRO d          -0.476  22.375  23.010  0.00  0.00    -0.035 C 
ATOM     37  H51 PRO d          -0.137  22.881  23.926  0.00  0.00     0.041 H 
ATOM     38  H52 PRO d           0.298  21.672  22.671  0.00  0.00     0.041 H 
ATOM     39  H53 PRO d          -1.405  21.824  23.218  0.00  0.00     0.041 H 
ENDBRANCH  35  36
ENDBRANCH  32  35
ENDBRANCH  29  32
ENDBRANCH  27  29
BRANCH  27  40
ATOM     40  C   PRO d           3.678  25.856  20.379  0.00  0.00     0.249 C 
ATOM     41  O   PRO d           4.024  24.865  19.715  0.00  0.00    -0.271 OA
ATOM     42  N   PRO d           4.543  26.841  20.614  0.00  0.00    -0.346 N 
ATOM     43  H54 PRO d           4.223  27.710  20.989  0.00  0.00     0.163 HD
BRANCH  42  44
ATOM     44  CA  PRO d           5.957  26.650  20.322  0.00  0.00     0.086 C 
ATOM     45  H55 PRO d           6.261  25.593  20.292  0.00  0.00     0.086 H 
BRANCH  44  46
ATOM     46  C   PRO d           6.486  27.402  21.543  0.00  0.00     0.240 C 
ATOM     47  O   PRO d           7.274  26.865  22.336  0.00  0.00    -0.271 OA
ATOM     48  N   PRO d           6.177  28.695  21.534  0.00  0.00    -0.344 N 
ATOM     49  H59 PRO d           5.603  29.046  20.795  0.00  0.00     0.163 HD
BRANCH  48  50
ATOM     50  CA  PRO d           6.641  29.621  22.557  0.00  0.00     0.101 C 
ATOM     51  H60 PRO d           7.563  29.228  23.012  0.00  0.00     0.090 H 
BRANCH  50  52
ATOM     52  C   PRO d           5.589  29.775  23.650  0.00  0.00     0.197 C 
ATOM     53  O   PRO d           4.403  29.699  23.303  0.00  0.00    -0.646 OA
ATOM     54  OXT PRO d           5.991  29.868  24.814  0.00  0.00    -0.646 OA
ENDBRANCH  50  52
BRANCH  50  55
ATOM     55  CB  PRO d           6.956  30.975  21.864  0.00  0.00     0.003 C 
ATOM     56  H61 PRO d           7.151  31.710  22.659  0.00  0.00     0.046 H 
ATOM     57  H62 PRO d           6.056  31.271  21.305  0.00  0.00     0.046 H 
BRANCH  55  58
ATOM     58  CG  PRO d           8.137  31.042  20.887  0.00  0.00     0.030 A 
ATOM     59  ND1 PRO d           9.135  31.926  20.836  0.00  0.00    -0.353 N 
ATOM     60  CE1 PRO d           9.886  31.640  19.795  0.00  0.00     0.063 A 
ATOM     61  H63 PRO d           9.290  32.699  21.498  0.00  0.00     0.166 HD
ATOM     62  NE2 PRO d           9.382  30.578  19.176  0.00  0.00    -0.254 NA
ATOM     63  H65 PRO d          10.777  32.187  19.490  0.00  0.00     0.143 H 
ATOM     64  CD2 PRO d           8.313  30.177  19.813  0.00  0.00     0.025 A 
ATOM     65  H64 PRO d           7.682  29.328  19.553  0.00  0.00     0.117 H 
ENDBRANCH  55  58
ENDBRANCH  50  55
ENDBRANCH  48  50
ENDBRANCH  44  46
BRANCH  44  66
ATOM     66  CB  PRO d           6.349  27.355  19.036  0.00  0.00    -0.049 C 
ATOM     67  H56 PRO d           7.069  26.734  18.483  0.00  0.00     0.030 H 
ATOM     68  H57 PRO d           6.810  28.324  19.275  0.00  0.00     0.030 H 
ATOM     69  H58 PRO d           5.453  27.516  18.419  0.00  0.00     0.030 H 
ENDBRANCH  44  66
ENDBRANCH  42  44
ENDBRANCH  27  40
ENDBRANCH  24  27
ENDBRANCH  21  24
ENDBRANCH   5  21
ENDBRANCH   3   5
BRANCH   1  70
ATOM     70  CA  PRO d           1.295  31.064  16.336  0.00  0.00     0.109 C 
ATOM     71  H29 PRO d           0.778  31.925  16.785  0.00  0.00     0.090 H 
BRANCH  70  72
ATOM     72  N   PRO d           2.483  31.554  15.619  0.00  0.00    -0.344 N 
ATOM     73  C   PRO d           3.162  32.663  15.935  0.00  0.00     0.241 C 
ATOM     74  O   PRO d           2.739  33.422  16.822  0.00  0.00    -0.271 OA
ATOM     75  H28 PRO d           2.807  31.018  14.839  0.00  0.00     0.163 HD
BRANCH  73  76
ATOM     76  CA  PRO d           4.362  33.039  15.063  0.00  0.00     0.089 C 
ATOM     77  H18 PRO d           4.584  32.163  14.436  0.00  0.00     0.087 H 
BRANCH  76  78
ATOM     78  N   PRO d           4.081  34.177  14.201  0.00  0.00    -0.346 N 
ATOM     79  C   PRO d           3.098  34.099  13.308  0.00  0.00     0.241 C 
ATOM     80  O   PRO d           2.370  33.102  13.259  0.00  0.00    -0.271 OA
ATOM     81  H17 PRO d           4.622  35.014  14.281  0.00  0.00     0.163 HD
BRANCH  79  82
ATOM     82  CA  PRO d           2.818  35.186  12.285  0.00  0.00     0.094 C 
ATOM     83  H11 PRO d           2.998  34.830  11.260  0.00  0.00     0.088 H 
BRANCH  82  84
ATOM     84  N   PRO d           1.406  35.564  12.454  0.00  0.00    -0.346 N 
ATOM     85  C   PRO d           0.412  35.356  11.561  0.00  0.00     0.249 C 
ATOM     86  O   PRO d           0.570  34.728  10.498  0.00  0.00    -0.271 OA
ATOM     87  H10 PRO d           1.158  36.018  13.310  0.00  0.00     0.163 HD
BRANCH  85  88
ATOM     88  CA  PRO d          -0.999  35.893  11.847  0.00  0.00     0.178 C 
ATOM     89  N   PRO d          -1.715  34.816  12.519  0.00  0.00    -0.062 N 
ATOM     90  CD  PRO d          -2.554  35.414  13.556  0.00  0.00     0.083 C 
ATOM     91  H1  PRO d          -1.058  34.175  12.936  0.00  0.00     0.278 HD
ATOM     92  H2  PRO d          -2.292  34.322  11.855  0.00  0.00     0.278 HD
ATOM     93  CG  PRO d          -2.443  36.932  13.384  0.00  0.00    -0.040 C 
ATOM     94  H8  PRO d          -2.196  35.117  14.553  0.00  0.00     0.075 H 
ATOM     95  H9  PRO d          -3.599  35.093  13.432  0.00  0.00     0.075 H 
ATOM     96  CB  PRO d          -1.035  37.072  12.813  0.00  0.00    -0.028 C 
ATOM     97  H6  PRO d          -3.201  37.313  12.683  0.00  0.00     0.035 H 
ATOM     98  H7  PRO d          -2.539  37.455  14.347  0.00  0.00     0.035 H 
ATOM     99  H4  PRO d          -0.905  38.030  12.288  0.00  0.00     0.036 H 
ATOM    100  H5  PRO d          -0.269  36.978  13.596  0.00  0.00     0.036 H 
ATOM    101  H3  PRO d          -1.486  36.172  10.902  0.00  0.00     0.099 H 
ENDBRANCH  85  88
ENDBRANCH  82  84
BRANCH  82 102
ATOM    102  CB  PRO d           3.760  36.332  12.619  0.00  0.00     0.002 C 
ATOM    103  H12 PRO d           4.724  36.152  12.121  0.00  0.00     0.046 H 
ATOM    104  H13 PRO d           3.910  36.360  13.708  0.00  0.00     0.046 H 
BRANCH 102 105
ATOM    105  CG  PRO d           3.226  37.662  12.171  0.00  0.00     0.030 A 
ATOM    106  ND1 PRO d           3.247  38.114  10.927  0.00  0.00    -0.353 N 
ATOM    107  CE1 PRO d           2.749  39.316  10.983  0.00  0.00     0.063 A 
ATOM    108  H14 PRO d           3.586  37.619  10.090  0.00  0.00     0.166 HD
ATOM    109  NE2 PRO d           2.411  39.616  12.220  0.00  0.00    -0.254 NA
ATOM    110  H16 PRO d           2.630  39.979  10.127  0.00  0.00     0.143 H 
ATOM    111  CD2 PRO d           2.685  38.617  13.003  0.00  0.00     0.025 A 
ATOM    112  H15 PRO d           2.523  38.549  14.078  0.00  0.00     0.117 H 
ENDBRANCH 102 105
ENDBRANCH  82 102
ENDBRANCH  79  82
ENDBRANCH  76  78
BRANCH  76 113
ATOM    113  CB  PRO d           5.667  33.435  15.823  0.00  0.00    -0.035 C 
ATOM    114  H19 PRO d           5.477  34.395  16.326  0.00  0.00     0.037 H 
ATOM    115  H20 PRO d           6.460  33.565  15.072  0.00  0.00     0.037 H 
BRANCH 113 116
ATOM    116  CG  PRO d           6.206  32.421  16.917  0.00  0.00    -0.059 C 
ATOM    117  H21 PRO d           5.476  31.609  17.047  0.00  0.00     0.038 H 
BRANCH 116 118
ATOM    118  CD1 PRO d           7.583  31.867  16.563  0.00  0.00    -0.073 C 
ATOM    119  H22 PRO d           7.713  31.878  15.471  0.00  0.00     0.028 H 
ATOM    120  H23 PRO d           7.669  30.835  16.932  0.00  0.00     0.028 H 
ATOM    121  H24 PRO d           8.360  32.490  17.031  0.00  0.00     0.028 H 
ENDBRANCH 116 118
BRANCH 116 122
ATOM    122  CD2 PRO d           6.485  33.124  18.236  0.00  0.00    -0.073 C 
ATOM    123  H25 PRO d           5.573  33.637  18.578  0.00  0.00     0.028 H 
ATOM    124  H26 PRO d           7.290  33.861  18.095  0.00  0.00     0.028 H 
ATOM    125  H27 PRO d           6.793  32.384  18.989  0.00  0.00     0.028 H 
ENDBRANCH 116 122
ENDBRANCH 113 116
ENDBRANCH  76 113
ENDBRANCH  73  76
ENDBRANCH  70  72
BRANCH  70 126
ATOM    126  CB  PRO d           0.311  30.333  15.368  0.00  0.00     0.044 C 
ATOM    127  H30 PRO d           0.645  29.288  15.277  0.00  0.00     0.077 H 
ATOM    128  H31 PRO d           0.377  30.826  14.388  0.00  0.00     0.077 H 
BRANCH 126 129
ATOM    129  OG  PRO d          -1.069  30.316  15.755  0.00  0.00    -0.398 OA
ATOM    130  H32 PRO d          -1.569  30.864  15.161  0.00  0.00     0.209 HD
ENDBRANCH 126 129
ENDBRANCH  70 126
ENDBRANCH   1  70
TORSDOF 33
ENDMDL
MODEL 2
REMARK VINA RESULT:      -6.4      2.609      5.974
REMARK WARNING: 32 MAX_TORS EXCEEDED!!!
REMARK  33 active torsions:
REMARK  status: ('A' for Active; 'I' for Inactive)
REMARK    1  A    between atoms: CA_2  and  C_3 
REMARK       I    between atoms: C_3  and  N_8 
REMARK    2  A    between atoms: N_8  and  CA_9 
REMARK    3  A    between atoms: CA_9  and  C_10 
REMARK    4  A    between atoms: CA_9  and  CB_12 
REMARK       I    between atoms: C_10  and  N_18 
REMARK    5  A    between atoms: CB_12  and  CG_13 
REMARK    6  A    between atoms: N_18  and  CA_19 
REMARK    7  A    between atoms: CA_19  and  C_20 
REMARK    8  A    between atoms: CA_19  and  CB_22 
REMARK       I    between atoms: C_20  and  N_26 
REMARK    9  A    between atoms: CB_22  and  CG_23 
REMARK   10  A    between atoms: CG_23  and  CD1_24 
REMARK   11  A    between atoms: CG_23  and  CD2_25 
REMARK   12  A    between atoms: N_26  and  CA_27 
REMARK   13  A    between atoms: CA_27  and  C_28 
REMARK   14  A    between atoms: CA_27  and  CB_30 
REMARK       I    between atoms: C_28  and  N_32 
REMARK   15  A    between atoms: CB_30  and  OG_31 
REMARK   16  A    between atoms: N_32  and  C1_33 
REMARK   17  A    between atoms: C1_33  and  C2_34 
REMARK   18  A    between atoms: C1_33  and  C9_41 
REMARK   19  A    between atoms: C2_34  and  C3_35 
REMARK   20  A    between atoms: C9_41  and  N2_42 
REMARK   21  A    between atoms: N2_42  and  C10_43 
REMARK   22  A    between atoms: C10_43  and  C11_44 
REMARK   23  A    between atoms: C10_43  and  C_48 
REMARK   24  A    between atoms: C11_44  and  C12_45 
REMARK   25  A    between atoms: C12_45  and  SD_46 
REMARK   26  A    between atoms: SD_46  and  C13_47 
REMARK       I    between atoms: C_48  and  N_50 
REMARK   27  A    between atoms: N_50  and  CA_51 
REMARK   28  A    between atoms: CA_51  and  C_52 
REMARK   29  A    between atoms: CA_51  and  CB_54 
REMARK       I    between atoms: C_52  and  N_55 
REMARK   30  A    between atoms: N_55  and  CA_56 
REMARK   31  A    between atoms: CA_56  and  C_57 
REMARK   32  A    between atoms: CA_56  and  CB_59 
REMARK   33  A    between atoms: CB_59  and  CG_60 
ROOT
ATOM      1  C   PRO d           0.459  28.454  19.501  0.00  0.00     0.242 C 
ATOM      2  O   PRO d          -0.386  27.870  18.791  0.00  0.00    -0.271 OA
ATOM      3  N   PRO d           0.239  28.666  20.803  0.00  0.00    -0.353 N 
ATOM      4  H33 PRO d           0.893  29.216  21.321  0.00  0.00     0.163 HD
ENDROOT
BRANCH   3   5
ATOM      5  C1  PRO d          -0.924  28.121  21.491  0.00  0.00     0.039 C 
ATOM      6  H34 PRO d          -0.618  27.190  21.991  0.00  0.00     0.075 H 
BRANCH   5   7
ATOM      7  C2  PRO d          -1.416  29.101  22.530  0.00  0.00    -0.021 C 
ATOM      8  H35 PRO d          -2.163  28.577  23.145  0.00  0.00     0.043 H 
ATOM      9  H36 PRO d          -1.900  29.930  21.993  0.00  0.00     0.043 H 
BRANCH   7  10
ATOM     10  C3  PRO d          -0.394  29.714  23.483  0.00  0.00    -0.056 A 
ATOM     11  C4  PRO d          -0.225  31.103  23.454  0.00  0.00    -0.077 A 
ATOM     12  C6  PRO d           0.682  31.711  24.320  0.00  0.00    -0.082 A 
ATOM     13  H37 PRO d          -0.798  31.705  22.758  0.00  0.00     0.084 H 
ATOM     14  C8  PRO d           1.428  30.944  25.212  0.00  0.00    -0.083 A 
ATOM     15  H39 PRO d           0.809  32.787  24.299  0.00  0.00     0.083 H 
ATOM     16  C7  PRO d           1.267  29.563  25.235  0.00  0.00    -0.082 A 
ATOM     17  H41 PRO d           2.130  31.421  25.886  0.00  0.00     0.083 H 
ATOM     18  C5  PRO d           0.359  28.945  24.381  0.00  0.00    -0.077 A 
ATOM     19  H40 PRO d           1.852  28.963  25.923  0.00  0.00     0.083 H 
ATOM     20  H38 PRO d           0.234  27.868  24.410  0.00  0.00     0.084 H 
ENDBRANCH   7  10
ENDBRANCH   5   7
BRANCH   5  21
ATOM     21  C9  PRO d          -2.093  27.805  20.558  0.00  0.00     0.101 C 
ATOM     22  H42 PRO d          -1.714  27.746  19.527  0.00  0.00     0.079 H 
ATOM     23  H43 PRO d          -2.831  28.617  20.631  0.00  0.00     0.079 H 
BRANCH  21  24
ATOM     24  N2  PRO d          -2.743  26.560  20.884  0.00  0.00    -0.060 N 
ATOM     25  H44 PRO d          -3.282  26.273  20.082  0.00  0.00     0.278 HD
ATOM     26  H45 PRO d          -3.361  26.727  21.662  0.00  0.00     0.278 HD
BRANCH  24  27
ATOM     27  C10 PRO d          -1.849  25.453  21.247  0.00  0.00     0.178 C 
ATOM     28  H46 PRO d          -1.118  25.830  21.977  0.00  0.00     0.099 H 
BRANCH  27  29
ATOM     29  C11 PRO d          -2.686  24.337  21.912  0.00  0.00    -0.022 C 
ATOM     30  H47 PRO d          -3.318  23.895  21.127  0.00  0.00     0.037 H 
ATOM     31  H48 PRO d          -3.322  24.817  22.669  0.00  0.00     0.037 H 
BRANCH  29  32
ATOM     32  C12 PRO d          -1.956  23.177  22.608  0.00  0.00    -0.021 C 
ATOM     33  H49 PRO d          -0.889  23.241  22.346  0.00  0.00     0.049 H 
ATOM     34  H50 PRO d          -2.371  22.235  22.223  0.00  0.00     0.049 H 
BRANCH  32  35
ATOM     35  SD  PRO d          -2.086  23.149  24.410  0.00  0.00    -0.173 SA
BRANCH  35  36
ATOM     36  C13 PRO d          -1.439  24.754  24.756  0.00  0.00    -0.035 C 
ATOM     37  H51 PRO d          -1.699  25.039  25.786  0.00  0.00     0.041 H 
ATOM     38  H52 PRO d          -1.871  25.482  24.054  0.00  0.00     0.041 H 
ATOM     39  H53 PRO d          -0.346  24.740  24.644  0.00  0.00     0.041 H 
ENDBRANCH  35  36
ENDBRANCH  32  35
ENDBRANCH  29  32
ENDBRANCH  27  29
BRANCH  27  40
ATOM     40  C   PRO d          -1.059  24.881  20.034  0.00  0.00     0.249 C 
ATOM     41  O   PRO d          -1.676  24.355  19.094  0.00  0.00    -0.271 OA
ATOM     42  N   PRO d           0.261  25.044  19.960  0.00  0.00    -0.346 N 
ATOM     43  H54 PRO d           0.733  25.621  20.628  0.00  0.00     0.163 HD
BRANCH  42  44
ATOM     44  CA  PRO d           1.017  24.383  18.906  0.00  0.00     0.086 C 
ATOM     45  H55 PRO d           0.584  23.421  18.592  0.00  0.00     0.086 H 
BRANCH  44  46
ATOM     46  C   PRO d           2.318  24.237  19.694  0.00  0.00     0.240 C 
ATOM     47  O   PRO d           2.758  23.121  20.008  0.00  0.00    -0.271 OA
ATOM     48  N   PRO d           2.987  25.381  19.812  0.00  0.00    -0.344 N 
ATOM     49  H59 PRO d           2.579  26.216  19.445  0.00  0.00     0.163 HD
BRANCH  48  50
ATOM     50  CA  PRO d           4.290  25.465  20.457  0.00  0.00     0.101 C 
ATOM     51  H60 PRO d           4.854  24.542  20.260  0.00  0.00     0.090 H 
BRANCH  50  52
ATOM     52  C   PRO d           4.126  25.621  21.965  0.00  0.00     0.197 C 
ATOM     53  O   PRO d           3.366  26.515  22.360  0.00  0.00    -0.646 OA
ATOM     54  OXT PRO d           4.685  24.786  22.684  0.00  0.00    -0.646 OA
ENDBRANCH  50  52
BRANCH  50  55
ATOM     55  CB  PRO d           5.051  26.667  19.832  0.00  0.00     0.003 C 
ATOM     56  H61 PRO d           4.313  27.464  19.658  0.00  0.00     0.046 H 
ATOM     57  H62 PRO d           5.459  26.327  18.868  0.00  0.00     0.046 H 
BRANCH  55  58
ATOM     58  CG  PRO d           6.211  27.290  20.619  0.00  0.00     0.030 A 
ATOM     59  ND1 PRO d           6.225  28.403  21.353  0.00  0.00    -0.353 N 
ATOM     60  CE1 PRO d           7.450  28.593  21.792  0.00  0.00     0.063 A 
ATOM     61  H63 PRO d           5.415  29.010  21.544  0.00  0.00     0.166 HD
ATOM     62  NE2 PRO d           8.226  27.609  21.348  0.00  0.00    -0.254 NA
ATOM     63  H65 PRO d           7.776  29.422  22.418  0.00  0.00     0.143 H 
ATOM     64  CD2 PRO d           7.507  26.787  20.630  0.00  0.00     0.025 A 
ATOM     65  H64 PRO d           7.856  25.882  20.135  0.00  0.00     0.117 H 
ENDBRANCH  55  58
ENDBRANCH  50  55
ENDBRANCH  48  50
ENDBRANCH  44  46
BRANCH  44  66
ATOM     66  CB  PRO d           1.203  25.300  17.711  0.00  0.00    -0.049 C 
ATOM     67  H56 PRO d           2.241  25.229  17.352  0.00  0.00     0.030 H 
ATOM     68  H57 PRO d           0.989  26.337  18.008  0.00  0.00     0.030 H 
ATOM     69  H58 PRO d           0.516  24.998  16.906  0.00  0.00     0.030 H 
ENDBRANCH  44  66
ENDBRANCH  42  44
ENDBRANCH  27  40
ENDBRANCH  24  27
ENDBRANCH  21  24
ENDBRANCH   5  21
ENDBRANCH   3   5
BRANCH   1  70
ATOM     70  CA  PRO d           1.789  28.997  18.950  0.00  0.00     0.109 C 
ATOM     71  H29 PRO d           2.213  28.264  18.248  0.00  0.00     0.090 H 
BRANCH  70  72
ATOM     72  N   PRO d           1.569  30.261  18.228  0.00  0.00    -0.344 N 
ATOM     73  C   PRO d           1.696  30.416  16.905  0.00  0.00     0.241 C 
ATOM     74  O   PRO d           2.127  29.484  16.205  0.00  0.00    -0.271 OA
ATOM     75  H28 PRO d           1.305  31.062  18.765  0.00  0.00     0.163 HD
BRANCH  73  76
ATOM     76  CA  PRO d           1.453  31.810  16.322  0.00  0.00     0.089 C 
ATOM     77  H18 PRO d           0.652  32.267  16.920  0.00  0.00     0.087 H 
BRANCH  76  78
ATOM     78  N   PRO d           2.639  32.651  16.398  0.00  0.00    -0.346 N 
ATOM     79  C   PRO d           3.616  32.494  15.509  0.00  0.00     0.241 C 
ATOM     80  O   PRO d           3.491  31.699  14.572  0.00  0.00    -0.271 OA
ATOM     81  H17 PRO d           2.718  33.343  17.115  0.00  0.00     0.163 HD
BRANCH  79  82
ATOM     82  CA  PRO d           4.938  33.235  15.590  0.00  0.00     0.094 C 
ATOM     83  H11 PRO d           4.832  34.189  16.127  0.00  0.00     0.088 H 
BRANCH  82  84
ATOM     84  N   PRO d           5.870  32.349  16.302  0.00  0.00    -0.346 N 
ATOM     85  C   PRO d           6.485  32.616  17.478  0.00  0.00     0.249 C 
ATOM     86  O   PRO d           6.259  33.639  18.149  0.00  0.00    -0.271 OA
ATOM     87  H10 PRO d           6.069  31.465  15.878  0.00  0.00     0.163 HD
BRANCH  85  88
ATOM     88  CA  PRO d           7.507  31.621  18.050  0.00  0.00     0.178 C 
ATOM     89  N   PRO d           8.805  32.026  17.524  0.00  0.00    -0.062 N 
ATOM     90  CD  PRO d           9.795  31.842  18.585  0.00  0.00     0.083 C 
ATOM     91  H1  PRO d           8.775  32.995  17.247  0.00  0.00     0.278 HD
ATOM     92  H2  PRO d           9.045  31.455  16.729  0.00  0.00     0.278 HD
ATOM     93  CG  PRO d           9.069  31.148  19.742  0.00  0.00    -0.040 C 
ATOM     94  H8  PRO d          10.188  32.815  18.912  0.00  0.00     0.075 H 
ATOM     95  H9  PRO d          10.624  31.214  18.226  0.00  0.00     0.075 H 
ATOM     96  CB  PRO d           7.647  31.671  19.567  0.00  0.00    -0.028 C 
ATOM     97  H6  PRO d           9.110  30.053  19.642  0.00  0.00     0.035 H 
ATOM     98  H7  PRO d           9.489  31.443  20.715  0.00  0.00     0.035 H 
ATOM     99  H4  PRO d           6.912  31.019  20.063  0.00  0.00     0.036 H 
ATOM    100  H5  PRO d           7.543  32.697  19.950  0.00  0.00     0.036 H 
ATOM    101  H3  PRO d           7.246  30.601  17.735  0.00  0.00     0.099 H 
ENDBRANCH  85  88
ENDBRANCH  82  84
BRANCH  82 102
ATOM    102  CB  PRO d           5.370  33.483  14.153  0.00  0.00     0.002 C 
ATOM    103  H12 PRO d           5.501  32.514  13.652  0.00  0.00     0.046 H 
ATOM    104  H13 PRO d           6.328  34.024  14.162  0.00  0.00     0.046 H 
BRANCH 102 105
ATOM    105  CG  PRO d           4.366  34.293  13.384  0.00  0.00     0.030 A 
ATOM    106  ND1 PRO d           3.704  33.875  12.317  0.00  0.00    -0.353 N 
ATOM    107  CE1 PRO d           2.992  34.892  11.925  0.00  0.00     0.063 A 
ATOM    108  H14 PRO d           3.743  32.940  11.885  0.00  0.00     0.166 HD
ATOM    109  NE2 PRO d           3.185  35.922  12.724  0.00  0.00    -0.254 NA
ATOM    110  H16 PRO d           2.331  34.892  11.060  0.00  0.00     0.143 H 
ATOM    111  CD2 PRO d           4.033  35.602  13.654  0.00  0.00     0.025 A 
ATOM    112  H15 PRO d           4.399  36.228  14.467  0.00  0.00     0.117 H 
ENDBRANCH 102 105
ENDBRANCH  82 102
ENDBRANCH  79  82
ENDBRANCH  76  78
BRANCH  76 113
ATOM    113  CB  PRO d           1.031  31.864  14.820  0.00  0.00    -0.035 C 
ATOM    114  H19 PRO d           1.675  31.162  14.270  0.00  0.00     0.037 H 
ATOM    115  H20 PRO d           1.213  32.888  14.462  0.00  0.00     0.037 H 
BRANCH 113 116
ATOM    116  CG  PRO d          -0.475  31.499  14.476  0.00  0.00    -0.059 C 
ATOM    117  H21 PRO d          -0.753  31.974  13.524  0.00  0.00     0.038 H 
BRANCH 116 118
ATOM    118  CD1 PRO d          -0.706  29.991  14.422  0.00  0.00    -0.073 C 
ATOM    119  H22 PRO d          -1.061  29.710  13.420  0.00  0.00     0.028 H 
ATOM    120  H23 PRO d          -1.461  29.709  15.170  0.00  0.00     0.028 H 
ATOM    121  H24 PRO d           0.237  29.468  14.638  0.00  0.00     0.028 H 
ENDBRANCH 116 118
BRANCH 116 122
ATOM    122  CD2 PRO d          -1.416  31.917  15.594  0.00  0.00    -0.073 C 
ATOM    123  H25 PRO d          -1.302  31.231  16.447  0.00  0.00     0.028 H 
ATOM    124  H26 PRO d          -2.455  31.881  15.232  0.00  0.00     0.028 H 
ATOM    125  H27 PRO d          -1.174  32.941  15.914  0.00  0.00     0.028 H 
ENDBRANCH 116 122
ENDBRANCH 113 116
ENDBRANCH  76 113
ENDBRANCH  73  76
ENDBRANCH  70  72
BRANCH  70 126
ATOM    126  CB  PRO d           2.784  29.190  20.139  0.00  0.00     0.044 C 
ATOM    127  H30 PRO d           3.782  29.374  19.714  0.00  0.00     0.077 H 
ATOM    128  H31 PRO d           2.798  28.256  20.718  0.00  0.00     0.077 H 
BRANCH 126 129
ATOM    129  OG  PRO d           2.493  30.261  21.046  0.00  0.00    -0.398 OA
ATOM    130  H32 PRO d           1.697  30.699  20.771  0.00  0.00     0.209 HD
ENDBRANCH 126 129
ENDBRANCH  70 126
ENDBRANCH   1  70
TORSDOF 33
ENDMDL
MODEL 3
REMARK VINA RESULT:      -5.9      4.532     11.875
REMARK WARNING: 32 MAX_TORS EXCEEDED!!!
REMARK  33 active torsions:
REMARK  status: ('A' for Active; 'I' for Inactive)
REMARK    1  A    between atoms: CA_2  and  C_3 
REMARK       I    between atoms: C_3  and  N_8 
REMARK    2  A    between atoms: N_8  and  CA_9 
REMARK    3  A    between atoms: CA_9  and  C_10 
REMARK    4  A    between atoms: CA_9  and  CB_12 
REMARK       I    between atoms: C_10  and  N_18 
REMARK    5  A    between atoms: CB_12  and  CG_13 
REMARK    6  A    between atoms: N_18  and  CA_19 
REMARK    7  A    between atoms: CA_19  and  C_20 
REMARK    8  A    between atoms: CA_19  and  CB_22 
REMARK       I    between atoms: C_20  and  N_26 
REMARK    9  A    between atoms: CB_22  and  CG_23 
REMARK   10  A    between atoms: CG_23  and  CD1_24 
REMARK   11  A    between atoms: CG_23  and  CD2_25 
REMARK   12  A    between atoms: N_26  and  CA_27 
REMARK   13  A    between atoms: CA_27  and  C_28 
REMARK   14  A    between atoms: CA_27  and  CB_30 
REMARK       I    between atoms: C_28  and  N_32 
REMARK   15  A    between atoms: CB_30  and  OG_31 
REMARK   16  A    between atoms: N_32  and  C1_33 
REMARK   17  A    between atoms: C1_33  and  C2_34 
REMARK   18  A    between atoms: C1_33  and  C9_41 
REMARK   19  A    between atoms: C2_34  and  C3_35 
REMARK   20  A    between atoms: C9_41  and  N2_42 
REMARK   21  A    between atoms: N2_42  and  C10_43 
REMARK   22  A    between atoms: C10_43  and  C11_44 
REMARK   23  A    between atoms: C10_43  and  C_48 
REMARK   24  A    between atoms: C11_44  and  C12_45 
REMARK   25  A    between atoms: C12_45  and  SD_46 
REMARK   26  A    between atoms: SD_46  and  C13_47 
REMARK       I    between atoms: C_48  and  N_50 
REMARK   27  A    between atoms: N_50  and  CA_51 
REMARK   28  A    between atoms: CA_51  and  C_52 
REMARK   29  A    between atoms: CA_51  and  CB_54 
REMARK       I    between atoms: C_52  and  N_55 
REMARK   30  A    between atoms: N_55  and  CA_56 
REMARK   31  A    between atoms: CA_56  and  C_57 
REMARK   32  A    between atoms: CA_56  and  CB_59 
REMARK   33  A    between atoms: CB_59  and  CG_60 
ROOT
ATOM      1  C   PRO d           3.151  32.431  14.573  0.00  0.00     0.242 C 
ATOM      2  O   PRO d           3.770  32.120  13.533  0.00  0.00    -0.271 OA
ATOM      3  N   PRO d           1.866  32.797  14.528  0.00  0.00    -0.353 N 
ATOM      4  H33 PRO d           1.428  33.127  15.364  0.00  0.00     0.163 HD
ENDROOT
BRANCH   3   5
ATOM      5  C1  PRO d           1.083  32.732  13.301  0.00  0.00     0.039 C 
ATOM      6  H34 PRO d           1.385  31.827  12.753  0.00  0.00     0.075 H 
BRANCH   5   7
ATOM      7  C2  PRO d          -0.388  32.642  13.631  0.00  0.00    -0.021 C 
ATOM      8  H35 PRO d          -0.919  32.416  12.694  0.00  0.00     0.043 H 
ATOM      9  H36 PRO d          -0.700  33.629  14.000  0.00  0.00     0.043 H 
BRANCH   7  10
ATOM     10  C3  PRO d          -0.833  31.610  14.664  0.00  0.00    -0.056 A 
ATOM     11  C4  PRO d          -0.410  30.287  14.489  0.00  0.00    -0.077 A 
ATOM     12  C6  PRO d          -0.773  29.313  15.417  0.00  0.00    -0.082 A 
ATOM     13  H37 PRO d           0.200  30.021  13.633  0.00  0.00     0.084 H 
ATOM     14  C8  PRO d          -1.562  29.646  16.517  0.00  0.00    -0.083 A 
ATOM     15  H39 PRO d          -0.440  28.291  15.284  0.00  0.00     0.083 H 
ATOM     16  C7  PRO d          -1.991  30.958  16.685  0.00  0.00    -0.082 A 
ATOM     17  H41 PRO d          -1.840  28.886  17.238  0.00  0.00     0.083 H 
ATOM     18  C5  PRO d          -1.628  31.941  15.770  0.00  0.00    -0.077 A 
ATOM     19  H40 PRO d          -2.612  31.217  17.535  0.00  0.00     0.083 H 
ATOM     20  H38 PRO d          -1.960  32.963  15.912  0.00  0.00     0.084 H 
ENDBRANCH   7  10
ENDBRANCH   5   7
BRANCH   5  21
ATOM     21  C9  PRO d           1.283  33.938  12.385  0.00  0.00     0.101 C 
ATOM     22  H42 PRO d           0.853  33.706  11.399  0.00  0.00     0.079 H 
ATOM     23  H43 PRO d           2.362  34.125  12.279  0.00  0.00     0.079 H 
BRANCH  21  24
ATOM     24  N2  PRO d           0.654  35.132  12.893  0.00  0.00    -0.060 N 
ATOM     25  H44 PRO d           1.049  35.328  13.799  0.00  0.00     0.278 HD
ATOM     26  H45 PRO d          -0.332  34.946  12.988  0.00  0.00     0.278 HD
BRANCH  24  27
ATOM     27  C10 PRO d           0.809  36.333  12.063  0.00  0.00     0.178 C 
ATOM     28  H46 PRO d           1.691  36.194  11.421  0.00  0.00     0.099 H 
BRANCH  27  29
ATOM     29  C11 PRO d          -0.440  36.480  11.164  0.00  0.00    -0.022 C 
ATOM     30  H47 PRO d          -0.893  35.482  11.074  0.00  0.00     0.037 H 
ATOM     31  H48 PRO d          -0.090  36.816  10.177  0.00  0.00     0.037 H 
BRANCH  29  32
ATOM     32  C12 PRO d          -1.557  37.444  11.597  0.00  0.00    -0.021 C 
ATOM     33  H49 PRO d          -1.335  37.783  12.620  0.00  0.00     0.049 H 
ATOM     34  H50 PRO d          -2.505  36.888  11.592  0.00  0.00     0.049 H 
BRANCH  32  35
ATOM     35  SD  PRO d          -1.763  38.908  10.558  0.00  0.00    -0.173 SA
BRANCH  35  36
ATOM     36  C13 PRO d          -3.429  38.644  10.041  0.00  0.00    -0.035 C 
ATOM     37  H51 PRO d          -3.798  37.699  10.463  0.00  0.00     0.041 H 
ATOM     38  H52 PRO d          -3.469  38.597   8.943  0.00  0.00     0.041 H 
ATOM     39  H53 PRO d          -4.058  39.474  10.395  0.00  0.00     0.041 H 
ENDBRANCH  35  36
ENDBRANCH  32  35
ENDBRANCH  29  32
ENDBRANCH  27  29
BRANCH  27  40
ATOM     40  C   PRO d           1.026  37.629  12.896  0.00  0.00     0.249 C 
ATOM     41  O   PRO d           2.050  38.308  12.717  0.00  0.00    -0.271 OA
ATOM     42  N   PRO d           0.073  38.060  13.722  0.00  0.00    -0.346 N 
ATOM     43  H54 PRO d          -0.821  37.611  13.732  0.00  0.00     0.163 HD
BRANCH  42  44
ATOM     44  CA  PRO d           0.334  39.185  14.608  0.00  0.00     0.086 C 
ATOM     45  H55 PRO d           1.332  39.158  15.071  0.00  0.00     0.086 H 
BRANCH  44  46
ATOM     46  C   PRO d          -0.801  38.897  15.589  0.00  0.00     0.240 C 
ATOM     47  O   PRO d          -1.304  37.767  15.676  0.00  0.00    -0.271 OA
ATOM     48  N   PRO d          -1.028  39.899  16.434  0.00  0.00    -0.344 N 
ATOM     49  H59 PRO d          -0.502  40.742  16.330  0.00  0.00     0.163 HD
BRANCH  48  50
ATOM     50  CA  PRO d          -2.011  39.816  17.505  0.00  0.00     0.101 C 
ATOM     51  H60 PRO d          -1.932  38.835  17.996  0.00  0.00     0.090 H 
BRANCH  50  52
ATOM     52  C   PRO d          -3.421  39.965  16.943  0.00  0.00     0.197 C 
ATOM     53  O   PRO d          -4.354  39.569  17.653  0.00  0.00    -0.646 OA
ATOM     54  OXT PRO d          -3.541  40.556  15.865  0.00  0.00    -0.646 OA
ENDBRANCH  50  52
BRANCH  50  55
ATOM     55  CB  PRO d          -1.681  40.929  18.539  0.00  0.00     0.003 C 
ATOM     56  H61 PRO d          -2.240  41.827  18.238  0.00  0.00     0.046 H 
ATOM     57  H62 PRO d          -0.601  41.127  18.468  0.00  0.00     0.046 H 
BRANCH  55  58
ATOM     58  CG  PRO d          -1.999  40.673  20.018  0.00  0.00     0.030 A 
ATOM     59  ND1 PRO d          -1.180  40.286  20.996  0.00  0.00    -0.353 N 
ATOM     60  CE1 PRO d          -1.892  40.125  22.090  0.00  0.00     0.063 A 
ATOM     61  H63 PRO d          -0.165  40.137  20.911  0.00  0.00     0.166 HD
ATOM     62  NE2 PRO d          -3.163  40.409  21.825  0.00  0.00    -0.254 NA
ATOM     63  H65 PRO d          -1.503  39.811  23.058  0.00  0.00     0.143 H 
ATOM     64  CD2 PRO d          -3.272  40.753  20.568  0.00  0.00     0.025 A 
ATOM     65  H64 PRO d          -4.186  41.046  20.053  0.00  0.00     0.117 H 
ENDBRANCH  55  58
ENDBRANCH  50  55
ENDBRANCH  48  50
ENDBRANCH  44  46
BRANCH  44  66
ATOM     66  CB  PRO d           0.114  40.506  13.892  0.00  0.00    -0.049 C 
ATOM     67  H56 PRO d           0.975  41.167  14.071  0.00  0.00     0.030 H 
ATOM     68  H57 PRO d          -0.800  40.982  14.275  0.00  0.00     0.030 H 
ATOM     69  H58 PRO d           0.009  40.325  12.812  0.00  0.00     0.030 H 
ENDBRANCH  44  66
ENDBRANCH  42  44
ENDBRANCH  27  40
ENDBRANCH  24  27
ENDBRANCH  21  24
ENDBRANCH   5  21
ENDBRANCH   3   5
BRANCH   1  70
ATOM     70  CA  PRO d           3.804  32.447  15.966  0.00  0.00     0.109 C 
ATOM     71  H29 PRO d           3.159  33.008  16.658  0.00  0.00     0.090 H 
BRANCH  70  72
ATOM     72  N   PRO d           3.957  31.075  16.478  0.00  0.00    -0.344 N 
ATOM     73  C   PRO d           2.961  30.327  16.965  0.00  0.00     0.241 C 
ATOM     74  O   PRO d           1.828  30.815  17.112  0.00  0.00    -0.271 OA
ATOM     75  H28 PRO d           4.873  30.673  16.460  0.00  0.00     0.163 HD
BRANCH  73  76
ATOM     76  CA  PRO d           3.304  28.927  17.481  0.00  0.00     0.089 C 
ATOM     77  H18 PRO d           3.250  28.250  16.616  0.00  0.00     0.087 H 
BRANCH  76  78
ATOM     78  N   PRO d           4.643  28.864  18.048  0.00  0.00    -0.346 N 
ATOM     79  C   PRO d           4.954  27.884  18.893  0.00  0.00     0.241 C 
ATOM     80  O   PRO d           4.145  26.982  19.135  0.00  0.00    -0.271 OA
ATOM     81  H17 PRO d           5.325  29.553  17.805  0.00  0.00     0.163 HD
BRANCH  79  82
ATOM     82  CA  PRO d           6.279  27.813  19.629  0.00  0.00     0.094 C 
ATOM     83  H11 PRO d           6.903  26.986  19.257  0.00  0.00     0.088 H 
BRANCH  82  84
ATOM     84  N   PRO d           6.951  29.102  19.402  0.00  0.00    -0.346 N 
ATOM     85  C   PRO d           8.262  29.365  19.609  0.00  0.00     0.249 C 
ATOM     86  O   PRO d           9.088  28.497  19.948  0.00  0.00    -0.271 OA
ATOM     87  H10 PRO d           6.387  29.854  19.063  0.00  0.00     0.163 HD
BRANCH  85  88
ATOM     88  CA  PRO d           8.796  30.792  19.412  0.00  0.00     0.178 C 
ATOM     89  N   PRO d           9.126  30.910  17.996  0.00  0.00    -0.062 N 
ATOM     90  CD  PRO d           8.748  32.254  17.559  0.00  0.00     0.083 C 
ATOM     91  H1  PRO d           8.615  30.221  17.467  0.00  0.00     0.278 HD
ATOM     92  H2  PRO d          10.115  30.772  17.863  0.00  0.00     0.278 HD
ATOM     93  CG  PRO d           8.318  33.016  18.816  0.00  0.00    -0.040 C 
ATOM     94  H8  PRO d           7.914  32.200  16.843  0.00  0.00     0.075 H 
ATOM     95  H9  PRO d           9.605  32.754  17.086  0.00  0.00     0.075 H 
ATOM     96  CB  PRO d           7.772  31.887  19.686  0.00  0.00    -0.028 C 
ATOM     97  H6  PRO d           9.174  33.514  19.296  0.00  0.00     0.035 H 
ATOM     98  H7  PRO d           7.541  33.760  18.589  0.00  0.00     0.035 H 
ATOM     99  H4  PRO d           7.754  32.168  20.749  0.00  0.00     0.036 H 
ATOM    100  H5  PRO d           6.762  31.585  19.370  0.00  0.00     0.036 H 
ATOM    101  H3  PRO d           9.682  30.946  20.045  0.00  0.00     0.099 H 
ENDBRANCH  85  88
ENDBRANCH  82  84
BRANCH  82 102
ATOM    102  CB  PRO d           5.937  27.597  21.094  0.00  0.00     0.002 C 
ATOM    103  H12 PRO d           6.702  26.947  21.543  0.00  0.00     0.046 H 
ATOM    104  H13 PRO d           4.955  27.107  21.159  0.00  0.00     0.046 H 
BRANCH 102 105
ATOM    105  CG  PRO d           5.885  28.885  21.866  0.00  0.00     0.030 A 
ATOM    106  ND1 PRO d           6.819  29.315  22.699  0.00  0.00    -0.353 N 
ATOM    107  CE1 PRO d           6.360  30.426  23.198  0.00  0.00     0.063 A 
ATOM    108  H14 PRO d           7.722  28.865  22.909  0.00  0.00     0.166 HD
ATOM    109  NE2 PRO d           5.175  30.701  22.692  0.00  0.00    -0.254 NA
ATOM    110  H16 PRO d           6.880  31.040  23.931  0.00  0.00     0.143 H 
ATOM    111  CD2 PRO d           4.832  29.772  21.852  0.00  0.00     0.025 A 
ATOM    112  H15 PRO d           3.915  29.709  21.266  0.00  0.00     0.117 H 
ENDBRANCH 102 105
ENDBRANCH  82 102
ENDBRANCH  79  82
ENDBRANCH  76  78
BRANCH  76 113
ATOM    113  CB  PRO d           2.376  28.360  18.600  0.00  0.00    -0.035 C 
ATOM    114  H19 PRO d           2.152  29.184  19.293  0.00  0.00     0.037 H 
ATOM    115  H20 PRO d           2.938  27.577  19.130  0.00  0.00     0.037 H 
BRANCH 113 116
ATOM    116  CG  PRO d           0.992  27.729  18.146  0.00  0.00    -0.059 C 
ATOM    117  H21 PRO d           0.557  28.350  17.349  0.00  0.00     0.038 H 
BRANCH 116 118
ATOM    118  CD1 PRO d           1.140  26.280  17.690  0.00  0.00    -0.073 C 
ATOM    119  H22 PRO d           1.241  25.627  18.570  0.00  0.00     0.028 H 
ATOM    120  H23 PRO d           2.034  26.184  17.058  0.00  0.00     0.028 H 
ATOM    121  H24 PRO d           0.250  25.984  17.114  0.00  0.00     0.028 H 
ENDBRANCH 116 118
BRANCH 116 122
ATOM    122  CD2 PRO d           0.035  27.589  19.318  0.00  0.00    -0.073 C 
ATOM    123  H25 PRO d          -0.220  28.587  19.705  0.00  0.00     0.028 H 
ATOM    124  H26 PRO d           0.514  26.999  20.114  0.00  0.00     0.028 H 
ATOM    125  H27 PRO d          -0.882  27.081  18.985  0.00  0.00     0.028 H 
ENDBRANCH 116 122
ENDBRANCH 113 116
ENDBRANCH  76 113
ENDBRANCH  73  76
ENDBRANCH  70  72
BRANCH  70 126
ATOM    126  CB  PRO d           5.185  33.170  15.864  0.00  0.00     0.044 C 
ATOM    127  H30 PRO d           5.554  33.334  16.888  0.00  0.00     0.077 H 
ATOM    128  H31 PRO d           5.019  34.141  15.375  0.00  0.00     0.077 H 
BRANCH 126 129
ATOM    129  OG  PRO d           6.211  32.486  15.136  0.00  0.00    -0.398 OA
ATOM    130  H32 PRO d           5.846  31.708  14.732  0.00  0.00     0.209 HD
ENDBRANCH 126 129
ENDBRANCH  70 126
ENDBRANCH   1  70
TORSDOF 33
ENDMDL
MODEL 4
REMARK VINA RESULT:      -5.7      3.214     11.450
REMARK WARNING: 32 MAX_TORS EXCEEDED!!!
REMARK  33 active torsions:
REMARK  status: ('A' for Active; 'I' for Inactive)
REMARK    1  A    between atoms: CA_2  and  C_3 
REMARK       I    between atoms: C_3  and  N_8 
REMARK    2  A    between atoms: N_8  and  CA_9 
REMARK    3  A    between atoms: CA_9  and  C_10 
REMARK    4  A    between atoms: CA_9  and  CB_12 
REMARK       I    between atoms: C_10  and  N_18 
REMARK    5  A    between atoms: CB_12  and  CG_13 
REMARK    6  A    between atoms: N_18  and  CA_19 
REMARK    7  A    between atoms: CA_19  and  C_20 
REMARK    8  A    between atoms: CA_19  and  CB_22 
REMARK       I    between atoms: C_20  and  N_26 
REMARK    9  A    between atoms: CB_22  and  CG_23 
REMARK   10  A    between atoms: CG_23  and  CD1_24 
REMARK   11  A    between atoms: CG_23  and  CD2_25 
REMARK   12  A    between atoms: N_26  and  CA_27 
REMARK   13  A    between atoms: CA_27  and  C_28 
REMARK   14  A    between atoms: CA_27  and  CB_30 
REMARK       I    between atoms: C_28  and  N_32 
REMARK   15  A    between atoms: CB_30  and  OG_31 
REMARK   16  A    between atoms: N_32  and  C1_33 
REMARK   17  A    between atoms: C1_33  and  C2_34 
REMARK   18  A    between atoms: C1_33  and  C9_41 
REMARK   19  A    between atoms: C2_34  and  C3_35 
REMARK   20  A    between atoms: C9_41  and  N2_42 
REMARK   21  A    between atoms: N2_42  and  C10_43 
REMARK   22  A    between atoms: C10_43  and  C11_44 
REMARK   23  A    between atoms: C10_43  and  C_48 
REMARK   24  A    between atoms: C11_44  and  C12_45 
REMARK   25  A    between atoms: C12_45  and  SD_46 
REMARK   26  A    between atoms: SD_46  and  C13_47 
REMARK       I    between atoms: C_48  and  N_50 
REMARK   27  A    between atoms: N_50  and  CA_51 
REMARK   28  A    between atoms: CA_51  and  C_52 
REMARK   29  A    between atoms: CA_51  and  CB_54 
REMARK       I    between atoms: C_52  and  N_55 
REMARK   30  A    between atoms: N_55  and  CA_56 
REMARK   31  A    between atoms: CA_56  and  C_57 
REMARK   32  A    between atoms: CA_56  and  CB_59 
REMARK   33  A    between atoms: CB_59  and  CG_60 
ROOT
ATOM      1  C   PRO d           1.284  28.692  20.220  0.00  0.00     0.242 C 
ATOM      2  O   PRO d           1.185  29.765  19.589  0.00  0.00    -0.271 OA
ATOM      3  N   PRO d           2.225  28.523  21.154  0.00  0.00    -0.353 N 
ATOM      4  H33 PRO d           2.334  27.622  21.573  0.00  0.00     0.163 HD
ENDROOT
BRANCH   3   5
ATOM      5  C1  PRO d           3.099  29.609  21.579  0.00  0.00     0.039 C 
ATOM      6  H34 PRO d           2.709  30.545  21.152  0.00  0.00     0.075 H 
BRANCH   5   7
ATOM      7  C2  PRO d           3.095  29.715  23.086  0.00  0.00    -0.021 C 
ATOM      8  H35 PRO d           4.144  29.770  23.412  0.00  0.00     0.043 H 
ATOM      9  H36 PRO d           2.638  28.794  23.477  0.00  0.00     0.043 H 
BRANCH   7  10
ATOM     10  C3  PRO d           2.360  30.891  23.724  0.00  0.00    -0.056 A 
ATOM     11  C4  PRO d           1.058  30.672  24.190  0.00  0.00    -0.077 A 
ATOM     12  C6  PRO d           0.354  31.709  24.799  0.00  0.00    -0.082 A 
ATOM     13  H37 PRO d           0.598  29.696  24.078  0.00  0.00     0.084 H 
ATOM     14  C8  PRO d           0.936  32.967  24.941  0.00  0.00    -0.083 A 
ATOM     15  H39 PRO d          -0.651  31.536  25.164  0.00  0.00     0.083 H 
ATOM     16  C7  PRO d           2.225  33.187  24.470  0.00  0.00    -0.082 A 
ATOM     17  H41 PRO d           0.386  33.771  25.418  0.00  0.00     0.083 H 
ATOM     18  C5  PRO d           2.941  32.158  23.868  0.00  0.00    -0.077 A 
ATOM     19  H40 PRO d           2.676  34.168  24.572  0.00  0.00     0.083 H 
ATOM     20  H38 PRO d           3.949  32.336  23.510  0.00  0.00     0.084 H 
ENDBRANCH   7  10
ENDBRANCH   5   7
BRANCH   5  21
ATOM     21  C9  PRO d           4.548  29.440  21.128  0.00  0.00     0.101 C 
ATOM     22  H42 PRO d           4.677  28.421  20.732  0.00  0.00     0.079 H 
ATOM     23  H43 PRO d           5.206  29.581  21.998  0.00  0.00     0.079 H 
BRANCH  21  24
ATOM     24  N2  PRO d           4.926  30.383  20.105  0.00  0.00    -0.060 N 
ATOM     25  H44 PRO d           5.502  31.091  20.534  0.00  0.00     0.278 HD
ATOM     26  H45 PRO d           4.084  30.806  19.747  0.00  0.00     0.278 HD
BRANCH  24  27
ATOM     27  C10 PRO d           5.669  29.824  18.969  0.00  0.00     0.178 C 
ATOM     28  H46 PRO d           6.295  30.623  18.544  0.00  0.00     0.099 H 
BRANCH  27  29
ATOM     29  C11 PRO d           6.588  28.693  19.484  0.00  0.00    -0.022 C 
ATOM     30  H47 PRO d           6.562  27.889  18.733  0.00  0.00     0.037 H 
ATOM     31  H48 PRO d           6.155  28.329  20.427  0.00  0.00     0.037 H 
BRANCH  29  32
ATOM     32  C12 PRO d           8.067  29.006  19.758  0.00  0.00    -0.021 C 
ATOM     33  H49 PRO d           8.673  28.207  19.303  0.00  0.00     0.049 H 
ATOM     34  H50 PRO d           8.218  29.004  20.847  0.00  0.00     0.049 H 
BRANCH  32  35
ATOM     35  SD  PRO d           8.657  30.589  19.116  0.00  0.00    -0.173 SA
BRANCH  35  36
ATOM     36  C13 PRO d           8.560  31.539  20.600  0.00  0.00    -0.035 C 
ATOM     37  H51 PRO d           8.132  30.922  21.402  0.00  0.00     0.041 H 
ATOM     38  H52 PRO d           7.921  32.418  20.431  0.00  0.00     0.041 H 
ATOM     39  H53 PRO d           9.568  31.869  20.890  0.00  0.00     0.041 H 
ENDBRANCH  35  36
ENDBRANCH  32  35
ENDBRANCH  29  32
ENDBRANCH  27  29
BRANCH  27  40
ATOM     40  C   PRO d           4.745  29.291  17.836  0.00  0.00     0.249 C 
ATOM     41  O   PRO d           4.965  28.173  17.342  0.00  0.00    -0.271 OA
ATOM     42  N   PRO d           3.668  29.985  17.469  0.00  0.00    -0.346 N 
ATOM     43  H54 PRO d           3.394  30.795  17.988  0.00  0.00     0.163 HD
BRANCH  42  44
ATOM     44  CA  PRO d           2.891  29.562  16.313  0.00  0.00     0.086 C 
ATOM     45  H55 PRO d           3.508  29.207  15.475  0.00  0.00     0.086 H 
BRANCH  44  46
ATOM     46  C   PRO d           2.225  30.912  16.052  0.00  0.00     0.240 C 
ATOM     47  O   PRO d           2.777  31.974  16.377  0.00  0.00    -0.271 OA
ATOM     48  N   PRO d           1.139  30.819  15.290  0.00  0.00    -0.344 N 
ATOM     49  H59 PRO d           0.825  29.913  15.010  0.00  0.00     0.163 HD
BRANCH  48  50
ATOM     50  CA  PRO d           0.387  31.986  14.850  0.00  0.00     0.101 C 
ATOM     51  H60 PRO d           0.762  32.879  15.370  0.00  0.00     0.090 H 
BRANCH  50  52
ATOM     52  C   PRO d          -1.093  31.819  15.179  0.00  0.00     0.197 C 
ATOM     53  O   PRO d          -1.428  30.770  15.746  0.00  0.00    -0.646 OA
ATOM     54  OXT PRO d          -1.836  32.778  14.946  0.00  0.00    -0.646 OA
ENDBRANCH  50  52
BRANCH  50  55
ATOM     55  CB  PRO d           0.623  32.153  13.323  0.00  0.00     0.003 C 
ATOM     56  H61 PRO d          -0.367  32.226  12.848  0.00  0.00     0.046 H 
ATOM     57  H62 PRO d           1.132  31.243  12.972  0.00  0.00     0.046 H 
BRANCH  55  58
ATOM     58  CG  PRO d           1.449  33.350  12.835  0.00  0.00     0.030 A 
ATOM     59  ND1 PRO d           1.259  34.119  11.762  0.00  0.00    -0.353 N 
ATOM     60  CE1 PRO d           2.246  34.985  11.695  0.00  0.00     0.063 A 
ATOM     61  H63 PRO d           0.473  34.047  11.100  0.00  0.00     0.166 HD
ATOM     62  NE2 PRO d           3.071  34.781  12.717  0.00  0.00    -0.254 NA
ATOM     63  H65 PRO d           2.369  35.745  10.925  0.00  0.00     0.143 H 
ATOM     64  CD2 PRO d           2.618  33.793  13.443  0.00  0.00     0.025 A 
ATOM     65  H64 PRO d           3.069  33.393  14.350  0.00  0.00     0.117 H 
ENDBRANCH  55  58
ENDBRANCH  50  55
ENDBRANCH  48  50
ENDBRANCH  44  46
BRANCH  44  66
ATOM     66  CB  PRO d           1.863  28.514  16.701  0.00  0.00    -0.049 C 
ATOM     67  H56 PRO d           0.863  28.846  16.385  0.00  0.00     0.030 H 
ATOM     68  H57 PRO d           1.875  28.375  17.791  0.00  0.00     0.030 H 
ATOM     69  H58 PRO d           2.107  27.561  16.206  0.00  0.00     0.030 H 
ENDBRANCH  44  66
ENDBRANCH  42  44
ENDBRANCH  27  40
ENDBRANCH  24  27
ENDBRANCH  21  24
ENDBRANCH   5  21
ENDBRANCH   3   5
BRANCH   1  70
ATOM     70  CA  PRO d           0.368  27.481  19.966  0.00  0.00     0.109 C 
ATOM     71  H29 PRO d           0.094  27.456  18.901  0.00  0.00     0.090 H 
BRANCH  70  72
ATOM     72  N   PRO d           1.066  26.229  20.299  0.00  0.00    -0.344 N 
ATOM     73  C   PRO d           1.621  25.404  19.403  0.00  0.00     0.241 C 
ATOM     74  O   PRO d           1.475  25.612  18.188  0.00  0.00    -0.271 OA
ATOM     75  H28 PRO d           1.130  25.976  21.264  0.00  0.00     0.163 HD
BRANCH  73  76
ATOM     76  CA  PRO d           2.286  24.128  19.924  0.00  0.00     0.089 C 
ATOM     77  H18 PRO d           3.294  24.096  19.485  0.00  0.00     0.087 H 
BRANCH  76  78
ATOM     78  N   PRO d           2.401  24.121  21.375  0.00  0.00    -0.346 N 
ATOM     79  C   PRO d           3.474  24.656  21.953  0.00  0.00     0.241 C 
ATOM     80  O   PRO d           4.332  25.230  21.275  0.00  0.00    -0.271 OA
ATOM     81  H17 PRO d           1.678  23.717  21.934  0.00  0.00     0.163 HD
BRANCH  79  82
ATOM     82  CA  PRO d           3.737  24.579  23.445  0.00  0.00     0.094 C 
ATOM     83  H11 PRO d           3.633  23.550  23.820  0.00  0.00     0.088 H 
BRANCH  82  84
ATOM     84  N   PRO d           5.111  25.061  23.652  0.00  0.00    -0.346 N 
ATOM     85  C   PRO d           5.467  26.269  24.147  0.00  0.00     0.249 C 
ATOM     86  O   PRO d           4.645  27.102  24.573  0.00  0.00    -0.271 OA
ATOM     87  H10 PRO d           5.853  24.438  23.404  0.00  0.00     0.163 HD
BRANCH  85  88
ATOM     88  CA  PRO d           6.951  26.660  24.217  0.00  0.00     0.178 C 
ATOM     89  N   PRO d           7.698  25.505  23.733  0.00  0.00    -0.062 N 
ATOM     90  CD  PRO d           8.820  25.999  22.935  0.00  0.00     0.083 C 
ATOM     91  H1  PRO d           7.101  24.925  23.164  0.00  0.00     0.278 HD
ATOM     92  H2  PRO d           8.044  24.970  24.514  0.00  0.00     0.278 HD
ATOM     93  CG  PRO d           8.822  27.524  23.085  0.00  0.00    -0.040 C 
ATOM     94  H8  PRO d           8.686  25.722  21.879  0.00  0.00     0.075 H 
ATOM     95  H9  PRO d           9.765  25.579  23.307  0.00  0.00     0.075 H 
ATOM     96  CB  PRO d           7.339  27.812  23.297  0.00  0.00    -0.028 C 
ATOM     97  H6  PRO d           9.421  27.841  23.952  0.00  0.00     0.035 H 
ATOM     98  H7  PRO d           9.201  28.017  22.177  0.00  0.00     0.035 H 
ATOM     99  H4  PRO d           7.182  28.787  23.781  0.00  0.00     0.036 H 
ATOM    100  H5  PRO d           6.781  27.779  22.350  0.00  0.00     0.036 H 
ATOM    101  H3  PRO d           7.220  26.907  25.254  0.00  0.00     0.099 H 
ENDBRANCH  85  88
ENDBRANCH  82  84
BRANCH  82 102
ATOM    102  CB  PRO d           2.709  25.486  24.102  0.00  0.00     0.002 C 
ATOM    103  H12 PRO d           2.401  26.253  23.377  0.00  0.00     0.046 H 
ATOM    104  H13 PRO d           3.170  25.970  24.975  0.00  0.00     0.046 H 
BRANCH 102 105
ATOM    105  CG  PRO d           1.489  24.735  24.556  0.00  0.00     0.030 A 
ATOM    106  ND1 PRO d           1.497  23.551  25.147  0.00  0.00    -0.353 N 
ATOM    107  CE1 PRO d           0.246  23.235  25.315  0.00  0.00     0.063 A 
ATOM    108  H14 PRO d           2.321  22.995  25.418  0.00  0.00     0.166 HD
ATOM    109  NE2 PRO d          -0.535  24.191  24.857  0.00  0.00    -0.254 NA
ATOM    110  H16 PRO d          -0.106  22.311  25.771  0.00  0.00     0.143 H 
ATOM    111  CD2 PRO d           0.190  25.154  24.373  0.00  0.00     0.025 A 
ATOM    112  H15 PRO d          -0.152  26.086  23.924  0.00  0.00     0.117 H 
ENDBRANCH 102 105
ENDBRANCH  82 102
ENDBRANCH  79  82
ENDBRANCH  76  78
BRANCH  76 113
ATOM    113  CB  PRO d           1.565  22.787  19.581  0.00  0.00    -0.035 C 
ATOM    114  H19 PRO d           2.342  22.025  19.419  0.00  0.00     0.037 H 
ATOM    115  H20 PRO d           1.003  22.943  18.649  0.00  0.00     0.037 H 
BRANCH 113 116
ATOM    116  CG  PRO d           0.551  22.211  20.659  0.00  0.00    -0.059 C 
ATOM    117  H21 PRO d           0.012  21.357  20.226  0.00  0.00     0.038 H 
BRANCH 116 118
ATOM    118  CD1 PRO d           1.251  21.817  21.957  0.00  0.00    -0.073 C 
ATOM    119  H22 PRO d           0.947  20.799  22.242  0.00  0.00     0.028 H 
ATOM    120  H23 PRO d           0.970  22.520  22.753  0.00  0.00     0.028 H 
ATOM    121  H24 PRO d           2.341  21.846  21.809  0.00  0.00     0.028 H 
ENDBRANCH 116 118
BRANCH 116 122
ATOM    122  CD2 PRO d          -0.413  23.283  21.141  0.00  0.00    -0.073 C 
ATOM    123  H25 PRO d           0.082  24.265  21.104  0.00  0.00     0.028 H 
ATOM    124  H26 PRO d          -0.718  23.064  22.175  0.00  0.00     0.028 H 
ATOM    125  H27 PRO d          -1.301  23.296  20.491  0.00  0.00     0.028 H 
ENDBRANCH 116 122
ENDBRANCH 113 116
ENDBRANCH  76 113
ENDBRANCH  73  76
ENDBRANCH  70  72
BRANCH  70 126
ATOM    126  CB  PRO d          -0.932  27.648  20.817  0.00  0.00     0.044 C 
ATOM    127  H30 PRO d          -1.372  26.650  20.956  0.00  0.00     0.077 H 
ATOM    128  H31 PRO d          -1.628  28.279  20.245  0.00  0.00     0.077 H 
BRANCH 126 129
ATOM    129  OG  PRO d          -0.774  28.238  22.113  0.00  0.00    -0.398 OA
ATOM    130  H32 PRO d          -0.544  27.563  22.740  0.00  0.00     0.209 HD
ENDBRANCH 126 129
ENDBRANCH  70 126
ENDBRANCH   1  70
TORSDOF 33
ENDMDL
MODEL 5
REMARK VINA RESULT:      -5.7      3.181      6.631
REMARK WARNING: 32 MAX_TORS EXCEEDED!!!
REMARK  33 active torsions:
REMARK  status: ('A' for Active; 'I' for Inactive)
REMARK    1  A    between atoms: CA_2  and  C_3 
REMARK       I    between atoms: C_3  and  N_8 
REMARK    2  A    between atoms: N_8  and  CA_9 
REMARK    3  A    between atoms: CA_9  and  C_10 
REMARK    4  A    between atoms: CA_9  and  CB_12 
REMARK       I    between atoms: C_10  and  N_18 
REMARK    5  A    between atoms: CB_12  and  CG_13 
REMARK    6  A    between atoms: N_18  and  CA_19 
REMARK    7  A    between atoms: CA_19  and  C_20 
REMARK    8  A    between atoms: CA_19  and  CB_22 
REMARK       I    between atoms: C_20  and  N_26 
REMARK    9  A    between atoms: CB_22  and  CG_23 
REMARK   10  A    between atoms: CG_23  and  CD1_24 
REMARK   11  A    between atoms: CG_23  and  CD2_25 
REMARK   12  A    between atoms: N_26  and  CA_27 
REMARK   13  A    between atoms: CA_27  and  C_28 
REMARK   14  A    between atoms: CA_27  and  CB_30 
REMARK       I    between atoms: C_28  and  N_32 
REMARK   15  A    between atoms: CB_30  and  OG_31 
REMARK   16  A    between atoms: N_32  and  C1_33 
REMARK   17  A    between atoms: C1_33  and  C2_34 
REMARK   18  A    between atoms: C1_33  and  C9_41 
REMARK   19  A    between atoms: C2_34  and  C3_35 
REMARK   20  A    between atoms: C9_41  and  N2_42 
REMARK   21  A    between atoms: N2_42  and  C10_43 
REMARK   22  A    between atoms: C10_43  and  C11_44 
REMARK   23  A    between atoms: C10_43  and  C_48 
REMARK   24  A    between atoms: C11_44  and  C12_45 
REMARK   25  A    between atoms: C12_45  and  SD_46 
REMARK   26  A    between atoms: SD_46  and  C13_47 
REMARK       I    between atoms: C_48  and  N_50 
REMARK   27  A    between atoms: N_50  and  CA_51 
REMARK   28  A    between atoms: CA_51  and  C_52 
REMARK   29  A    between atoms: CA_51  and  CB_54 
REMARK       I    between atoms: C_52  and  N_55 
REMARK   30  A    between atoms: N_55  and  CA_56 
REMARK   31  A    between atoms: CA_56  and  C_57 
REMARK   32  A    between atoms: CA_56  and  CB_59 
REMARK   33  A    between atoms: CB_59  and  CG_60 
ROOT
ATOM      1  C   PRO d           1.432  29.718  17.068  0.00  0.00     0.242 C 
ATOM      2  O   PRO d           2.327  28.847  17.033  0.00  0.00    -0.271 OA
ATOM      3  N   PRO d           0.421  29.637  17.938  0.00  0.00    -0.353 N 
ATOM      4  H33 PRO d          -0.325  30.300  17.877  0.00  0.00     0.163 HD
ENDROOT
BRANCH   3   5
ATOM      5  C1  PRO d           0.371  28.613  18.974  0.00  0.00     0.039 C 
ATOM      6  H34 PRO d           1.247  28.747  19.627  0.00  0.00     0.075 H 
BRANCH   5   7
ATOM      7  C2  PRO d          -0.887  28.770  19.796  0.00  0.00    -0.021 C 
ATOM      8  H35 PRO d          -0.652  29.454  20.625  0.00  0.00     0.043 H 
ATOM      9  H36 PRO d          -1.139  27.778  20.199  0.00  0.00     0.043 H 
BRANCH   7  10
ATOM     10  C3  PRO d          -2.137  29.308  19.104  0.00  0.00    -0.056 A 
ATOM     11  C4  PRO d          -2.208  30.686  18.865  0.00  0.00    -0.077 A 
ATOM     12  C6  PRO d          -3.319  31.222  18.218  0.00  0.00    -0.082 A 
ATOM     13  H37 PRO d          -1.400  31.335  19.184  0.00  0.00     0.084 H 
ATOM     14  C8  PRO d          -4.365  30.396  17.811  0.00  0.00    -0.083 A 
ATOM     15  H39 PRO d          -3.371  32.288  18.030  0.00  0.00     0.083 H 
ATOM     16  C7  PRO d          -4.298  29.029  18.056  0.00  0.00    -0.082 A 
ATOM     17  H41 PRO d          -5.226  30.817  17.305  0.00  0.00     0.083 H 
ATOM     18  C5  PRO d          -3.190  28.480  18.695  0.00  0.00    -0.077 A 
ATOM     19  H40 PRO d          -5.115  28.386  17.748  0.00  0.00     0.083 H 
ATOM     20  H38 PRO d          -3.143  27.413  18.875  0.00  0.00     0.084 H 
ENDBRANCH   7  10
ENDBRANCH   5   7
BRANCH   5  21
ATOM     21  C9  PRO d           0.394  27.187  18.424  0.00  0.00     0.101 C 
ATOM     22  H42 PRO d           1.397  26.765  18.583  0.00  0.00     0.079 H 
ATOM     23  H43 PRO d           0.177  27.222  17.347  0.00  0.00     0.079 H 
BRANCH  21  24
ATOM     24  N2  PRO d          -0.573  26.330  19.063  0.00  0.00    -0.060 N 
ATOM     25  H44 PRO d          -0.911  25.677  18.373  0.00  0.00     0.278 HD
ATOM     26  H45 PRO d          -1.336  26.907  19.382  0.00  0.00     0.278 HD
BRANCH  24  27
ATOM     27  C10 PRO d          -0.080  25.560  20.211  0.00  0.00     0.178 C 
ATOM     28  H46 PRO d          -0.135  26.202  21.103  0.00  0.00     0.099 H 
BRANCH  27  29
ATOM     29  C11 PRO d          -1.000  24.336  20.422  0.00  0.00    -0.022 C 
ATOM     30  H47 PRO d          -0.585  23.513  19.821  0.00  0.00     0.037 H 
ATOM     31  H48 PRO d          -1.993  24.608  20.035  0.00  0.00     0.037 H 
BRANCH  29  32
ATOM     32  C12 PRO d          -1.204  23.798  21.847  0.00  0.00    -0.021 C 
ATOM     33  H49 PRO d          -0.463  24.281  22.501  0.00  0.00     0.049 H 
ATOM     34  H50 PRO d          -1.024  22.713  21.828  0.00  0.00     0.049 H 
BRANCH  32  35
ATOM     35  SD  PRO d          -2.843  24.079  22.554  0.00  0.00    -0.173 SA
BRANCH  35  36
ATOM     36  C13 PRO d          -3.503  25.136  21.305  0.00  0.00    -0.035 C 
ATOM     37  H51 PRO d          -4.539  24.842  21.086  0.00  0.00     0.041 H 
ATOM     38  H52 PRO d          -2.896  25.047  20.392  0.00  0.00     0.041 H 
ATOM     39  H53 PRO d          -3.483  26.177  21.657  0.00  0.00     0.041 H 
ENDBRANCH  35  36
ENDBRANCH  32  35
ENDBRANCH  29  32
ENDBRANCH  27  29
BRANCH  27  40
ATOM     40  C   PRO d           1.397  25.098  20.049  0.00  0.00     0.249 C 
ATOM     41  O   PRO d           1.664  24.151  19.290  0.00  0.00    -0.271 OA
ATOM     42  N   PRO d           2.379  25.777  20.642  0.00  0.00    -0.346 N 
ATOM     43  H54 PRO d           2.181  26.640  21.106  0.00  0.00     0.163 HD
BRANCH  42  44
ATOM     44  CA  PRO d           3.740  25.260  20.613  0.00  0.00     0.086 C 
ATOM     45  H55 PRO d           3.865  24.388  19.955  0.00  0.00     0.086 H 
BRANCH  44  46
ATOM     46  C   PRO d           3.825  24.920  22.100  0.00  0.00     0.240 C 
ATOM     47  O   PRO d           3.744  23.748  22.496  0.00  0.00    -0.271 OA
ATOM     48  N   PRO d           4.184  25.956  22.853  0.00  0.00    -0.344 N 
ATOM     49  H59 PRO d           4.308  26.846  22.416  0.00  0.00     0.163 HD
BRANCH  48  50
ATOM     50  CA  PRO d           4.403  25.845  24.288  0.00  0.00     0.101 C 
ATOM     51  H60 PRO d           4.761  24.833  24.525  0.00  0.00     0.090 H 
BRANCH  50  52
ATOM     52  C   PRO d           3.100  26.087  25.043  0.00  0.00     0.197 C 
ATOM     53  O   PRO d           2.720  27.261  25.150  0.00  0.00    -0.646 OA
ATOM     54  OXT PRO d           2.466  25.092  25.411  0.00  0.00    -0.646 OA
ENDBRANCH  50  52
BRANCH  50  55
ATOM     55  CB  PRO d           5.497  26.876  24.682  0.00  0.00     0.003 C 
ATOM     56  H61 PRO d           5.584  26.854  25.778  0.00  0.00     0.046 H 
ATOM     57  H62 PRO d           5.142  27.866  24.361  0.00  0.00     0.046 H 
BRANCH  55  58
ATOM     58  CG  PRO d           6.911  26.697  24.113  0.00  0.00     0.030 A 
ATOM     59  ND1 PRO d           7.786  27.628  23.733  0.00  0.00    -0.353 N 
ATOM     60  CE1 PRO d           8.847  27.023  23.244  0.00  0.00     0.063 A 
ATOM     61  H63 PRO d           7.654  28.647  23.807  0.00  0.00     0.166 HD
ATOM     62  NE2 PRO d           8.663  25.708  23.309  0.00  0.00    -0.254 NA
ATOM     63  H65 PRO d           9.732  27.520  22.850  0.00  0.00     0.143 H 
ATOM     64  CD2 PRO d           7.493  25.464  23.839  0.00  0.00     0.025 A 
ATOM     65  H64 PRO d           7.058  24.484  24.029  0.00  0.00     0.117 H 
ENDBRANCH  55  58
ENDBRANCH  50  55
ENDBRANCH  48  50
ENDBRANCH  44  46
BRANCH  44  66
ATOM     66  CB  PRO d           4.729  26.352  20.246  0.00  0.00    -0.049 C 
ATOM     67  H56 PRO d           4.261  27.046  19.532  0.00  0.00     0.030 H 
ATOM     68  H57 PRO d           5.620  25.899  19.787  0.00  0.00     0.030 H 
ATOM     69  H58 PRO d           5.022  26.901  21.153  0.00  0.00     0.030 H 
ENDBRANCH  44  66
ENDBRANCH  42  44
ENDBRANCH  27  40
ENDBRANCH  24  27
ENDBRANCH  21  24
ENDBRANCH   5  21
ENDBRANCH   3   5
BRANCH   1  70
ATOM     70  CA  PRO d           1.397  30.924  16.112  0.00  0.00     0.109 C 
ATOM     71  H29 PRO d           0.788  31.722  16.563  0.00  0.00     0.090 H 
BRANCH  70  72
ATOM     72  N   PRO d           2.756  31.444  15.889  0.00  0.00    -0.344 N 
ATOM     73  C   PRO d           3.175  32.664  16.247  0.00  0.00     0.241 C 
ATOM     74  O   PRO d           2.370  33.489  16.709  0.00  0.00    -0.271 OA
ATOM     75  H28 PRO d           3.415  30.841  15.438  0.00  0.00     0.163 HD
BRANCH  73  76
ATOM     76  CA  PRO d           4.618  33.049  15.914  0.00  0.00     0.089 C 
ATOM     77  H18 PRO d           4.703  34.132  16.087  0.00  0.00     0.087 H 
BRANCH  76  78
ATOM     78  N   PRO d           5.580  32.358  16.760  0.00  0.00    -0.346 N 
ATOM     79  C   PRO d           6.032  32.951  17.863  0.00  0.00     0.241 C 
ATOM     80  O   PRO d           5.582  34.046  18.217  0.00  0.00    -0.271 OA
ATOM     81  H17 PRO d           5.899  31.443  16.515  0.00  0.00     0.163 HD
BRANCH  79  82
ATOM     82  CA  PRO d           7.128  32.361  18.732  0.00  0.00     0.094 C 
ATOM     83  H11 PRO d           7.813  33.139  19.100  0.00  0.00     0.088 H 
BRANCH  82  84
ATOM     84  N   PRO d           6.454  31.699  19.860  0.00  0.00    -0.346 N 
ATOM     85  C   PRO d           6.446  32.123  21.145  0.00  0.00     0.249 C 
ATOM     86  O   PRO d           6.956  33.197  21.512  0.00  0.00    -0.271 OA
ATOM     87  H10 PRO d           5.954  30.857  19.658  0.00  0.00     0.163 HD
BRANCH  85  88
ATOM     88  CA  PRO d           5.771  31.268  22.228  0.00  0.00     0.178 C 
ATOM     89  N   PRO d           4.471  31.880  22.476  0.00  0.00    -0.062 N 
ATOM     90  CD  PRO d           3.503  30.804  22.686  0.00  0.00     0.083 C 
ATOM     91  H1  PRO d           4.197  32.437  21.681  0.00  0.00     0.278 HD
ATOM     92  H2  PRO d           4.518  32.464  23.296  0.00  0.00     0.278 HD
ATOM     93  CG  PRO d           4.303  29.498  22.718  0.00  0.00    -0.040 C 
ATOM     94  H8  PRO d           2.773  30.783  21.864  0.00  0.00     0.075 H 
ATOM     95  H9  PRO d           2.975  30.950  23.640  0.00  0.00     0.075 H 
ATOM     96  CB  PRO d           5.474  29.836  21.800  0.00  0.00    -0.028 C 
ATOM     97  H6  PRO d           4.646  29.263  23.737  0.00  0.00     0.035 H 
ATOM     98  H7  PRO d           3.714  28.656  22.326  0.00  0.00     0.035 H 
ATOM     99  H4  PRO d           6.333  29.173  21.980  0.00  0.00     0.036 H 
ATOM    100  H5  PRO d           5.186  29.781  20.740  0.00  0.00     0.036 H 
ATOM    101  H3  PRO d           6.392  31.263  23.135  0.00  0.00     0.099 H 
ENDBRANCH  85  88
ENDBRANCH  82  84
BRANCH  82 102
ATOM    102  CB  PRO d           7.876  31.372  17.853  0.00  0.00     0.002 C 
ATOM    103  H12 PRO d           8.881  31.770  17.650  0.00  0.00     0.046 H 
ATOM    104  H13 PRO d           7.329  31.256  16.906  0.00  0.00     0.046 H 
BRANCH 102 105
ATOM    105  CG  PRO d           8.014  30.022  18.499  0.00  0.00     0.030 A 
ATOM    106  ND1 PRO d           7.164  29.017  18.357  0.00  0.00    -0.353 N 
ATOM    107  CE1 PRO d           7.615  28.066  19.123  0.00  0.00     0.063 A 
ATOM    108  H14 PRO d           6.321  28.993  17.765  0.00  0.00     0.166 HD
ATOM    109  NE2 PRO d           8.723  28.448  19.724  0.00  0.00    -0.254 NA
ATOM    110  H16 PRO d           7.143  27.093  19.249  0.00  0.00     0.143 H 
ATOM    111  CD2 PRO d           9.019  29.662  19.368  0.00  0.00     0.025 A 
ATOM    112  H15 PRO d           9.872  30.260  19.685  0.00  0.00     0.117 H 
ENDBRANCH 102 105
ENDBRANCH  82 102
ENDBRANCH  79  82
ENDBRANCH  76  78
BRANCH  76 113
ATOM    113  CB  PRO d           5.092  32.751  14.457  0.00  0.00    -0.035 C 
ATOM    114  H19 PRO d           5.114  31.657  14.335  0.00  0.00     0.037 H 
ATOM    115  H20 PRO d           6.110  33.153  14.352  0.00  0.00     0.037 H 
BRANCH 113 116
ATOM    116  CG  PRO d           4.218  33.346  13.274  0.00  0.00    -0.059 C 
ATOM    117  H21 PRO d           3.646  32.533  12.804  0.00  0.00     0.038 H 
BRANCH 116 118
ATOM    118  CD1 PRO d           3.293  34.464  13.745  0.00  0.00    -0.073 C 
ATOM    119  H22 PRO d           2.593  34.069  14.495  0.00  0.00     0.028 H 
ATOM    120  H23 PRO d           2.728  34.858  12.887  0.00  0.00     0.028 H 
ATOM    121  H24 PRO d           3.892  35.272  14.191  0.00  0.00     0.028 H 
ENDBRANCH 116 118
BRANCH 116 122
ATOM    122  CD2 PRO d           5.085  34.068  12.254  0.00  0.00    -0.073 C 
ATOM    123  H25 PRO d           5.956  33.445  12.006  0.00  0.00     0.028 H 
ATOM    124  H26 PRO d           5.426  35.025  12.677  0.00  0.00     0.028 H 
ATOM    125  H27 PRO d           4.498  34.258  11.343  0.00  0.00     0.028 H 
ENDBRANCH 116 122
ENDBRANCH 113 116
ENDBRANCH  76 113
ENDBRANCH  73  76
ENDBRANCH  70  72
BRANCH  70 126
ATOM    126  CB  PRO d           0.733  30.481  14.769  0.00  0.00     0.044 C 
ATOM    127  H30 PRO d           1.538  30.191  14.077  0.00  0.00     0.077 H 
ATOM    128  H31 PRO d           0.193  31.348  14.360  0.00  0.00     0.077 H 
BRANCH 126 129
ATOM    129  OG  PRO d          -0.190  29.389  14.844  0.00  0.00    -0.398 OA
ATOM    130  H32 PRO d          -0.263  28.978  13.991  0.00  0.00     0.209 HD
ENDBRANCH 126 129
ENDBRANCH  70 126
ENDBRANCH   1  70
TORSDOF 33
ENDMDL
MODEL 6
REMARK VINA RESULT:      -5.5      3.379      7.269
REMARK WARNING: 32 MAX_TORS EXCEEDED!!!
REMARK  33 active torsions:
REMARK  status: ('A' for Active; 'I' for Inactive)
REMARK    1  A    between atoms: CA_2  and  C_3 
REMARK       I    between atoms: C_3  and  N_8 
REMARK    2  A    between atoms: N_8  and  CA_9 
REMARK    3  A    between atoms: CA_9  and  C_10 
REMARK    4  A    between atoms: CA_9  and  CB_12 
REMARK       I    between atoms: C_10  and  N_18 
REMARK    5  A    between atoms: CB_12  and  CG_13 
REMARK    6  A    between atoms: N_18  and  CA_19 
REMARK    7  A    between atoms: CA_19  and  C_20 
REMARK    8  A    between atoms: CA_19  and  CB_22 
REMARK       I    between atoms: C_20  and  N_26 
REMARK    9  A    between atoms: CB_22  and  CG_23 
REMARK   10  A    between atoms: CG_23  and  CD1_24 
REMARK   11  A    between atoms: CG_23  and  CD2_25 
REMARK   12  A    between atoms: N_26  and  CA_27 
REMARK   13  A    between atoms: CA_27  and  C_28 
REMARK   14  A    between atoms: CA_27  and  CB_30 
REMARK       I    between atoms: C_28  and  N_32 
REMARK   15  A    between atoms: CB_30  and  OG_31 
REMARK   16  A    between atoms: N_32  and  C1_33 
REMARK   17  A    between atoms: C1_33  and  C2_34 
REMARK   18  A    between atoms: C1_33  and  C9_41 
REMARK   19  A    between atoms: C2_34  and  C3_35 
REMARK   20  A    between atoms: C9_41  and  N2_42 
REMARK   21  A    between atoms: N2_42  and  C10_43 
REMARK   22  A    between atoms: C10_43  and  C11_44 
REMARK   23  A    between atoms: C10_43  and  C_48 
REMARK   24  A    between atoms: C11_44  and  C12_45 
REMARK   25  A    between atoms: C12_45  and  SD_46 
REMARK   26  A    between atoms: SD_46  and  C13_47 
REMARK       I    between atoms: C_48  and  N_50 
REMARK   27  A    between atoms: N_50  and  CA_51 
REMARK   28  A    between atoms: CA_51  and  C_52 
REMARK   29  A    between atoms: CA_51  and  CB_54 
REMARK       I    between atoms: C_52  and  N_55 
REMARK   30  A    between atoms: N_55  and  CA_56 
REMARK   31  A    between atoms: CA_56  and  C_57 
REMARK   32  A    between atoms: CA_56  and  CB_59 
REMARK   33  A    between atoms: CB_59  and  CG_60 
ROOT
ATOM      1  C   PRO d           1.445  29.709  17.261  0.00  0.00     0.242 C 
ATOM      2  O   PRO d           2.249  28.755  17.187  0.00  0.00    -0.271 OA
ATOM      3  N   PRO d           0.483  29.730  18.189  0.00  0.00    -0.353 N 
ATOM      4  H33 PRO d          -0.199  30.461  18.162  0.00  0.00     0.163 HD
ENDROOT
BRANCH   3   5
ATOM      5  C1  PRO d           0.395  28.722  19.238  0.00  0.00     0.039 C 
ATOM      6  H34 PRO d           1.358  28.701  19.769  0.00  0.00     0.075 H 
BRANCH   5   7
ATOM      7  C2  PRO d          -0.700  29.085  20.213  0.00  0.00    -0.021 C 
ATOM      8  H35 PRO d          -1.464  28.296  20.154  0.00  0.00     0.043 H 
ATOM      9  H36 PRO d          -1.132  30.040  19.878  0.00  0.00     0.043 H 
BRANCH   7  10
ATOM     10  C3  PRO d          -0.329  29.248  21.685  0.00  0.00    -0.056 A 
ATOM     11  C4  PRO d          -1.349  29.113  22.634  0.00  0.00    -0.077 A 
ATOM     12  C6  PRO d          -1.056  29.232  23.991  0.00  0.00    -0.082 A 
ATOM     13  H37 PRO d          -2.366  28.916  22.313  0.00  0.00     0.084 H 
ATOM     14  C8  PRO d           0.248  29.492  24.410  0.00  0.00    -0.083 A 
ATOM     15  H39 PRO d          -1.845  29.122  24.724  0.00  0.00     0.083 H 
ATOM     16  C7  PRO d           1.259  29.636  23.467  0.00  0.00    -0.082 A 
ATOM     17  H41 PRO d           0.472  29.581  25.467  0.00  0.00     0.083 H 
ATOM     18  C5  PRO d           0.980  29.511  22.110  0.00  0.00    -0.077 A 
ATOM     19  H40 PRO d           2.272  29.847  23.791  0.00  0.00     0.083 H 
ATOM     20  H38 PRO d           1.776  29.617  21.381  0.00  0.00     0.084 H 
ENDBRANCH   7  10
ENDBRANCH   5   7
BRANCH   5  21
ATOM     21  C9  PRO d           0.103  27.317  18.712  0.00  0.00     0.101 C 
ATOM     22  H42 PRO d           0.990  26.688  18.878  0.00  0.00     0.079 H 
ATOM     23  H43 PRO d          -0.103  27.381  17.633  0.00  0.00     0.079 H 
BRANCH  21  24
ATOM     24  N2  PRO d          -1.027  26.704  19.363  0.00  0.00    -0.060 N 
ATOM     25  H44 PRO d          -1.584  26.251  18.655  0.00  0.00     0.278 HD
ATOM     26  H45 PRO d          -1.567  27.434  19.800  0.00  0.00     0.278 HD
BRANCH  24  27
ATOM     27  C10 PRO d          -0.703  25.706  20.390  0.00  0.00     0.178 C 
ATOM     28  H46 PRO d          -0.624  26.225  21.357  0.00  0.00     0.099 H 
BRANCH  27  29
ATOM     29  C11 PRO d          -1.859  24.682  20.469  0.00  0.00    -0.022 C 
ATOM     30  H47 PRO d          -2.001  24.438  21.533  0.00  0.00     0.037 H 
ATOM     31  H48 PRO d          -1.531  23.783  19.927  0.00  0.00     0.037 H 
BRANCH  29  32
ATOM     32  C12 PRO d          -3.235  25.070  19.907  0.00  0.00    -0.021 C 
ATOM     33  H49 PRO d          -3.819  24.147  19.770  0.00  0.00     0.049 H 
ATOM     34  H50 PRO d          -3.079  25.553  18.931  0.00  0.00     0.049 H 
BRANCH  32  35
ATOM     35  SD  PRO d          -4.204  26.196  20.937  0.00  0.00    -0.173 SA
BRANCH  35  36
ATOM     36  C13 PRO d          -3.957  25.416  22.500  0.00  0.00    -0.035 C 
ATOM     37  H51 PRO d          -4.796  24.736  22.707  0.00  0.00     0.041 H 
ATOM     38  H52 PRO d          -3.903  26.183  23.287  0.00  0.00     0.041 H 
ATOM     39  H53 PRO d          -3.018  24.845  22.481  0.00  0.00     0.041 H 
ENDBRANCH  35  36
ENDBRANCH  32  35
ENDBRANCH  29  32
ENDBRANCH  27  29
BRANCH  27  40
ATOM     40  C   PRO d           0.645  24.975  20.130  0.00  0.00     0.249 C 
ATOM     41  O   PRO d           0.709  24.101  19.250  0.00  0.00    -0.271 OA
ATOM     42  N   PRO d           1.746  25.353  20.779  0.00  0.00    -0.346 N 
ATOM     43  H54 PRO d           1.732  26.171  21.355  0.00  0.00     0.163 HD
BRANCH  42  44
ATOM     44  CA  PRO d           2.970  24.575  20.647  0.00  0.00     0.086 C 
ATOM     45  H55 PRO d           2.900  23.770  19.901  0.00  0.00     0.086 H 
BRANCH  44  46
ATOM     46  C   PRO d           3.007  24.070  22.088  0.00  0.00     0.240 C 
ATOM     47  O   PRO d           2.784  22.880  22.358  0.00  0.00    -0.271 OA
ATOM     48  N   PRO d           3.485  24.969  22.945  0.00  0.00    -0.344 N 
ATOM     49  H59 PRO d           3.717  25.879  22.604  0.00  0.00     0.163 HD
BRANCH  48  50
ATOM     50  CA  PRO d           3.682  24.680  24.358  0.00  0.00     0.101 C 
ATOM     51  H60 PRO d           3.943  23.618  24.479  0.00  0.00     0.090 H 
BRANCH  50  52
ATOM     52  C   PRO d           2.403  24.957  25.140  0.00  0.00     0.197 C 
ATOM     53  O   PRO d           2.129  26.143  25.368  0.00  0.00    -0.646 OA
ATOM     54  OXT PRO d           1.681  23.990  25.407  0.00  0.00    -0.646 OA
ENDBRANCH  50  52
BRANCH  50  55
ATOM     55  CB  PRO d           4.866  25.553  24.859  0.00  0.00     0.003 C 
ATOM     56  H61 PRO d           4.894  25.463  25.955  0.00  0.00     0.046 H 
ATOM     57  H62 PRO d           4.642  26.594  24.582  0.00  0.00     0.046 H 
BRANCH  55  58
ATOM     58  CG  PRO d           6.277  25.241  24.344  0.00  0.00     0.030 A 
ATOM     59  ND1 PRO d           6.862  25.631  23.212  0.00  0.00    -0.353 N 
ATOM     60  CE1 PRO d           8.051  25.074  23.148  0.00  0.00     0.063 A 
ATOM     61  H63 PRO d           6.453  26.261  22.507  0.00  0.00     0.166 HD
ATOM     62  NE2 PRO d           8.239  24.329  24.232  0.00  0.00    -0.254 NA
ATOM     63  H65 PRO d           8.767  25.203  22.337  0.00  0.00     0.143 H 
ATOM     64  CD2 PRO d           7.179  24.406  24.994  0.00  0.00     0.025 A 
ATOM     65  H64 PRO d           7.032  23.912  25.953  0.00  0.00     0.117 H 
ENDBRANCH  55  58
ENDBRANCH  50  55
ENDBRANCH  48  50
ENDBRANCH  44  46
BRANCH  44  66
ATOM     66  CB  PRO d           4.158  25.473  20.354  0.00  0.00    -0.049 C 
ATOM     67  H56 PRO d           3.952  26.071  19.453  0.00  0.00     0.030 H 
ATOM     68  H57 PRO d           5.052  24.856  20.187  0.00  0.00     0.030 H 
ATOM     69  H58 PRO d           4.330  26.145  21.208  0.00  0.00     0.030 H 
ENDBRANCH  44  66
ENDBRANCH  42  44
ENDBRANCH  27  40
ENDBRANCH  24  27
ENDBRANCH  21  24
ENDBRANCH   5  21
ENDBRANCH   3   5
BRANCH   1  70
ATOM     70  CA  PRO d           1.470  30.906  16.294  0.00  0.00     0.109 C 
ATOM     71  H29 PRO d           0.872  31.724  16.722  0.00  0.00     0.090 H 
BRANCH  70  72
ATOM     72  N   PRO d           2.849  31.385  16.105  0.00  0.00    -0.344 N 
ATOM     73  C   PRO d           3.272  32.623  16.386  0.00  0.00     0.241 C 
ATOM     74  O   PRO d           2.461  33.496  16.737  0.00  0.00    -0.271 OA
ATOM     75  H28 PRO d           3.519  30.738  15.740  0.00  0.00     0.163 HD
BRANCH  73  76
ATOM     76  CA  PRO d           4.738  32.959  16.102  0.00  0.00     0.089 C 
ATOM     77  H18 PRO d           4.892  33.999  16.424  0.00  0.00     0.087 H 
BRANCH  76  78
ATOM     78  N   PRO d           5.651  32.096  16.838  0.00  0.00    -0.346 N 
ATOM     79  C   PRO d           6.209  32.536  17.963  0.00  0.00     0.241 C 
ATOM     80  O   PRO d           5.896  33.635  18.432  0.00  0.00    -0.271 OA
ATOM     81  H17 PRO d           5.858  31.179  16.500  0.00  0.00     0.163 HD
BRANCH  79  82
ATOM     82  CA  PRO d           7.267  31.757  18.724  0.00  0.00     0.094 C 
ATOM     83  H11 PRO d           8.126  32.393  18.983  0.00  0.00     0.088 H 
BRANCH  82  84
ATOM     84  N   PRO d           6.617  31.254  19.944  0.00  0.00    -0.346 N 
ATOM     85  C   PRO d           6.849  31.683  21.207  0.00  0.00     0.249 C 
ATOM     86  O   PRO d           7.602  32.637  21.476  0.00  0.00    -0.271 OA
ATOM     87  H10 PRO d           5.940  30.527  19.830  0.00  0.00     0.163 HD
BRANCH  85  88
ATOM     88  CA  PRO d           6.155  30.991  22.389  0.00  0.00     0.178 C 
ATOM     89  N   PRO d           4.926  30.413  21.857  0.00  0.00    -0.062 N 
ATOM     90  CD  PRO d           4.724  29.117  22.502  0.00  0.00     0.083 C 
ATOM     91  H1  PRO d           5.010  30.291  20.859  0.00  0.00     0.278 HD
ATOM     92  H2  PRO d           4.147  31.021  22.057  0.00  0.00     0.278 HD
ATOM     93  CG  PRO d           5.804  28.996  23.582  0.00  0.00    -0.040 C 
ATOM     94  H8  PRO d           4.828  28.306  21.768  0.00  0.00     0.075 H 
ATOM     95  H9  PRO d           3.724  29.072  22.959  0.00  0.00     0.075 H 
ATOM     96  CB  PRO d           6.935  29.821  22.976  0.00  0.00    -0.028 C 
ATOM     97  H6  PRO d           5.465  29.420  24.539  0.00  0.00     0.035 H 
ATOM     98  H7  PRO d           6.106  27.949  23.732  0.00  0.00     0.035 H 
ATOM     99  H4  PRO d           7.648  30.154  23.744  0.00  0.00     0.036 H 
ATOM    100  H5  PRO d           7.472  29.260  22.197  0.00  0.00     0.036 H 
ATOM    101  H3  PRO d           5.943  31.728  23.176  0.00  0.00     0.099 H 
ENDBRANCH  85  88
ENDBRANCH  82  84
BRANCH  82 102
ATOM    102  CB  PRO d           7.704  30.629  17.803  0.00  0.00     0.002 C 
ATOM    103  H12 PRO d           8.801  30.640  17.729  0.00  0.00     0.046 H 
ATOM    104  H13 PRO d           7.267  30.796  16.808  0.00  0.00     0.046 H 
BRANCH 102 105
ATOM    105  CG  PRO d           7.267  29.281  18.301  0.00  0.00     0.030 A 
ATOM    106  ND1 PRO d           7.874  28.582  19.246  0.00  0.00    -0.353 N 
ATOM    107  CE1 PRO d           7.219  27.460  19.329  0.00  0.00     0.063 A 
ATOM    108  H14 PRO d           8.695  28.865  19.801  0.00  0.00     0.166 HD
ATOM    109  NE2 PRO d           6.218  27.449  18.472  0.00  0.00    -0.254 NA
ATOM    110  H16 PRO d           7.463  26.647  20.010  0.00  0.00     0.143 H 
ATOM    111  CD2 PRO d           6.200  28.564  17.806  0.00  0.00     0.025 A 
ATOM    112  H15 PRO d           5.499  28.865  17.029  0.00  0.00     0.117 H 
ENDBRANCH 102 105
ENDBRANCH  82 102
ENDBRANCH  79  82
ENDBRANCH  76  78
BRANCH  76 113
ATOM    113  CB  PRO d           5.196  32.837  14.615  0.00  0.00    -0.035 C 
ATOM    114  H19 PRO d           5.276  31.765  14.381  0.00  0.00     0.037 H 
ATOM    115  H20 PRO d           6.188  33.305  14.535  0.00  0.00     0.037 H 
BRANCH 113 116
ATOM    116  CG  PRO d           4.266  33.499  13.512  0.00  0.00    -0.059 C 
ATOM    117  H21 PRO d           3.399  32.847  13.334  0.00  0.00     0.038 H 
BRANCH 116 118
ATOM    118  CD1 PRO d           3.822  34.906  13.900  0.00  0.00    -0.073 C 
ATOM    119  H22 PRO d           2.738  34.911  14.085  0.00  0.00     0.028 H 
ATOM    120  H23 PRO d           4.058  35.603  13.083  0.00  0.00     0.028 H 
ATOM    121  H24 PRO d           4.351  35.219  14.813  0.00  0.00     0.028 H 
ENDBRANCH 116 118
BRANCH 116 122
ATOM    122  CD2 PRO d           5.032  33.759  12.225  0.00  0.00    -0.073 C 
ATOM    123  H25 PRO d           5.320  34.819  12.177  0.00  0.00     0.028 H 
ATOM    124  H26 PRO d           4.393  33.513  11.363  0.00  0.00     0.028 H 
ATOM    125  H27 PRO d           5.935  33.132  12.203  0.00  0.00     0.028 H 
ENDBRANCH 116 122
ENDBRANCH 113 116
ENDBRANCH  76 113
ENDBRANCH  73  76
ENDBRANCH  70  72
BRANCH  70 126
ATOM    126  CB  PRO d           0.831  30.469  14.938  0.00  0.00     0.044 C 
ATOM    127  H30 PRO d          -0.095  29.919  15.165  0.00  0.00     0.077 H 
ATOM    128  H31 PRO d           1.541  29.798  14.434  0.00  0.00     0.077 H 
BRANCH 126 129
ATOM    129  OG  PRO d           0.500  31.519  14.022  0.00  0.00    -0.398 OA
ATOM    130  H32 PRO d           1.179  31.588  13.361  0.00  0.00     0.209 HD
ENDBRANCH 126 129
ENDBRANCH  70 126
ENDBRANCH   1  70
TORSDOF 33
ENDMDL
MODEL 7
REMARK VINA RESULT:      -5.5      2.781     11.740
REMARK WARNING: 32 MAX_TORS EXCEEDED!!!
REMARK  33 active torsions:
REMARK  status: ('A' for Active; 'I' for Inactive)
REMARK    1  A    between atoms: CA_2  and  C_3 
REMARK       I    between atoms: C_3  and  N_8 
REMARK    2  A    between atoms: N_8  and  CA_9 
REMARK    3  A    between atoms: CA_9  and  C_10 
REMARK    4  A    between atoms: CA_9  and  CB_12 
REMARK       I    between atoms: C_10  and  N_18 
REMARK    5  A    between atoms: CB_12  and  CG_13 
REMARK    6  A    between atoms: N_18  and  CA_19 
REMARK    7  A    between atoms: CA_19  and  C_20 
REMARK    8  A    between atoms: CA_19  and  CB_22 
REMARK       I    between atoms: C_20  and  N_26 
REMARK    9  A    between atoms: CB_22  and  CG_23 
REMARK   10  A    between atoms: CG_23  and  CD1_24 
REMARK   11  A    between atoms: CG_23  and  CD2_25 
REMARK   12  A    between atoms: N_26  and  CA_27 
REMARK   13  A    between atoms: CA_27  and  C_28 
REMARK   14  A    between atoms: CA_27  and  CB_30 
REMARK       I    between atoms: C_28  and  N_32 
REMARK   15  A    between atoms: CB_30  and  OG_31 
REMARK   16  A    between atoms: N_32  and  C1_33 
REMARK   17  A    between atoms: C1_33  and  C2_34 
REMARK   18  A    between atoms: C1_33  and  C9_41 
REMARK   19  A    between atoms: C2_34  and  C3_35 
REMARK   20  A    between atoms: C9_41  and  N2_42 
REMARK   21  A    between atoms: N2_42  and  C10_43 
REMARK   22  A    between atoms: C10_43  and  C11_44 
REMARK   23  A    between atoms: C10_43  and  C_48 
REMARK   24  A    between atoms: C11_44  and  C12_45 
REMARK   25  A    between atoms: C12_45  and  SD_46 
REMARK   26  A    between atoms: SD_46  and  C13_47 
REMARK       I    between atoms: C_48  and  N_50 
REMARK   27  A    between atoms: N_50  and  CA_51 
REMARK   28  A    between atoms: CA_51  and  C_52 
REMARK   29  A    between atoms: CA_51  and  CB_54 
REMARK       I    between atoms: C_52  and  N_55 
REMARK   30  A    between atoms: N_55  and  CA_56 
REMARK   31  A    between atoms: CA_56  and  C_57 
REMARK   32  A    between atoms: CA_56  and  CB_59 
REMARK   33  A    between atoms: CB_59  and  CG_60 
ROOT
ATOM      1  C   PRO d           5.803  32.870  17.161  0.00  0.00     0.242 C 
ATOM      2  O   PRO d           5.307  33.767  17.875  0.00  0.00    -0.271 OA
ATOM      3  N   PRO d           5.206  32.475  16.032  0.00  0.00    -0.353 N 
ATOM      4  H33 PRO d           5.581  31.694  15.534  0.00  0.00     0.163 HD
ENDROOT
BRANCH   3   5
ATOM      5  C1  PRO d           4.025  33.147  15.504  0.00  0.00     0.039 C 
ATOM      6  H34 PRO d           4.022  34.178  15.888  0.00  0.00     0.075 H 
BRANCH   5   7
ATOM      7  C2  PRO d           4.082  33.181  13.995  0.00  0.00    -0.021 C 
ATOM      8  H35 PRO d           3.489  32.330  13.627  0.00  0.00     0.043 H 
ATOM      9  H36 PRO d           5.134  33.048  13.705  0.00  0.00     0.043 H 
BRANCH   7  10
ATOM     10  C3  PRO d           3.571  34.431  13.282  0.00  0.00    -0.056 A 
ATOM     11  C4  PRO d           4.329  35.602  13.395  0.00  0.00    -0.077 A 
ATOM     12  C6  PRO d           3.914  36.763  12.746  0.00  0.00    -0.082 A 
ATOM     13  H37 PRO d           5.237  35.606  13.987  0.00  0.00     0.084 H 
ATOM     14  C8  PRO d           2.744  36.768  11.988  0.00  0.00    -0.083 A 
ATOM     15  H39 PRO d           4.504  37.668  12.830  0.00  0.00     0.083 H 
ATOM     16  C7  PRO d           1.986  35.607  11.885  0.00  0.00    -0.082 A 
ATOM     17  H41 PRO d           2.426  37.673  11.482  0.00  0.00     0.083 H 
ATOM     18  C5  PRO d           2.394  34.439  12.521  0.00  0.00    -0.077 A 
ATOM     19  H40 PRO d           1.071  35.611  11.303  0.00  0.00     0.083 H 
ATOM     20  H38 PRO d           1.801  33.536  12.429  0.00  0.00     0.084 H 
ENDBRANCH   7  10
ENDBRANCH   5   7
BRANCH   5  21
ATOM     21  C9  PRO d           2.711  32.479  15.906  0.00  0.00     0.101 C 
ATOM     22  H42 PRO d           2.137  33.179  16.531  0.00  0.00     0.079 H 
ATOM     23  H43 PRO d           2.941  31.573  16.487  0.00  0.00     0.079 H 
BRANCH  21  24
ATOM     24  N2  PRO d           1.907  32.107  14.770  0.00  0.00    -0.060 N 
ATOM     25  H44 PRO d           2.519  31.718  14.070  0.00  0.00     0.278 HD
ATOM     26  H45 PRO d           1.473  32.943  14.410  0.00  0.00     0.278 HD
BRANCH  24  27
ATOM     27  C10 PRO d           0.846  31.128  15.036  0.00  0.00     0.178 C 
ATOM     28  H46 PRO d           1.036  30.240  14.415  0.00  0.00     0.099 H 
BRANCH  27  29
ATOM     29  C11 PRO d           0.912  30.715  16.525  0.00  0.00    -0.022 C 
ATOM     30  H47 PRO d           0.347  31.468  17.094  0.00  0.00     0.037 H 
ATOM     31  H48 PRO d           1.971  30.748  16.822  0.00  0.00     0.037 H 
BRANCH  29  32
ATOM     32  C12 PRO d           0.371  29.338  16.938  0.00  0.00    -0.021 C 
ATOM     33  H49 PRO d           0.479  28.659  16.078  0.00  0.00     0.049 H 
ATOM     34  H50 PRO d          -0.695  29.451  17.183  0.00  0.00     0.049 H 
BRANCH  32  35
ATOM     35  SD  PRO d           1.192  28.576  18.356  0.00  0.00    -0.173 SA
BRANCH  35  36
ATOM     36  C13 PRO d           2.216  27.426  17.495  0.00  0.00    -0.035 C 
ATOM     37  H51 PRO d           1.615  26.888  16.748  0.00  0.00     0.041 H 
ATOM     38  H52 PRO d           2.643  26.708  18.210  0.00  0.00     0.041 H 
ATOM     39  H53 PRO d           3.030  27.967  16.990  0.00  0.00     0.041 H 
ENDBRANCH  35  36
ENDBRANCH  32  35
ENDBRANCH  29  32
ENDBRANCH  27  29
BRANCH  27  40
ATOM     40  C   PRO d          -0.577  31.656  14.689  0.00  0.00     0.249 C 
ATOM     41  O   PRO d          -1.565  30.933  14.896  0.00  0.00    -0.271 OA
ATOM     42  N   PRO d          -0.740  32.910  14.270  0.00  0.00    -0.346 N 
ATOM     43  H54 PRO d           0.033  33.544  14.274  0.00  0.00     0.163 HD
BRANCH  42  44
ATOM     44  CA  PRO d          -2.046  33.356  13.805  0.00  0.00     0.086 C 
ATOM     45  H55 PRO d          -2.626  32.568  13.303  0.00  0.00     0.086 H 
BRANCH  44  46
ATOM     46  C   PRO d          -1.530  34.434  12.854  0.00  0.00     0.240 C 
ATOM     47  O   PRO d          -1.092  34.144  11.731  0.00  0.00    -0.271 OA
ATOM     48  N   PRO d          -1.788  35.669  13.276  0.00  0.00    -0.344 N 
ATOM     49  H59 PRO d          -2.226  35.790  14.166  0.00  0.00     0.163 HD
BRANCH  48  50
ATOM     50  CA  PRO d          -1.456  36.851  12.494  0.00  0.00     0.101 C 
ATOM     51  H60 PRO d          -0.685  36.593  11.753  0.00  0.00     0.090 H 
BRANCH  50  52
ATOM     52  C   PRO d          -0.910  37.950  13.399  0.00  0.00     0.197 C 
ATOM     53  O   PRO d          -1.440  38.080  14.510  0.00  0.00    -0.646 OA
ATOM     54  OXT PRO d           0.083  38.569  13.002  0.00  0.00    -0.646 OA
ENDBRANCH  50  52
BRANCH  50  55
ATOM     55  CB  PRO d          -2.743  37.304  11.749  0.00  0.00     0.003 C 
ATOM     56  H61 PRO d          -3.508  37.501  12.514  0.00  0.00     0.046 H 
ATOM     57  H62 PRO d          -3.064  36.463  11.117  0.00  0.00     0.046 H 
BRANCH  55  58
ATOM     58  CG  PRO d          -2.672  38.544  10.850  0.00  0.00     0.030 A 
ATOM     59  ND1 PRO d          -1.961  38.735   9.738  0.00  0.00    -0.353 N 
ATOM     60  CE1 PRO d          -2.152  39.971   9.333  0.00  0.00     0.063 A 
ATOM     61  H63 PRO d          -1.363  38.035   9.276  0.00  0.00     0.166 HD
ATOM     62  NE2 PRO d          -2.983  40.579  10.173  0.00  0.00    -0.254 NA
ATOM     63  H65 PRO d          -1.702  40.424   8.451  0.00  0.00     0.143 H 
ATOM     64  CD2 PRO d          -3.330  39.740  11.115  0.00  0.00     0.025 A 
ATOM     65  H64 PRO d          -4.004  39.940  11.946  0.00  0.00     0.117 H 
ENDBRANCH  55  58
ENDBRANCH  50  55
ENDBRANCH  48  50
ENDBRANCH  44  46
BRANCH  44  66
ATOM     66  CB  PRO d          -2.848  33.968  14.939  0.00  0.00    -0.049 C 
ATOM     67  H56 PRO d          -2.543  33.511  15.893  0.00  0.00     0.030 H 
ATOM     68  H57 PRO d          -3.919  33.783  14.772  0.00  0.00     0.030 H 
ATOM     69  H58 PRO d          -2.663  35.052  14.977  0.00  0.00     0.030 H 
ENDBRANCH  44  66
ENDBRANCH  42  44
ENDBRANCH  27  40
ENDBRANCH  24  27
ENDBRANCH  21  24
ENDBRANCH   5  21
ENDBRANCH   3   5
BRANCH   1  70
ATOM     70  CA  PRO d           7.105  32.134  17.523  0.00  0.00     0.109 C 
ATOM     71  H29 PRO d           7.856  32.870  17.845  0.00  0.00     0.090 H 
BRANCH  70  72
ATOM     72  N   PRO d           6.872  31.190  18.628  0.00  0.00    -0.344 N 
ATOM     73  C   PRO d           5.881  30.292  18.668  0.00  0.00     0.241 C 
ATOM     74  O   PRO d           5.010  30.283  17.783  0.00  0.00    -0.271 OA
ATOM     75  H28 PRO d           7.501  31.222  19.405  0.00  0.00     0.163 HD
BRANCH  73  76
ATOM     76  CA  PRO d           5.772  29.404  19.910  0.00  0.00     0.089 C 
ATOM     77  H18 PRO d           6.016  30.038  20.774  0.00  0.00     0.087 H 
BRANCH  76  78
ATOM     78  N   PRO d           4.431  28.864  20.083  0.00  0.00    -0.346 N 
ATOM     79  C   PRO d           3.894  28.814  21.300  0.00  0.00     0.241 C 
ATOM     80  O   PRO d           4.489  29.295  22.270  0.00  0.00    -0.271 OA
ATOM     81  H17 PRO d           3.917  28.534  19.293  0.00  0.00     0.163 HD
BRANCH  79  82
ATOM     82  CA  PRO d           2.560  28.153  21.590  0.00  0.00     0.094 C 
ATOM     83  H11 PRO d           1.739  28.647  21.049  0.00  0.00     0.088 H 
BRANCH  82  84
ATOM     84  N   PRO d           2.685  26.752  21.158  0.00  0.00    -0.346 N 
ATOM     85  C   PRO d           1.669  25.875  20.988  0.00  0.00     0.249 C 
ATOM     86  O   PRO d           0.470  26.189  21.105  0.00  0.00    -0.271 OA
ATOM     87  H10 PRO d           3.608  26.416  20.971  0.00  0.00     0.163 HD
BRANCH  85  88
ATOM     88  CA  PRO d           1.972  24.415  20.620  0.00  0.00     0.178 C 
ATOM     89  N   PRO d           1.239  23.594  21.576  0.00  0.00    -0.062 N 
ATOM     90  CD  PRO d           0.714  22.432  20.861  0.00  0.00     0.083 C 
ATOM     91  H1  PRO d           0.479  24.125  21.972  0.00  0.00     0.278 HD
ATOM     92  H2  PRO d           1.858  23.291  22.313  0.00  0.00     0.278 HD
ATOM     93  CG  PRO d           1.298  22.492  19.445  0.00  0.00    -0.040 C 
ATOM     94  H8  PRO d          -0.384  22.474  20.821  0.00  0.00     0.075 H 
ATOM     95  H9  PRO d           1.027  21.504  21.361  0.00  0.00     0.075 H 
ATOM     96  CB  PRO d           1.460  23.996  19.246  0.00  0.00    -0.028 C 
ATOM     97  H6  PRO d           2.267  21.973  19.388  0.00  0.00     0.035 H 
ATOM     98  H7  PRO d           0.607  22.062  18.706  0.00  0.00     0.035 H 
ATOM     99  H4  PRO d           2.190  24.224  18.456  0.00  0.00     0.036 H 
ATOM    100  H5  PRO d           0.500  24.479  19.008  0.00  0.00     0.036 H 
ATOM    101  H3  PRO d           3.055  24.235  20.683  0.00  0.00     0.099 H 
ENDBRANCH  85  88
ENDBRANCH  82  84
BRANCH  82 102
ATOM    102  CB  PRO d           2.348  28.270  23.091  0.00  0.00     0.002 C 
ATOM    103  H12 PRO d           3.038  29.030  23.486  0.00  0.00     0.046 H 
ATOM    104  H13 PRO d           2.568  27.298  23.556  0.00  0.00     0.046 H 
BRANCH 102 105
ATOM    105  CG  PRO d           0.942  28.665  23.443  0.00  0.00     0.030 A 
ATOM    106  ND1 PRO d          -0.032  27.826  23.757  0.00  0.00    -0.353 N 
ATOM    107  CE1 PRO d          -1.090  28.564  23.928  0.00  0.00     0.063 A 
ATOM    108  H14 PRO d           0.033  26.801  23.847  0.00  0.00     0.166 HD
ATOM    109  NE2 PRO d          -0.798  29.835  23.741  0.00  0.00    -0.254 NA
ATOM    110  H16 PRO d          -2.076  28.186  24.189  0.00  0.00     0.143 H 
ATOM    111  CD2 PRO d           0.460  29.955  23.437  0.00  0.00     0.025 A 
ATOM    112  H15 PRO d           1.010  30.871  23.226  0.00  0.00     0.117 H 
ENDBRANCH 102 105
ENDBRANCH  82 102
ENDBRANCH  79  82
ENDBRANCH  76  78
BRANCH  76 113
ATOM    113  CB  PRO d           6.706  28.153  19.946  0.00  0.00    -0.035 C 
ATOM    114  H19 PRO d           7.337  28.186  19.045  0.00  0.00     0.037 H 
ATOM    115  H20 PRO d           6.064  27.261  19.911  0.00  0.00     0.037 H 
BRANCH 113 116
ATOM    116  CG  PRO d           7.668  28.001  21.198  0.00  0.00    -0.059 C 
ATOM    117  H21 PRO d           7.201  27.328  21.932  0.00  0.00     0.038 H 
BRANCH 116 118
ATOM    118  CD1 PRO d           9.055  27.502  20.804  0.00  0.00    -0.073 C 
ATOM    119  H22 PRO d           9.558  27.079  21.686  0.00  0.00     0.028 H 
ATOM    120  H23 PRO d           9.648  28.341  20.411  0.00  0.00     0.028 H 
ATOM    121  H24 PRO d           8.959  26.727  20.029  0.00  0.00     0.028 H 
ENDBRANCH 116 118
BRANCH 116 122
ATOM    122  CD2 PRO d           7.989  29.352  21.818  0.00  0.00    -0.073 C 
ATOM    123  H25 PRO d           7.416  30.137  21.303  0.00  0.00     0.028 H 
ATOM    124  H26 PRO d           9.066  29.555  21.716  0.00  0.00     0.028 H 
ATOM    125  H27 PRO d           7.717  29.340  22.884  0.00  0.00     0.028 H 
ENDBRANCH 116 122
ENDBRANCH 113 116
ENDBRANCH  76 113
ENDBRANCH  73  76
ENDBRANCH  70  72
BRANCH  70 126
ATOM    126  CB  PRO d           7.635  31.397  16.251  0.00  0.00     0.044 C 
ATOM    127  H30 PRO d           6.846  31.441  15.485  0.00  0.00     0.077 H 
ATOM    128  H31 PRO d           7.821  30.349  16.525  0.00  0.00     0.077 H 
BRANCH 126 129
ATOM    129  OG  PRO d           8.836  31.915  15.668  0.00  0.00    -0.398 OA
ATOM    130  H32 PRO d           8.931  32.831  15.903  0.00  0.00     0.209 HD
ENDBRANCH 126 129
ENDBRANCH  70 126
ENDBRANCH   1  70
TORSDOF 33
ENDMDL
MODEL 8
REMARK VINA RESULT:      -5.4      2.495     10.994
REMARK WARNING: 32 MAX_TORS EXCEEDED!!!
REMARK  33 active torsions:
REMARK  status: ('A' for Active; 'I' for Inactive)
REMARK    1  A    between atoms: CA_2  and  C_3 
REMARK       I    between atoms: C_3  and  N_8 
REMARK    2  A    between atoms: N_8  and  CA_9 
REMARK    3  A    between atoms: CA_9  and  C_10 
REMARK    4  A    between atoms: CA_9  and  CB_12 
REMARK       I    between atoms: C_10  and  N_18 
REMARK    5  A    between atoms: CB_12  and  CG_13 
REMARK    6  A    between atoms: N_18  and  CA_19 
REMARK    7  A    between atoms: CA_19  and  C_20 
REMARK    8  A    between atoms: CA_19  and  CB_22 
REMARK       I    between atoms: C_20  and  N_26 
REMARK    9  A    between atoms: CB_22  and  CG_23 
REMARK   10  A    between atoms: CG_23  and  CD1_24 
REMARK   11  A    between atoms: CG_23  and  CD2_25 
REMARK   12  A    between atoms: N_26  and  CA_27 
REMARK   13  A    between atoms: CA_27  and  C_28 
REMARK   14  A    between atoms: CA_27  and  CB_30 
REMARK       I    between atoms: C_28  and  N_32 
REMARK   15  A    between atoms: CB_30  and  OG_31 
REMARK   16  A    between atoms: N_32  and  C1_33 
REMARK   17  A    between atoms: C1_33  and  C2_34 
REMARK   18  A    between atoms: C1_33  and  C9_41 
REMARK   19  A    between atoms: C2_34  and  C3_35 
REMARK   20  A    between atoms: C9_41  and  N2_42 
REMARK   21  A    between atoms: N2_42  and  C10_43 
REMARK   22  A    between atoms: C10_43  and  C11_44 
REMARK   23  A    between atoms: C10_43  and  C_48 
REMARK   24  A    between atoms: C11_44  and  C12_45 
REMARK   25  A    between atoms: C12_45  and  SD_46 
REMARK   26  A    between atoms: SD_46  and  C13_47 
REMARK       I    between atoms: C_48  and  N_50 
REMARK   27  A    between atoms: N_50  and  CA_51 
REMARK   28  A    between atoms: CA_51  and  C_52 
REMARK   29  A    between atoms: CA_51  and  CB_54 
REMARK       I    between atoms: C_52  and  N_55 
REMARK   30  A    between atoms: N_55  and  CA_56 
REMARK   31  A    between atoms: CA_56  and  C_57 
REMARK   32  A    between atoms: CA_56  and  CB_59 
REMARK   33  A    between atoms: CB_59  and  CG_60 
ROOT
ATOM      1  C   PRO d           6.030  33.211  17.219  0.00  0.00     0.242 C 
ATOM      2  O   PRO d           5.406  33.992  17.969  0.00  0.00    -0.271 OA
ATOM      3  N   PRO d           5.519  32.824  16.046  0.00  0.00    -0.353 N 
ATOM      4  H33 PRO d           6.001  32.129  15.514  0.00  0.00     0.163 HD
ENDROOT
BRANCH   3   5
ATOM      5  C1  PRO d           4.281  33.384  15.518  0.00  0.00     0.039 C 
ATOM      6  H34 PRO d           4.205  34.425  15.863  0.00  0.00     0.075 H 
BRANCH   5   7
ATOM      7  C2  PRO d           4.309  33.364  14.007  0.00  0.00    -0.021 C 
ATOM      8  H35 PRO d           3.773  32.459  13.683  0.00  0.00     0.043 H 
ATOM      9  H36 PRO d           5.363  33.295  13.701  0.00  0.00     0.043 H 
BRANCH   7  10
ATOM     10  C3  PRO d           3.696  34.546  13.260  0.00  0.00    -0.056 A 
ATOM     11  C4  PRO d           2.841  34.267  12.187  0.00  0.00    -0.077 A 
ATOM     12  C6  PRO d           2.241  35.312  11.488  0.00  0.00    -0.082 A 
ATOM     13  H37 PRO d           2.645  33.240  11.902  0.00  0.00     0.084 H 
ATOM     14  C8  PRO d           2.492  36.636  11.844  0.00  0.00    -0.083 A 
ATOM     15  H39 PRO d           1.575  35.095  10.661  0.00  0.00     0.083 H 
ATOM     16  C7  PRO d           3.350  36.912  12.904  0.00  0.00    -0.082 A 
ATOM     17  H41 PRO d           2.021  37.445  11.299  0.00  0.00     0.083 H 
ATOM     18  C5  PRO d           3.948  35.877  13.615  0.00  0.00    -0.077 A 
ATOM     19  H40 PRO d           3.553  37.942  13.177  0.00  0.00     0.083 H 
ATOM     20  H38 PRO d           4.610  36.102  14.444  0.00  0.00     0.084 H 
ENDBRANCH   7  10
ENDBRANCH   5   7
BRANCH   5  21
ATOM     21  C9  PRO d           3.030  32.633  15.971  0.00  0.00     0.101 C 
ATOM     22  H42 PRO d           2.362  33.340  16.485  0.00  0.00     0.079 H 
ATOM     23  H43 PRO d           3.330  31.838  16.669  0.00  0.00     0.079 H 
BRANCH  21  24
ATOM     24  N2  PRO d           2.312  32.036  14.872  0.00  0.00    -0.060 N 
ATOM     25  H44 PRO d           2.988  31.726  14.192  0.00  0.00     0.278 HD
ATOM     26  H45 PRO d           1.725  32.746  14.463  0.00  0.00     0.278 HD
BRANCH  24  27
ATOM     27  C10 PRO d           1.461  30.890  15.218  0.00  0.00     0.178 C 
ATOM     28  H46 PRO d           1.811  30.019  14.644  0.00  0.00     0.099 H 
BRANCH  27  29
ATOM     29  C11 PRO d           1.623  30.588  16.726  0.00  0.00    -0.022 C 
ATOM     30  H47 PRO d           2.402  31.264  17.109  0.00  0.00     0.037 H 
ATOM     31  H48 PRO d           1.965  29.547  16.812  0.00  0.00     0.037 H 
BRANCH  29  32
ATOM     32  C12 PRO d           0.402  30.739  17.647  0.00  0.00    -0.021 C 
ATOM     33  H49 PRO d          -0.382  31.271  17.088  0.00  0.00     0.049 H 
ATOM     34  H50 PRO d           0.705  31.342  18.516  0.00  0.00     0.049 H 
BRANCH  32  35
ATOM     35  SD  PRO d          -0.302  29.192  18.260  0.00  0.00    -0.173 SA
BRANCH  35  36
ATOM     36  C13 PRO d          -1.960  29.403  17.697  0.00  0.00    -0.035 C 
ATOM     37  H51 PRO d          -2.629  28.744  18.269  0.00  0.00     0.041 H 
ATOM     38  H52 PRO d          -2.020  29.148  16.628  0.00  0.00     0.041 H 
ATOM     39  H53 PRO d          -2.266  30.450  17.840  0.00  0.00     0.041 H 
ENDBRANCH  35  36
ENDBRANCH  32  35
ENDBRANCH  29  32
ENDBRANCH  27  29
BRANCH  27  40
ATOM     40  C   PRO d          -0.039  31.116  14.874  0.00  0.00     0.249 C 
ATOM     41  O   PRO d          -0.751  30.144  14.572  0.00  0.00    -0.271 OA
ATOM     42  N   PRO d          -0.579  32.327  15.001  0.00  0.00    -0.346 N 
ATOM     43  H54 PRO d          -0.051  33.070  15.412  0.00  0.00     0.163 HD
BRANCH  42  44
ATOM     44  CA  PRO d          -1.939  32.569  14.539  0.00  0.00     0.086 C 
ATOM     45  H55 PRO d          -2.294  31.824  13.811  0.00  0.00     0.086 H 
BRANCH  44  46
ATOM     46  C   PRO d          -1.670  33.941  13.924  0.00  0.00     0.240 C 
ATOM     47  O   PRO d          -0.913  34.071  12.949  0.00  0.00    -0.271 OA
ATOM     48  N   PRO d          -2.463  34.894  14.405  0.00  0.00    -0.344 N 
ATOM     49  H59 PRO d          -3.103  34.661  15.136  0.00  0.00     0.163 HD
BRANCH  48  50
ATOM     50  CA  PRO d          -2.436  36.262  13.910  0.00  0.00     0.101 C 
ATOM     51  H60 PRO d          -2.536  36.958  14.756  0.00  0.00     0.090 H 
BRANCH  50  52
ATOM     52  C   PRO d          -3.596  36.501  12.948  0.00  0.00     0.197 C 
ATOM     53  O   PRO d          -4.142  37.611  12.989  0.00  0.00    -0.646 OA
ATOM     54  OXT PRO d          -3.847  35.609  12.131  0.00  0.00    -0.646 OA
ENDBRANCH  50  52
BRANCH  50  55
ATOM     55  CB  PRO d          -1.061  36.492  13.224  0.00  0.00     0.003 C 
ATOM     56  H61 PRO d          -1.151  36.133  12.188  0.00  0.00     0.046 H 
ATOM     57  H62 PRO d          -0.323  35.879  13.762  0.00  0.00     0.046 H 
BRANCH  55  58
ATOM     58  CG  PRO d          -0.502  37.920  13.161  0.00  0.00     0.030 A 
ATOM     59  ND1 PRO d          -0.418  38.741  12.114  0.00  0.00    -0.353 N 
ATOM     60  CE1 PRO d           0.191  39.841  12.501  0.00  0.00     0.063 A 
ATOM     61  H63 PRO d          -0.768  38.548  11.165  0.00  0.00     0.166 HD
ATOM     62  NE2 PRO d           0.497  39.735  13.790  0.00  0.00    -0.254 NA
ATOM     63  H65 PRO d           0.409  40.699  11.868  0.00  0.00     0.143 H 
ATOM     64  CD2 PRO d           0.086  38.576  14.235  0.00  0.00     0.025 A 
ATOM     65  H64 PRO d           0.187  38.198  15.251  0.00  0.00     0.117 H 
ENDBRANCH  55  58
ENDBRANCH  50  55
ENDBRANCH  48  50
ENDBRANCH  44  46
BRANCH  44  66
ATOM     66  CB  PRO d          -2.901  32.675  15.708  0.00  0.00    -0.049 C 
ATOM     67  H56 PRO d          -2.940  31.712  16.239  0.00  0.00     0.030 H 
ATOM     68  H57 PRO d          -3.904  32.928  15.335  0.00  0.00     0.030 H 
ATOM     69  H58 PRO d          -2.556  33.460  16.397  0.00  0.00     0.030 H 
ENDBRANCH  44  66
ENDBRANCH  42  44
ENDBRANCH  27  40
ENDBRANCH  24  27
ENDBRANCH  21  24
ENDBRANCH   5  21
ENDBRANCH   3   5
BRANCH   1  70
ATOM     70  CA  PRO d           7.401  32.614  17.582  0.00  0.00     0.109 C 
ATOM     71  H29 PRO d           8.065  33.422  17.922  0.00  0.00     0.090 H 
BRANCH  70  72
ATOM     72  N   PRO d           7.263  31.634  18.672  0.00  0.00    -0.344 N 
ATOM     73  C   PRO d           6.332  30.673  18.721  0.00  0.00     0.241 C 
ATOM     74  O   PRO d           5.436  30.628  17.862  0.00  0.00    -0.271 OA
ATOM     75  H28 PRO d           7.912  31.689  19.431  0.00  0.00     0.163 HD
BRANCH  73  76
ATOM     76  CA  PRO d           6.318  29.754  19.944  0.00  0.00     0.089 C 
ATOM     77  H18 PRO d           6.249  30.405  20.828  0.00  0.00     0.087 H 
BRANCH  76  78
ATOM     78  N   PRO d           5.180  28.846  19.936  0.00  0.00    -0.346 N 
ATOM     79  C   PRO d           4.149  29.076  20.745  0.00  0.00     0.241 C 
ATOM     80  O   PRO d           4.112  30.096  21.442  0.00  0.00    -0.271 OA
ATOM     81  H17 PRO d           5.174  28.054  19.326  0.00  0.00     0.163 HD
BRANCH  79  82
ATOM     82  CA  PRO d           2.983  28.117  20.895  0.00  0.00     0.094 C 
ATOM     83  H11 PRO d           3.176  27.367  21.677  0.00  0.00     0.088 H 
BRANCH  82  84
ATOM     84  N   PRO d           1.813  28.935  21.251  0.00  0.00    -0.346 N 
ATOM     85  C   PRO d           0.788  28.558  22.050  0.00  0.00     0.249 C 
ATOM     86  O   PRO d           0.761  27.472  22.658  0.00  0.00    -0.271 OA
ATOM     87  H10 PRO d           1.771  29.857  20.865  0.00  0.00     0.163 HD
BRANCH  85  88
ATOM     88  CA  PRO d          -0.411  29.497  22.251  0.00  0.00     0.178 C 
ATOM     89  N   PRO d          -1.590  28.642  22.318  0.00  0.00    -0.062 N 
ATOM     90  CD  PRO d          -2.488  29.196  23.330  0.00  0.00     0.083 C 
ATOM     91  H1  PRO d          -1.319  27.705  22.576  0.00  0.00     0.278 HD
ATOM     92  H2  PRO d          -2.052  28.624  21.423  0.00  0.00     0.278 HD
ATOM     93  CG  PRO d          -1.878  30.531  23.769  0.00  0.00    -0.040 C 
ATOM     94  H8  PRO d          -2.563  28.512  24.188  0.00  0.00     0.075 H 
ATOM     95  H9  PRO d          -3.488  29.359  22.902  0.00  0.00     0.075 H 
ATOM     96  CB  PRO d          -0.389  30.267  23.566  0.00  0.00    -0.028 C 
ATOM     97  H6  PRO d          -2.229  31.360  23.138  0.00  0.00     0.035 H 
ATOM     98  H7  PRO d          -2.106  30.751  24.823  0.00  0.00     0.035 H 
ATOM     99  H4  PRO d           0.180  31.205  23.476  0.00  0.00     0.036 H 
ATOM    100  H5  PRO d           0.031  29.662  24.383  0.00  0.00     0.036 H 
ATOM    101  H3  PRO d          -0.473  30.201  21.409  0.00  0.00     0.099 H 
ENDBRANCH  85  88
ENDBRANCH  82  84
BRANCH  82 102
ATOM    102  CB  PRO d           2.817  27.439  19.544  0.00  0.00     0.002 C 
ATOM    103  H12 PRO d           3.814  27.220  19.135  0.00  0.00     0.046 H 
ATOM    104  H13 PRO d           2.286  28.125  18.868  0.00  0.00     0.046 H 
BRANCH 102 105
ATOM    105  CG  PRO d           2.041  26.156  19.638  0.00  0.00     0.030 A 
ATOM    106  ND1 PRO d           2.002  25.362  20.696  0.00  0.00    -0.353 N 
ATOM    107  CE1 PRO d           1.276  24.342  20.342  0.00  0.00     0.063 A 
ATOM    108  H14 PRO d           2.453  25.518  21.609  0.00  0.00     0.166 HD
ATOM    109  NE2 PRO d           0.855  24.486  19.102  0.00  0.00    -0.254 NA
ATOM    110  H16 PRO d           1.048  23.490  20.980  0.00  0.00     0.143 H 
ATOM    111  CD2 PRO d           1.303  25.604  18.615  0.00  0.00     0.025 A 
ATOM    112  H15 PRO d           1.132  26.014  17.620  0.00  0.00     0.117 H 
ENDBRANCH 102 105
ENDBRANCH  82 102
ENDBRANCH  79  82
ENDBRANCH  76  78
BRANCH  76 113
ATOM    113  CB  PRO d           7.560  28.825  20.121  0.00  0.00    -0.035 C 
ATOM    114  H19 PRO d           8.457  29.461  20.082  0.00  0.00     0.037 H 
ATOM    115  H20 PRO d           7.571  28.123  19.274  0.00  0.00     0.037 H 
BRANCH 113 116
ATOM    116  CG  PRO d           7.641  27.966  21.453  0.00  0.00    -0.059 C 
ATOM    117  H21 PRO d           6.856  27.196  21.434  0.00  0.00     0.038 H 
BRANCH 116 118
ATOM    118  CD1 PRO d           9.018  27.339  21.653  0.00  0.00    -0.073 C 
ATOM    119  H22 PRO d           8.904  26.269  21.883  0.00  0.00     0.028 H 
ATOM    120  H23 PRO d           9.530  27.840  22.487  0.00  0.00     0.028 H 
ATOM    121  H24 PRO d           9.611  27.457  20.734  0.00  0.00     0.028 H 
ENDBRANCH 116 118
BRANCH 116 122
ATOM    122  CD2 PRO d           7.517  28.845  22.688  0.00  0.00    -0.073 C 
ATOM    123  H25 PRO d           8.182  29.716  22.586  0.00  0.00     0.028 H 
ATOM    124  H26 PRO d           7.804  28.266  23.579  0.00  0.00     0.028 H 
ATOM    125  H27 PRO d           6.477  29.187  22.791  0.00  0.00     0.028 H 
ENDBRANCH 116 122
ENDBRANCH 113 116
ENDBRANCH  76 113
ENDBRANCH  73  76
ENDBRANCH  70  72
BRANCH  70 126
ATOM    126  CB  PRO d           8.016  31.958  16.305  0.00  0.00     0.044 C 
ATOM    127  H30 PRO d           9.036  32.353  16.184  0.00  0.00     0.077 H 
ATOM    128  H31 PRO d           7.402  32.259  15.445  0.00  0.00     0.077 H 
BRANCH 126 129
ATOM    129  OG  PRO d           8.101  30.528  16.301  0.00  0.00    -0.398 OA
ATOM    130  H32 PRO d           8.989  30.265  16.089  0.00  0.00     0.209 HD
ENDBRANCH 126 129
ENDBRANCH  70 126
ENDBRANCH   1  70
TORSDOF 33
ENDMDL
MODEL 9
REMARK VINA RESULT:      -5.1      2.644     11.129
REMARK WARNING: 32 MAX_TORS EXCEEDED!!!
REMARK  33 active torsions:
REMARK  status: ('A' for Active; 'I' for Inactive)
REMARK    1  A    between atoms: CA_2  and  C_3 
REMARK       I    between atoms: C_3  and  N_8 
REMARK    2  A    between atoms: N_8  and  CA_9 
REMARK    3  A    between atoms: CA_9  and  C_10 
REMARK    4  A    between atoms: CA_9  and  CB_12 
REMARK       I    between atoms: C_10  and  N_18 
REMARK    5  A    between atoms: CB_12  and  CG_13 
REMARK    6  A    between atoms: N_18  and  CA_19 
REMARK    7  A    between atoms: CA_19  and  C_20 
REMARK    8  A    between atoms: CA_19  and  CB_22 
REMARK       I    between atoms: C_20  and  N_26 
REMARK    9  A    between atoms: CB_22  and  CG_23 
REMARK   10  A    between atoms: CG_23  and  CD1_24 
REMARK   11  A    between atoms: CG_23  and  CD2_25 
REMARK   12  A    between atoms: N_26  and  CA_27 
REMARK   13  A    between atoms: CA_27  and  C_28 
REMARK   14  A    between atoms: CA_27  and  CB_30 
REMARK       I    between atoms: C_28  and  N_32 
REMARK   15  A    between atoms: CB_30  and  OG_31 
REMARK   16  A    between atoms: N_32  and  C1_33 
REMARK   17  A    between atoms: C1_33  and  C2_34 
REMARK   18  A    between atoms: C1_33  and  C9_41 
REMARK   19  A    between atoms: C2_34  and  C3_35 
REMARK   20  A    between atoms: C9_41  and  N2_42 
REMARK   21  A    between atoms: N2_42  and  C10_43 
REMARK   22  A    between atoms: C10_43  and  C11_44 
REMARK   23  A    between atoms: C10_43  and  C_48 
REMARK   24  A    between atoms: C11_44  and  C12_45 
REMARK   25  A    between atoms: C12_45  and  SD_46 
REMARK   26  A    between atoms: SD_46  and  C13_47 
REMARK       I    between atoms: C_48  and  N_50 
REMARK   27  A    between atoms: N_50  and  CA_51 
REMARK   28  A    between atoms: CA_51  and  C_52 
REMARK   29  A    between atoms: CA_51  and  CB_54 
REMARK       I    between atoms: C_52  and  N_55 
REMARK   30  A    between atoms: N_55  and  CA_56 
REMARK   31  A    between atoms: CA_56  and  C_57 
REMARK   32  A    between atoms: CA_56  and  CB_59 
REMARK   33  A    between atoms: CB_59  and  CG_60 
ROOT
ATOM      1  C   PRO d           6.486  32.573  17.953  0.00  0.00     0.242 C 
ATOM      2  O   PRO d           6.087  33.650  18.444  0.00  0.00    -0.271 OA
ATOM      3  N   PRO d           5.814  31.971  16.968  0.00  0.00    -0.353 N 
ATOM      4  H33 PRO d           6.110  31.066  16.662  0.00  0.00     0.163 HD
ENDROOT
BRANCH   3   5
ATOM      5  C1  PRO d           4.662  32.590  16.325  0.00  0.00     0.039 C 
ATOM      6  H34 PRO d           4.630  33.647  16.630  0.00  0.00     0.075 H 
BRANCH   5   7
ATOM      7  C2  PRO d           4.806  32.514  14.822  0.00  0.00    -0.021 C 
ATOM      8  H35 PRO d           4.272  31.612  14.489  0.00  0.00     0.043 H 
ATOM      9  H36 PRO d           5.878  32.408  14.603  0.00  0.00     0.043 H 
BRANCH   7  10
ATOM     10  C3  PRO d           4.286  33.683  13.989  0.00  0.00    -0.056 A 
ATOM     11  C4  PRO d           4.589  33.694  12.622  0.00  0.00    -0.077 A 
ATOM     12  C6  PRO d           4.119  34.729  11.816  0.00  0.00    -0.082 A 
ATOM     13  H37 PRO d           5.188  32.900  12.191  0.00  0.00     0.084 H 
ATOM     14  C8  PRO d           3.354  35.758  12.362  0.00  0.00    -0.083 A 
ATOM     15  H39 PRO d           4.350  34.735  10.757  0.00  0.00     0.083 H 
ATOM     16  C7  PRO d           3.062  35.751  13.722  0.00  0.00    -0.082 A 
ATOM     17  H41 PRO d           2.988  36.559  11.731  0.00  0.00     0.083 H 
ATOM     18  C5  PRO d           3.518  34.719  14.536  0.00  0.00    -0.077 A 
ATOM     19  H40 PRO d           2.474  36.555  14.151  0.00  0.00     0.083 H 
ATOM     20  H38 PRO d           3.279  34.717  15.593  0.00  0.00     0.084 H 
ENDBRANCH   7  10
ENDBRANCH   5   7
BRANCH   5  21
ATOM     21  C9  PRO d           3.331  31.940  16.698  0.00  0.00     0.101 C 
ATOM     22  H42 PRO d           2.608  32.732  16.942  0.00  0.00     0.079 H 
ATOM     23  H43 PRO d           3.487  31.302  17.581  0.00  0.00     0.079 H 
BRANCH  21  24
ATOM     24  N2  PRO d           2.789  31.132  15.635  0.00  0.00    -0.060 N 
ATOM     25  H44 PRO d           3.493  31.049  14.919  0.00  0.00     0.278 HD
ATOM     26  H45 PRO d           1.984  31.610  15.262  0.00  0.00     0.278 HD
BRANCH  24  27
ATOM     27  C10 PRO d           2.372  29.777  16.016  0.00  0.00     0.178 C 
ATOM     28  H46 PRO d           2.623  29.097  15.189  0.00  0.00     0.099 H 
BRANCH  27  29
ATOM     29  C11 PRO d           3.167  29.347  17.271  0.00  0.00    -0.022 C 
ATOM     30  H47 PRO d           3.938  30.112  17.442  0.00  0.00     0.037 H 
ATOM     31  H48 PRO d           3.648  28.386  17.035  0.00  0.00     0.037 H 
BRANCH  29  32
ATOM     32  C12 PRO d           2.414  29.160  18.598  0.00  0.00    -0.021 C 
ATOM     33  H49 PRO d           1.336  29.232  18.389  0.00  0.00     0.049 H 
ATOM     34  H50 PRO d           2.712  29.974  19.274  0.00  0.00     0.049 H 
BRANCH  32  35
ATOM     35  SD  PRO d           2.716  27.592  19.445  0.00  0.00    -0.173 SA
BRANCH  35  36
ATOM     36  C13 PRO d           1.598  26.572  18.538  0.00  0.00    -0.035 C 
ATOM     37  H51 PRO d           1.679  26.802  17.466  0.00  0.00     0.041 H 
ATOM     38  H52 PRO d           0.569  26.763  18.878  0.00  0.00     0.041 H 
ATOM     39  H53 PRO d           1.848  25.514  18.707  0.00  0.00     0.041 H 
ENDBRANCH  35  36
ENDBRANCH  32  35
ENDBRANCH  29  32
ENDBRANCH  27  29
BRANCH  27  40
ATOM     40  C   PRO d           0.844  29.658  16.283  0.00  0.00     0.249 C 
ATOM     41  O   PRO d           0.319  28.535  16.350  0.00  0.00    -0.271 OA
ATOM     42  N   PRO d           0.123  30.750  16.537  0.00  0.00    -0.346 N 
ATOM     43  H54 PRO d           0.577  31.633  16.658  0.00  0.00     0.163 HD
BRANCH  42  44
ATOM     44  CA  PRO d          -1.326  30.656  16.639  0.00  0.00     0.086 C 
ATOM     45  H55 PRO d          -1.717  29.648  16.437  0.00  0.00     0.086 H 
BRANCH  44  46
ATOM     46  C   PRO d          -1.641  31.664  15.535  0.00  0.00     0.240 C 
ATOM     47  O   PRO d          -2.526  32.521  15.681  0.00  0.00    -0.271 OA
ATOM     48  N   PRO d          -0.759  31.642  14.540  0.00  0.00    -0.344 N 
ATOM     49  H59 PRO d          -0.027  30.961  14.564  0.00  0.00     0.163 HD
BRANCH  48  50
ATOM     50  CA  PRO d          -0.816  32.568  13.419  0.00  0.00     0.101 C 
ATOM     51  H60 PRO d          -1.584  32.230  12.707  0.00  0.00     0.090 H 
BRANCH  50  52
ATOM     52  C   PRO d           0.527  32.612  12.698  0.00  0.00     0.197 C 
ATOM     53  O   PRO d           0.529  33.039  11.536  0.00  0.00    -0.646 OA
ATOM     54  OXT PRO d           1.531  32.309  13.352  0.00  0.00    -0.646 OA
ENDBRANCH  50  52
BRANCH  50  55
ATOM     55  CB  PRO d          -1.219  33.962  13.974  0.00  0.00     0.003 C 
ATOM     56  H61 PRO d          -0.468  34.239  14.730  0.00  0.00     0.046 H 
ATOM     57  H62 PRO d          -2.201  33.848  14.457  0.00  0.00     0.046 H 
BRANCH  55  58
ATOM     58  CG  PRO d          -1.330  35.138  12.995  0.00  0.00     0.030 A 
ATOM     59  ND1 PRO d          -0.362  35.771  12.331  0.00  0.00    -0.353 N 
ATOM     60  CE1 PRO d          -0.904  36.761  11.657  0.00  0.00     0.063 A 
ATOM     61  H63 PRO d           0.638  35.526  12.344  0.00  0.00     0.166 HD
ATOM     62  NE2 PRO d          -2.215  36.770  11.880  0.00  0.00    -0.254 NA
ATOM     63  H65 PRO d          -0.366  37.461  11.019  0.00  0.00     0.143 H 
ATOM     64  CD2 PRO d          -2.519  35.790  12.690  0.00  0.00     0.025 A 
ATOM     65  H64 PRO d          -3.512  35.535  13.055  0.00  0.00     0.117 H 
ENDBRANCH  55  58
ENDBRANCH  50  55
ENDBRANCH  48  50
ENDBRANCH  44  46
BRANCH  44  66
ATOM     66  CB  PRO d          -1.812  31.156  17.988  0.00  0.00    -0.049 C 
ATOM     67  H56 PRO d          -2.616  30.500  18.354  0.00  0.00     0.030 H 
ATOM     68  H57 PRO d          -2.194  32.181  17.883  0.00  0.00     0.030 H 
ATOM     69  H58 PRO d          -0.977  31.147  18.704  0.00  0.00     0.030 H 
ENDBRANCH  44  66
ENDBRANCH  42  44
ENDBRANCH  27  40
ENDBRANCH  24  27
ENDBRANCH  21  24
ENDBRANCH   5  21
ENDBRANCH   3   5
BRANCH   1  70
ATOM     70  CA  PRO d           7.747  31.842  18.447  0.00  0.00     0.109 C 
ATOM     71  H29 PRO d           8.584  32.555  18.484  0.00  0.00     0.090 H 
BRANCH  70  72
ATOM     72  N   PRO d           7.533  31.304  19.801  0.00  0.00    -0.344 N 
ATOM     73  C   PRO d           6.473  30.578  20.174  0.00  0.00     0.241 C 
ATOM     74  O   PRO d           5.527  30.405  19.389  0.00  0.00    -0.271 OA
ATOM     75  H28 PRO d           8.231  31.495  20.491  0.00  0.00     0.163 HD
BRANCH  73  76
ATOM     76  CA  PRO d           6.399  30.120  21.633  0.00  0.00     0.089 C 
ATOM     77  H18 PRO d           6.197  31.017  22.236  0.00  0.00     0.087 H 
BRANCH  76  78
ATOM     78  N   PRO d           5.334  29.153  21.852  0.00  0.00    -0.346 N 
ATOM     79  C   PRO d           4.231  29.523  22.497  0.00  0.00     0.241 C 
ATOM     80  O   PRO d           4.068  30.699  22.839  0.00  0.00    -0.271 OA
ATOM     81  H17 PRO d           5.430  28.215  21.518  0.00  0.00     0.163 HD
BRANCH  79  82
ATOM     82  CA  PRO d           3.129  28.553  22.880  0.00  0.00     0.094 C 
ATOM     83  H11 PRO d           2.394  28.437  22.070  0.00  0.00     0.088 H 
BRANCH  82  84
ATOM     84  N   PRO d           3.785  27.266  23.161  0.00  0.00    -0.346 N 
ATOM     85  C   PRO d           3.234  26.039  23.012  0.00  0.00     0.249 C 
ATOM     86  O   PRO d           2.103  25.854  22.528  0.00  0.00    -0.271 OA
ATOM     87  H10 PRO d           4.728  27.302  23.493  0.00  0.00     0.163 HD
BRANCH  85  88
ATOM     88  CA  PRO d           4.021  24.790  23.437  0.00  0.00     0.178 C 
ATOM     89  N   PRO d           5.419  25.065  23.123  0.00  0.00    -0.062 N 
ATOM     90  CD  PRO d           6.238  24.504  24.196  0.00  0.00     0.083 C 
ATOM     91  H1  PRO d           5.567  26.061  23.063  0.00  0.00     0.278 HD
ATOM     92  H2  PRO d           5.663  24.635  22.245  0.00  0.00     0.278 HD
ATOM     93  CG  PRO d           5.285  23.725  25.109  0.00  0.00    -0.040 C 
ATOM     94  H8  PRO d           6.730  25.310  24.760  0.00  0.00     0.075 H 
ATOM     95  H9  PRO d           7.001  23.830  23.780  0.00  0.00     0.075 H 
ATOM     96  CB  PRO d           3.987  24.508  24.934  0.00  0.00    -0.028 C 
ATOM     97  H6  PRO d           5.173  22.682  24.776  0.00  0.00     0.035 H 
ATOM     98  H7  PRO d           5.626  23.741  26.154  0.00  0.00     0.035 H 
ATOM     99  H4  PRO d           3.110  23.904  25.212  0.00  0.00     0.036 H 
ATOM    100  H5  PRO d           3.993  25.438  25.522  0.00  0.00     0.036 H 
ATOM    101  H3  PRO d           3.651  23.915  22.885  0.00  0.00     0.099 H 
ENDBRANCH  85  88
ENDBRANCH  82  84
BRANCH  82 102
ATOM    102  CB  PRO d           2.464  29.136  24.117  0.00  0.00     0.002 C 
ATOM    103  H12 PRO d           3.091  29.953  24.503  0.00  0.00     0.046 H 
ATOM    104  H13 PRO d           2.380  28.347  24.878  0.00  0.00     0.046 H 
BRANCH 102 105
ATOM    105  CG  PRO d           1.092  29.676  23.829  0.00  0.00     0.030 A 
ATOM    106  ND1 PRO d           0.834  30.848  23.269  0.00  0.00    -0.353 N 
ATOM    107  CE1 PRO d          -0.463  30.953  23.258  0.00  0.00     0.063 A 
ATOM    108  H14 PRO d           1.517  31.533  22.915  0.00  0.00     0.166 HD
ATOM    109  NE2 PRO d          -1.015  29.879  23.784  0.00  0.00    -0.254 NA
ATOM    110  H16 PRO d          -1.014  31.808  22.870  0.00  0.00     0.143 H 
ATOM    111  CD2 PRO d          -0.088  29.047  24.155  0.00  0.00     0.025 A 
ATOM    112  H15 PRO d          -0.217  28.071  24.620  0.00  0.00     0.117 H 
ENDBRANCH 102 105
ENDBRANCH  82 102
ENDBRANCH  79  82
ENDBRANCH  76  78
BRANCH  76 113
ATOM    113  CB  PRO d           7.678  29.430  22.203  0.00  0.00    -0.035 C 
ATOM    114  H19 PRO d           8.029  30.034  23.053  0.00  0.00     0.037 H 
ATOM    115  H20 PRO d           8.440  29.438  21.409  0.00  0.00     0.037 H 
BRANCH 113 116
ATOM    116  CG  PRO d           7.532  27.933  22.709  0.00  0.00    -0.059 C 
ATOM    117  H21 PRO d           6.699  27.453  22.176  0.00  0.00     0.038 H 
BRANCH 116 118
ATOM    118  CD1 PRO d           8.822  27.137  22.538  0.00  0.00    -0.073 C 
ATOM    119  H22 PRO d           9.392  27.540  21.688  0.00  0.00     0.028 H 
ATOM    120  H23 PRO d           8.579  26.082  22.349  0.00  0.00     0.028 H 
ATOM    121  H24 PRO d           9.426  27.216  23.455  0.00  0.00     0.028 H 
ENDBRANCH 116 118
BRANCH 116 122
ATOM    122  CD2 PRO d           7.328  27.874  24.214  0.00  0.00    -0.073 C 
ATOM    123  H25 PRO d           6.320  27.492  24.434  0.00  0.00     0.028 H 
ATOM    124  H26 PRO d           7.438  28.884  24.639  0.00  0.00     0.028 H 
ATOM    125  H27 PRO d           8.079  27.205  24.660  0.00  0.00     0.028 H 
ENDBRANCH 116 122
ENDBRANCH 113 116
ENDBRANCH  76 113
ENDBRANCH  73  76
ENDBRANCH  70  72
BRANCH  70 126
ATOM    126  CB  PRO d           8.097  30.705  17.435  0.00  0.00     0.044 C 
ATOM    127  H30 PRO d           9.102  30.332  17.684  0.00  0.00     0.077 H 
ATOM    128  H31 PRO d           8.110  31.146  16.428  0.00  0.00     0.077 H 
BRANCH 126 129
ATOM    129  OG  PRO d           7.211  29.581  17.408  0.00  0.00    -0.398 OA
ATOM    130  H32 PRO d           7.467  28.994  16.707  0.00  0.00     0.209 HD
ENDBRANCH 126 129
ENDBRANCH  70 126
ENDBRANCH   1  70
TORSDOF 33
ENDMDL
MODEL 10
REMARK VINA RESULT:      -5.0      3.645      8.206
REMARK WARNING: 32 MAX_TORS EXCEEDED!!!
REMARK  33 active torsions:
REMARK  status: ('A' for Active; 'I' for Inactive)
REMARK    1  A    between atoms: CA_2  and  C_3 
REMARK       I    between atoms: C_3  and  N_8 
REMARK    2  A    between atoms: N_8  and  CA_9 
REMARK    3  A    between atoms: CA_9  and  C_10 
REMARK    4  A    between atoms: CA_9  and  CB_12 
REMARK       I    between atoms: C_10  and  N_18 
REMARK    5  A    between atoms: CB_12  and  CG_13 
REMARK    6  A    between atoms: N_18  and  CA_19 
REMARK    7  A    between atoms: CA_19  and  C_20 
REMARK    8  A    between atoms: CA_19  and  CB_22 
REMARK       I    between atoms: C_20  and  N_26 
REMARK    9  A    between atoms: CB_22  and  CG_23 
REMARK   10  A    between atoms: CG_23  and  CD1_24 
REMARK   11  A    between atoms: CG_23  and  CD2_25 
REMARK   12  A    between atoms: N_26  and  CA_27 
REMARK   13  A    between atoms: CA_27  and  C_28 
REMARK   14  A    between atoms: CA_27  and  CB_30 
REMARK       I    between atoms: C_28  and  N_32 
REMARK   15  A    between atoms: CB_30  and  OG_31 
REMARK   16  A    between atoms: N_32  and  C1_33 
REMARK   17  A    between atoms: C1_33  and  C2_34 
REMARK   18  A    between atoms: C1_33  and  C9_41 
REMARK   19  A    between atoms: C2_34  and  C3_35 
REMARK   20  A    between atoms: C9_41  and  N2_42 
REMARK   21  A    between atoms: N2_42  and  C10_43 
REMARK   22  A    between atoms: C10_43  and  C11_44 
REMARK   23  A    between atoms: C10_43  and  C_48 
REMARK   24  A    between atoms: C11_44  and  C12_45 
REMARK   25  A    between atoms: C12_45  and  SD_46 
REMARK   26  A    between atoms: SD_46  and  C13_47 
REMARK       I    between atoms: C_48  and  N_50 
REMARK   27  A    between atoms: N_50  and  CA_51 
REMARK   28  A    between atoms: CA_51  and  C_52 
REMARK   29  A    between atoms: CA_51  and  CB_54 
REMARK       I    between atoms: C_52  and  N_55 
REMARK   30  A    between atoms: N_55  and  CA_56 
REMARK   31  A    between atoms: CA_56  and  C_57 
REMARK   32  A    between atoms: CA_56  and  CB_59 
REMARK   33  A    between atoms: CB_59  and  CG_60 
ROOT
ATOM      1  C   PRO d          -1.451  29.618  17.418  0.00  0.00     0.242 C 
ATOM      2  O   PRO d          -2.390  28.929  16.966  0.00  0.00    -0.271 OA
ATOM      3  N   PRO d          -0.716  29.191  18.449  0.00  0.00    -0.353 N 
ATOM      4  H33 PRO d          -0.034  29.806  18.845  0.00  0.00     0.163 HD
ENDROOT
BRANCH   3   5
ATOM      5  C1  PRO d          -0.877  27.858  19.017  0.00  0.00     0.039 C 
ATOM      6  H34 PRO d          -1.017  27.150  18.186  0.00  0.00     0.075 H 
BRANCH   5   7
ATOM      7  C2  PRO d           0.363  27.473  19.791  0.00  0.00    -0.021 C 
ATOM      8  H35 PRO d           0.140  27.622  20.858  0.00  0.00     0.043 H 
ATOM      9  H36 PRO d           1.165  28.160  19.485  0.00  0.00     0.043 H 
BRANCH   7  10
ATOM     10  C3  PRO d           0.898  26.052  19.634  0.00  0.00    -0.056 A 
ATOM     11  C4  PRO d           2.217  25.804  20.030  0.00  0.00    -0.077 A 
ATOM     12  C6  PRO d           2.744  24.519  19.925  0.00  0.00    -0.082 A 
ATOM     13  H37 PRO d           2.829  26.612  20.417  0.00  0.00     0.084 H 
ATOM     14  C8  PRO d           1.967  23.477  19.421  0.00  0.00    -0.083 A 
ATOM     15  H39 PRO d           3.764  24.327  20.236  0.00  0.00     0.083 H 
ATOM     16  C7  PRO d           0.660  23.726  19.019  0.00  0.00    -0.082 A 
ATOM     17  H41 PRO d           2.380  22.478  19.344  0.00  0.00     0.083 H 
ATOM     18  C5  PRO d           0.120  25.003  19.127  0.00  0.00    -0.077 A 
ATOM     19  H40 PRO d           0.056  22.918  18.619  0.00  0.00     0.083 H 
ATOM     20  H38 PRO d          -0.903  25.187  18.818  0.00  0.00     0.084 H 
ENDBRANCH   7  10
ENDBRANCH   5   7
BRANCH   5  21
ATOM     21  C9  PRO d          -2.072  27.736  19.961  0.00  0.00     0.101 C 
ATOM     22  H42 PRO d          -2.928  27.341  19.395  0.00  0.00     0.079 H 
ATOM     23  H43 PRO d          -2.319  28.737  20.346  0.00  0.00     0.079 H 
BRANCH  21  24
ATOM     24  N2  PRO d          -1.812  26.862  21.077  0.00  0.00    -0.060 N 
ATOM     25  H44 PRO d          -0.871  27.034  21.393  0.00  0.00     0.278 HD
ATOM     26  H45 PRO d          -1.889  25.912  20.750  0.00  0.00     0.278 HD
BRANCH  24  27
ATOM     27  C10 PRO d          -2.710  27.018  22.228  0.00  0.00     0.178 C 
ATOM     28  H46 PRO d          -3.522  27.701  21.938  0.00  0.00     0.099 H 
BRANCH  27  29
ATOM     29  C11 PRO d          -3.320  25.640  22.572  0.00  0.00    -0.022 C 
ATOM     30  H47 PRO d          -4.405  25.717  22.407  0.00  0.00     0.037 H 
ATOM     31  H48 PRO d          -3.123  25.457  23.639  0.00  0.00     0.037 H 
BRANCH  29  32
ATOM     32  C12 PRO d          -2.834  24.400  21.805  0.00  0.00    -0.021 C 
ATOM     33  H49 PRO d          -2.459  24.733  20.825  0.00  0.00     0.049 H 
ATOM     34  H50 PRO d          -3.695  23.732  21.660  0.00  0.00     0.049 H 
BRANCH  32  35
ATOM     35  SD  PRO d          -1.523  23.454  22.613  0.00  0.00    -0.173 SA
BRANCH  35  36
ATOM     36  C13 PRO d          -2.110  23.537  24.275  0.00  0.00    -0.035 C 
ATOM     37  H51 PRO d          -3.055  24.098  24.302  0.00  0.00     0.041 H 
ATOM     38  H52 PRO d          -1.363  24.047  24.902  0.00  0.00     0.041 H 
ATOM     39  H53 PRO d          -2.276  22.520  24.657  0.00  0.00     0.041 H 
ENDBRANCH  35  36
ENDBRANCH  32  35
ENDBRANCH  29  32
ENDBRANCH  27  29
BRANCH  27  40
ATOM     40  C   PRO d          -2.005  27.620  23.478  0.00  0.00     0.249 C 
ATOM     41  O   PRO d          -2.634  28.387  24.226  0.00  0.00    -0.271 OA
ATOM     42  N   PRO d          -0.770  27.237  23.798  0.00  0.00    -0.346 N 
ATOM     43  H54 PRO d          -0.332  26.489  23.298  0.00  0.00     0.163 HD
BRANCH  42  44
ATOM     44  CA  PRO d          -0.058  27.907  24.876  0.00  0.00     0.086 C 
ATOM     45  H55 PRO d          -0.708  28.210  25.710  0.00  0.00     0.086 H 
BRANCH  44  46
ATOM     46  C   PRO d           0.450  29.081  24.042  0.00  0.00     0.240 C 
ATOM     47  O   PRO d           1.046  28.898  22.970  0.00  0.00    -0.271 OA
ATOM     48  N   PRO d           0.016  30.260  24.480  0.00  0.00    -0.344 N 
ATOM     49  H59 PRO d          -0.535  30.288  25.313  0.00  0.00     0.163 HD
BRANCH  48  50
ATOM     50  CA  PRO d           0.311  31.510  23.795  0.00  0.00     0.101 C 
ATOM     51  H60 PRO d           0.711  31.291  22.794  0.00  0.00     0.090 H 
BRANCH  50  52
ATOM     52  C   PRO d           1.356  32.306  24.570  0.00  0.00     0.197 C 
ATOM     53  O   PRO d           2.542  32.127  24.263  0.00  0.00    -0.646 OA
ATOM     54  OXT PRO d           0.944  33.142  25.381  0.00  0.00    -0.646 OA
ENDBRANCH  50  52
BRANCH  50  55
ATOM     55  CB  PRO d          -1.021  32.296  23.647  0.00  0.00     0.003 C 
ATOM     56  H61 PRO d          -0.762  33.364  23.588  0.00  0.00     0.046 H 
ATOM     57  H62 PRO d          -1.609  32.111  24.558  0.00  0.00     0.046 H 
BRANCH  55  58
ATOM     58  CG  PRO d          -1.929  31.983  22.451  0.00  0.00     0.030 A 
ATOM     59  ND1 PRO d          -1.727  31.130  21.446  0.00  0.00    -0.353 N 
ATOM     60  CE1 PRO d          -2.736  31.234  20.608  0.00  0.00     0.063 A 
ATOM     61  H63 PRO d          -0.920  30.499  21.342  0.00  0.00     0.166 HD
ATOM     62  NE2 PRO d          -3.587  32.146  21.066  0.00  0.00    -0.254 NA
ATOM     63  H65 PRO d          -2.854  30.666  19.687  0.00  0.00     0.143 H 
ATOM     64  CD2 PRO d          -3.134  32.627  22.195  0.00  0.00     0.025 A 
ATOM     65  H64 PRO d          -3.609  33.385  22.815  0.00  0.00     0.117 H 
ENDBRANCH  55  58
ENDBRANCH  50  55
ENDBRANCH  48  50
ENDBRANCH  44  46
BRANCH  44  66
ATOM     66  CB  PRO d           1.095  27.057  25.379  0.00  0.00    -0.049 C 
ATOM     67  H56 PRO d           0.961  26.019  25.040  0.00  0.00     0.030 H 
ATOM     68  H57 PRO d           1.117  27.082  26.479  0.00  0.00     0.030 H 
ATOM     69  H58 PRO d           2.042  27.452  24.984  0.00  0.00     0.030 H 
ENDBRANCH  44  66
ENDBRANCH  42  44
ENDBRANCH  27  40
ENDBRANCH  24  27
ENDBRANCH  21  24
ENDBRANCH   5  21
ENDBRANCH   3   5
BRANCH   1  70
ATOM     70  CA  PRO d          -1.081  31.004  16.860  0.00  0.00     0.109 C 
ATOM     71  H29 PRO d          -1.719  31.763  17.335  0.00  0.00     0.090 H 
BRANCH  70  72
ATOM     72  N   PRO d           0.325  31.321  17.160  0.00  0.00    -0.344 N 
ATOM     73  C   PRO d           1.379  30.769  16.547  0.00  0.00     0.241 C 
ATOM     74  O   PRO d           1.215  29.845  15.733  0.00  0.00    -0.271 OA
ATOM     75  H28 PRO d           0.505  31.998  17.874  0.00  0.00     0.163 HD
BRANCH  73  76
ATOM     76  CA  PRO d           2.775  31.198  17.004  0.00  0.00     0.089 C 
ATOM     77  H18 PRO d           2.708  31.394  18.083  0.00  0.00     0.087 H 
BRANCH  76  78
ATOM     78  N   PRO d           3.771  30.161  16.773  0.00  0.00    -0.346 N 
ATOM     79  C   PRO d           4.019  29.264  17.723  0.00  0.00     0.241 C 
ATOM     80  O   PRO d           3.356  29.252  18.765  0.00  0.00    -0.271 OA
ATOM     81  H17 PRO d           4.265  30.123  15.905  0.00  0.00     0.163 HD
BRANCH  79  82
ATOM     82  CA  PRO d           5.126  28.230  17.619  0.00  0.00     0.094 C 
ATOM     83  H11 PRO d           4.996  27.589  16.735  0.00  0.00     0.088 H 
BRANCH  82  84
ATOM     84  N   PRO d           6.388  28.979  17.525  0.00  0.00    -0.346 N 
ATOM     85  C   PRO d           6.637  30.196  18.064  0.00  0.00     0.249 C 
ATOM     86  O   PRO d           5.826  30.799  18.791  0.00  0.00    -0.271 OA
ATOM     87  H10 PRO d           7.134  28.549  17.016  0.00  0.00     0.163 HD
BRANCH  85  88
ATOM     88  CA  PRO d           7.982  30.889  17.798  0.00  0.00     0.178 C 
ATOM     89  N   PRO d           7.684  32.309  17.653  0.00  0.00    -0.062 N 
ATOM     90  CD  PRO d           8.763  33.061  18.293  0.00  0.00     0.083 C 
ATOM     91  H1  PRO d           6.805  32.523  18.099  0.00  0.00     0.278 HD
ATOM     92  H2  PRO d           7.633  32.550  16.675  0.00  0.00     0.278 HD
ATOM     93  CG  PRO d           9.826  32.036  18.700  0.00  0.00    -0.040 C 
ATOM     94  H8  PRO d           8.383  33.588  19.181  0.00  0.00     0.075 H 
ATOM     95  H9  PRO d           9.188  33.791  17.588  0.00  0.00     0.075 H 
ATOM     96  CB  PRO d           8.973  30.796  18.953  0.00  0.00    -0.028 C 
ATOM     97  H6  PRO d          10.551  31.867  17.890  0.00  0.00     0.035 H 
ATOM     98  H7  PRO d          10.359  32.349  19.610  0.00  0.00     0.035 H 
ATOM     99  H4  PRO d           9.572  29.875  18.898  0.00  0.00     0.036 H 
ATOM    100  H5  PRO d           8.466  30.845  19.927  0.00  0.00     0.036 H 
ATOM    101  H3  PRO d           8.436  30.478  16.885  0.00  0.00     0.099 H 
ENDBRANCH  85  88
ENDBRANCH  82  84
BRANCH  82 102
ATOM    102  CB  PRO d           5.048  27.399  18.890  0.00  0.00     0.002 C 
ATOM    103  H12 PRO d           4.911  26.344  18.614  0.00  0.00     0.046 H 
ATOM    104  H13 PRO d           4.185  27.738  19.482  0.00  0.00     0.046 H 
BRANCH 102 105
ATOM    105  CG  PRO d           6.287  27.520  19.731  0.00  0.00     0.030 A 
ATOM    106  ND1 PRO d           7.450  26.948  19.465  0.00  0.00    -0.353 N 
ATOM    107  CE1 PRO d           8.227  27.252  20.464  0.00  0.00     0.063 A 
ATOM    108  H14 PRO d           7.690  26.379  18.640  0.00  0.00     0.166 HD
ATOM    109  NE2 PRO d           7.584  28.004  21.333  0.00  0.00    -0.254 NA
ATOM    110  H16 PRO d           9.262  26.930  20.566  0.00  0.00     0.143 H 
ATOM    111  CD2 PRO d           6.368  28.205  20.923  0.00  0.00     0.025 A 
ATOM    112  H15 PRO d           5.587  28.785  21.413  0.00  0.00     0.117 H 
ENDBRANCH 102 105
ENDBRANCH  82 102
ENDBRANCH  79  82
ENDBRANCH  76  78
BRANCH  76 113
ATOM    113  CB  PRO d           3.365  32.468  16.314  0.00  0.00    -0.035 C 
ATOM    114  H19 PRO d           4.187  32.836  16.946  0.00  0.00     0.037 H 
ATOM    115  H20 PRO d           2.566  33.223  16.275  0.00  0.00     0.037 H 
BRANCH 113 116
ATOM    116  CG  PRO d           3.933  32.297  14.842  0.00  0.00    -0.059 C 
ATOM    117  H21 PRO d           3.938  31.230  14.579  0.00  0.00     0.038 H 
BRANCH 116 118
ATOM    118  CD1 PRO d           3.143  33.109  13.820  0.00  0.00    -0.073 C 
ATOM    119  H22 PRO d           2.215  33.477  14.282  0.00  0.00     0.028 H 
ATOM    120  H23 PRO d           2.896  32.473  12.958  0.00  0.00     0.028 H 
ATOM    121  H24 PRO d           3.749  33.964  13.484  0.00  0.00     0.028 H 
ENDBRANCH 116 118
BRANCH 116 122
ATOM    122  CD2 PRO d           5.322  32.901  14.711  0.00  0.00    -0.073 C 
ATOM    123  H25 PRO d           5.779  32.992  15.708  0.00  0.00     0.028 H 
ATOM    124  H26 PRO d           5.246  33.898  14.250  0.00  0.00     0.028 H 
ATOM    125  H27 PRO d           5.946  32.252  14.080  0.00  0.00     0.028 H 
ENDBRANCH 116 122
ENDBRANCH 113 116
ENDBRANCH  76 113
ENDBRANCH  73  76
ENDBRANCH  70  72
BRANCH  70 126
ATOM    126  CB  PRO d          -1.347  31.012  15.321  0.00  0.00     0.044 C 
ATOM    127  H30 PRO d          -0.688  31.769  14.871  0.00  0.00     0.077 H 
ATOM    128  H31 PRO d          -2.397  31.302  15.165  0.00  0.00     0.077 H 
BRANCH 126 129
ATOM    129  OG  PRO d          -1.128  29.777  14.629  0.00  0.00    -0.398 OA
ATOM    130  H32 PRO d          -1.804  29.660  13.972  0.00  0.00     0.209 HD
ENDBRANCH 126 129
ENDBRANCH  70 126
ENDBRANCH   1  70
TORSDOF 33
ENDMDL
