REMARK  13 active torsions:
REMARK  status: ('A' for Active; 'I' for Inactive)
REMARK    1  A    between atoms: N1_1  and  C2_2 
REMARK    2  A    between atoms: C2_2  and  C3_3 
REMARK    3  A    between atoms: C3_3  and  C4_4 
REMARK    4  A    between atoms: C4_4  and  N5_5 
REMARK    5  A    between atoms: N5_5  and  C6_6 
REMARK    6  A    between atoms: C6_6  and  C7_7 
REMARK    7  A    between atoms: C7_7  and  C8_8 
REMARK    8  A    between atoms: C8_8  and  C9_9 
REMARK    9  A    between atoms: C9_9  and  N10_10 
REMARK   10  A    between atoms: N10_10  and  C11_11 
REMARK   11  A    between atoms: C11_11  and  C12_12 
REMARK   12  A    between atoms: C12_12  and  C13_13 
REMARK   13  A    between atoms: C13_13  and  N14_14 
ROOT
ATOM      1  C7  SPM d          -4.176   1.500  13.981  0.00  0.00    -0.041 C 
ATOM      2  H14 SPM d          -4.695   0.532  14.035  0.00  0.00     0.035 H 
ATOM      3  H15 SPM d          -3.089   1.333  13.973  0.00  0.00     0.035 H 
ENDROOT
BRANCH   1   4
ATOM      4  C6  SPM d          -4.576   2.391  15.138  0.00  0.00     0.082 C 
ATOM      5  H12 SPM d          -4.285   1.889  16.073  0.00  0.00     0.075 H 
ATOM      6  H13 SPM d          -4.026   3.339  15.045  0.00  0.00     0.075 H 
BRANCH   4   7
ATOM      7  N5  SPM d          -5.994   2.697  15.212  0.00  0.00    -0.075 N 
ATOM      8  H10 SPM d          -6.234   3.214  14.380  0.00  0.00     0.277 HD
ATOM      9  H11 SPM d          -6.491   1.820  15.217  0.00  0.00     0.277 HD
BRANCH   7  10
ATOM     10  C4  SPM d          -6.461   3.463  16.344  0.00  0.00     0.083 C 
ATOM     11  H8  SPM d          -5.729   4.260  16.543  0.00  0.00     0.075 H 
ATOM     12  H9  SPM d          -7.429   3.912  16.077  0.00  0.00     0.075 H 
BRANCH  10  13
ATOM     13  C3  SPM d          -6.649   2.655  17.632  0.00  0.00    -0.020 C 
ATOM     14  H6  SPM d          -6.726   3.350  18.481  0.00  0.00     0.037 H 
ATOM     15  H7  SPM d          -7.577   2.069  17.553  0.00  0.00     0.037 H 
BRANCH  13  16
ATOM     16  C2  SPM d          -5.492   1.711  17.875  0.00  0.00     0.081 C 
ATOM     17  H4  SPM d          -4.739   1.830  17.082  0.00  0.00     0.075 H 
ATOM     18  H5  SPM d          -5.033   1.926  18.851  0.00  0.00     0.075 H 
BRANCH  16  19
ATOM     19  N1  SPM d          -6.009   0.365  17.862  0.00  0.00    -0.079 N 
ATOM     20  H1  SPM d          -5.256  -0.286  18.022  0.00  0.00     0.274 HD
ATOM     21  H2  SPM d          -6.432   0.176  16.967  0.00  0.00     0.274 HD
ATOM     22  H3  SPM d          -6.701   0.264  18.588  0.00  0.00     0.274 HD
ENDBRANCH  16  19
ENDBRANCH  13  16
ENDBRANCH  10  13
ENDBRANCH   7  10
ENDBRANCH   4   7
ENDBRANCH   1   4
BRANCH   1  23
ATOM     23  C8  SPM d          -4.612   2.279  12.753  0.00  0.00    -0.041 C 
ATOM     24  H16 SPM d          -5.365   1.708  12.191  0.00  0.00     0.035 H 
ATOM     25  H17 SPM d          -3.746   2.481  12.105  0.00  0.00     0.035 H 
BRANCH  23  26
ATOM     26  C9  SPM d          -5.203   3.572  13.244  0.00  0.00     0.082 C 
ATOM     27  H18 SPM d          -6.054   3.354  13.906  0.00  0.00     0.075 H 
ATOM     28  H19 SPM d          -5.550   4.163  12.383  0.00  0.00     0.075 H 
BRANCH  26  29
ATOM     29  N10 SPM d          -4.213   4.328  13.973  0.00  0.00    -0.075 N 
ATOM     30  H20 SPM d          -3.402   4.366  13.375  0.00  0.00     0.277 HD
ATOM     31  H21 SPM d          -4.001   3.782  14.793  0.00  0.00     0.277 HD
BRANCH  29  32
ATOM     32  C11 SPM d          -4.417   5.667  14.438  0.00  0.00     0.083 C 
ATOM     33  H22 SPM d          -5.300   5.695  15.093  0.00  0.00     0.075 H 
ATOM     34  H23 SPM d          -4.578   6.332  13.576  0.00  0.00     0.075 H 
BRANCH  32  35
ATOM     35  C12 SPM d          -3.202   6.134  15.213  0.00  0.00    -0.020 C 
ATOM     36  H24 SPM d          -3.189   5.627  16.189  0.00  0.00     0.037 H 
ATOM     37  H25 SPM d          -3.277   7.221  15.365  0.00  0.00     0.037 H 
BRANCH  35  38
ATOM     38  C13 SPM d          -1.894   5.830  14.486  0.00  0.00     0.081 C 
ATOM     39  H26 SPM d          -1.254   6.724  14.510  0.00  0.00     0.075 H 
ATOM     40  H27 SPM d          -2.117   5.567  13.441  0.00  0.00     0.075 H 
BRANCH  38  41
ATOM     41  N14 SPM d          -1.191   4.729  15.111  0.00  0.00    -0.079 N 
ATOM     42  H28 SPM d          -0.334   4.551  14.611  0.00  0.00     0.274 HD
ATOM     43  H29 SPM d          -1.770   3.904  15.089  0.00  0.00     0.274 HD
ATOM     44  H30 SPM d          -0.980   4.965  16.068  0.00  0.00     0.274 HD
ENDBRANCH  38  41
ENDBRANCH  35  38
ENDBRANCH  32  35
ENDBRANCH  29  32
ENDBRANCH  26  29
ENDBRANCH  23  26
ENDBRANCH   1  23
TORSDOF 13
