MODEL 1
REMARK VINA RESULT:      -7.9      0.000      0.000
REMARK  6 active torsions:
REMARK  status: ('A' for Active; 'I' for Inactive)
REMARK    1  A    between atoms: C10_2  and  C11_3 
REMARK    2  A    between atoms: C4_18  and  N9_17 
REMARK    3  A    between atoms: N9_17  and  C8_24 
REMARK    4  A    between atoms: C1_21  and  C18_22 
REMARK    5  A    between atoms: C8_24  and  C23_23 
REMARK    6  A    between atoms: C23_23  and  O24_25 
ROOT
ATOM      1  C2  PFQ d          13.256  -0.162  10.028  0.00  0.00     0.091 A 
ATOM      2  C10 PFQ d          17.395  -1.835   9.662  0.00  0.00     0.100 A 
ATOM      3  N1  PFQ d          14.444   0.085   9.500  0.00  0.00    -0.217 NA
ATOM      4  C6  PFQ d          15.458  -0.776   9.670  0.00  0.00     0.186 A 
ATOM      5  O6  PFQ d          16.744  -0.724   9.231  0.00  0.00    -0.289 OA
ATOM      6  C5  PFQ d          15.280  -1.946  10.407  0.00  0.00     0.077 A 
ATOM      7  C4  PFQ d          14.010  -2.171  10.947  0.00  0.00     0.140 A 
ATOM      8  N3  PFQ d          13.044  -1.260  10.730  0.00  0.00    -0.224 NA
ATOM      9  C1  PFQ d          16.507  -2.621  10.407  0.00  0.00     0.027 A 
ATOM     10  H1  PFQ d          12.448   0.544   9.881  0.00  0.00     0.146 H 
ENDROOT
BRANCH   2  11
ATOM     11  C11 PFQ d          18.733  -1.993   9.315  0.00  0.00    -0.001 A 
ATOM     12  C12 PFQ d          19.610  -2.874   9.946  0.00  0.00    -0.070 A 
ATOM     13  C13 PFQ d          20.931  -2.947   9.498  0.00  0.00    -0.082 A 
ATOM     14  H2  PFQ d          19.271  -3.493  10.769  0.00  0.00     0.084 H 
ATOM     15  C14 PFQ d          21.364  -2.159   8.431  0.00  0.00    -0.083 A 
ATOM     16  H3  PFQ d          21.626  -3.623   9.984  0.00  0.00     0.083 H 
ATOM     17  C15 PFQ d          20.488  -1.273   7.802  0.00  0.00    -0.082 A 
ATOM     18  H4  PFQ d          22.390  -2.235   8.088  0.00  0.00     0.083 H 
ATOM     19  C16 PFQ d          19.176  -1.221   8.243  0.00  0.00    -0.070 A 
ATOM     20  H5  PFQ d          20.826  -0.641   6.988  0.00  0.00     0.083 H 
ATOM     21  H6  PFQ d          18.475  -0.564   7.742  0.00  0.00     0.084 H 
ENDBRANCH   2  11
BRANCH   9  22
ATOM     22  C18 PFQ d          16.717  -3.851  11.052  0.00  0.00    -0.022 A 
ATOM     23  C19 PFQ d          17.037  -3.873  12.414  0.00  0.00    -0.072 A 
ATOM     24  C20 PFQ d          17.286  -5.067  13.096  0.00  0.00    -0.082 A 
ATOM     25  H7  PFQ d          17.094  -2.935  12.956  0.00  0.00     0.084 H 
ATOM     26  C21 PFQ d          17.218  -6.272  12.395  0.00  0.00    -0.083 A 
ATOM     27  H8  PFQ d          17.529  -5.058  14.152  0.00  0.00     0.083 H 
ATOM     28  C22 PFQ d          16.903  -6.255  11.023  0.00  0.00    -0.082 A 
ATOM     29  H9  PFQ d          17.405  -7.212  12.902  0.00  0.00     0.083 H 
ATOM     30  C17 PFQ d          16.656  -5.056  10.347  0.00  0.00    -0.072 A 
ATOM     31  H10 PFQ d          16.851  -7.191  10.479  0.00  0.00     0.083 H 
ATOM     32  H12 PFQ d          16.421  -5.061   9.289  0.00  0.00     0.084 H 
ENDBRANCH   9  22
BRANCH   7  33
ATOM     33  N9  PFQ d          13.721  -3.255  11.676  0.00  0.00    -0.372 N 
ATOM     34  H11 PFQ d          14.473  -3.908  11.940  0.00  0.00     0.161 HD
BRANCH  33  35
ATOM     35  C8  PFQ d          12.335  -3.524  12.106  0.00  0.00     0.013 C 
ATOM     36  H15 PFQ d          12.134  -4.603  12.032  0.00  0.00     0.067 H 
ATOM     37  H16 PFQ d          11.640  -2.975  11.453  0.00  0.00     0.067 H 
BRANCH  35  38
ATOM     38  C23 PFQ d          12.131  -3.069  13.559  0.00  0.00     0.031 C 
ATOM     39  H13 PFQ d          13.062  -3.225  14.124  0.00  0.00     0.076 H 
ATOM     40  H14 PFQ d          11.323  -3.658  14.016  0.00  0.00     0.076 H 
BRANCH  38  41
ATOM     41  O24 PFQ d          11.783  -1.679  13.592  0.00  0.00    -0.399 OA
ATOM     42  H17 PFQ d          11.974  -1.286  12.748  0.00  0.00     0.209 HD
ENDBRANCH  38  41
ENDBRANCH  35  38
ENDBRANCH  33  35
ENDBRANCH   7  33
TORSDOF 6
ENDMDL
MODEL 2
REMARK VINA RESULT:      -7.8      1.330      1.953
REMARK  6 active torsions:
REMARK  status: ('A' for Active; 'I' for Inactive)
REMARK    1  A    between atoms: C10_2  and  C11_3 
REMARK    2  A    between atoms: C4_18  and  N9_17 
REMARK    3  A    between atoms: N9_17  and  C8_24 
REMARK    4  A    between atoms: C1_21  and  C18_22 
REMARK    5  A    between atoms: C8_24  and  C23_23 
REMARK    6  A    between atoms: C23_23  and  O24_25 
ROOT
ATOM      1  C2  PFQ d          15.359   0.287   9.124  0.00  0.00     0.091 A 
ATOM      2  C10 PFQ d          18.868  -2.390   9.885  0.00  0.00     0.100 A 
ATOM      3  N1  PFQ d          16.665   0.190   8.932  0.00  0.00    -0.217 NA
ATOM      4  C6  PFQ d          17.340  -0.883   9.371  0.00  0.00     0.186 A 
ATOM      5  O6  PFQ d          18.663  -1.186   9.291  0.00  0.00    -0.289 OA
ATOM      6  C5  PFQ d          16.680  -1.914  10.038  0.00  0.00     0.077 A 
ATOM      7  C4  PFQ d          15.300  -1.773  10.221  0.00  0.00     0.140 A 
ATOM      8  N3  PFQ d          14.695  -0.668   9.750  0.00  0.00    -0.224 NA
ATOM      9  C1  PFQ d          17.646  -2.872  10.369  0.00  0.00     0.027 A 
ATOM     10  H1  PFQ d          14.829   1.160   8.764  0.00  0.00     0.146 H 
ENDROOT
BRANCH   2  11
ATOM     11  C11 PFQ d          20.162  -2.904   9.909  0.00  0.00    -0.001 A 
ATOM     12  C12 PFQ d          20.844  -3.367   8.785  0.00  0.00    -0.070 A 
ATOM     13  C13 PFQ d          22.144  -3.852   8.939  0.00  0.00    -0.082 A 
ATOM     14  H2  PFQ d          20.373  -3.350   7.809  0.00  0.00     0.084 H 
ATOM     15  C14 PFQ d          22.755  -3.864  10.194  0.00  0.00    -0.083 A 
ATOM     16  H3  PFQ d          22.685  -4.223   8.075  0.00  0.00     0.083 H 
ATOM     17  C15 PFQ d          22.071  -3.404  11.320  0.00  0.00    -0.082 A 
ATOM     18  H4  PFQ d          23.769  -4.234  10.295  0.00  0.00     0.083 H 
ATOM     19  C16 PFQ d          20.787  -2.910  11.153  0.00  0.00    -0.070 A 
ATOM     20  H5  PFQ d          22.532  -3.434  12.301  0.00  0.00     0.083 H 
ATOM     21  H6  PFQ d          20.257  -2.517  12.012  0.00  0.00     0.084 H 
ENDBRANCH   2  11
BRANCH   9  22
ATOM     22  C18 PFQ d          17.355  -4.065  11.052  0.00  0.00    -0.022 A 
ATOM     23  C19 PFQ d          17.425  -4.097  12.449  0.00  0.00    -0.072 A 
ATOM     24  C20 PFQ d          17.176  -5.265  13.175  0.00  0.00    -0.082 A 
ATOM     25  H7  PFQ d          17.681  -3.189  12.984  0.00  0.00     0.084 H 
ATOM     26  C21 PFQ d          16.852  -6.434  12.484  0.00  0.00    -0.083 A 
ATOM     27  H8  PFQ d          17.233  -5.263  14.257  0.00  0.00     0.083 H 
ATOM     28  C22 PFQ d          16.787  -6.407  11.078  0.00  0.00    -0.082 A 
ATOM     29  H9  PFQ d          16.653  -7.352  13.025  0.00  0.00     0.083 H 
ATOM     30  C17 PFQ d          17.040  -5.235  10.359  0.00  0.00    -0.072 A 
ATOM     31  H10 PFQ d          16.537  -7.316  10.542  0.00  0.00     0.083 H 
ATOM     32  H12 PFQ d          16.991  -5.235   9.275  0.00  0.00     0.084 H 
ENDBRANCH   9  22
BRANCH   7  33
ATOM     33  N9  PFQ d          14.562  -2.694  10.851  0.00  0.00    -0.372 N 
ATOM     34  H11 PFQ d          14.328  -3.575  10.373  0.00  0.00     0.161 HD
BRANCH  33  35
ATOM     35  C8  PFQ d          14.080  -2.457  12.226  0.00  0.00     0.013 C 
ATOM     36  H15 PFQ d          14.707  -1.690  12.704  0.00  0.00     0.067 H 
ATOM     37  H16 PFQ d          14.144  -3.393  12.799  0.00  0.00     0.067 H 
BRANCH  35  38
ATOM     38  C23 PFQ d          12.621  -1.976  12.202  0.00  0.00     0.031 C 
ATOM     39  H13 PFQ d          12.122  -2.281  13.133  0.00  0.00     0.076 H 
ATOM     40  H14 PFQ d          12.103  -2.426  11.343  0.00  0.00     0.076 H 
BRANCH  38  41
ATOM     41  O24 PFQ d          12.580  -0.547  12.087  0.00  0.00    -0.399 OA
ATOM     42  H17 PFQ d          13.462  -0.200  12.151  0.00  0.00     0.209 HD
ENDBRANCH  38  41
ENDBRANCH  35  38
ENDBRANCH  33  35
ENDBRANCH   7  33
TORSDOF 6
ENDMDL
MODEL 3
REMARK VINA RESULT:      -7.1      3.048      6.996
REMARK  6 active torsions:
REMARK  status: ('A' for Active; 'I' for Inactive)
REMARK    1  A    between atoms: C10_2  and  C11_3 
REMARK    2  A    between atoms: C4_18  and  N9_17 
REMARK    3  A    between atoms: N9_17  and  C8_24 
REMARK    4  A    between atoms: C1_21  and  C18_22 
REMARK    5  A    between atoms: C8_24  and  C23_23 
REMARK    6  A    between atoms: C23_23  and  O24_25 
ROOT
ATOM      1  C2  PFQ d          18.781  -6.833  12.815  0.00  0.00     0.091 A 
ATOM      2  C10 PFQ d          15.396  -3.947  12.302  0.00  0.00     0.100 A 
ATOM      3  N1  PFQ d          17.557  -6.567  13.240  0.00  0.00    -0.217 NA
ATOM      4  C6  PFQ d          16.882  -5.513  12.758  0.00  0.00     0.186 A 
ATOM      5  O6  PFQ d          15.637  -5.054  13.050  0.00  0.00    -0.289 OA
ATOM      6  C5  PFQ d          17.459  -4.677  11.803  0.00  0.00     0.077 A 
ATOM      7  C4  PFQ d          18.755  -4.992  11.380  0.00  0.00     0.140 A 
ATOM      8  N3  PFQ d          19.364  -6.069  11.910  0.00  0.00    -0.224 NA
ATOM      9  C1  PFQ d          16.521  -3.679  11.511  0.00  0.00     0.027 A 
ATOM     10  H1  PFQ d          19.313  -7.689  13.214  0.00  0.00     0.146 H 
ENDROOT
BRANCH   2  11
ATOM     11  C11 PFQ d          14.163  -3.314  12.435  0.00  0.00    -0.001 A 
ATOM     12  C12 PFQ d          13.982  -2.063  13.022  0.00  0.00    -0.070 A 
ATOM     13  C13 PFQ d          12.693  -1.530  13.089  0.00  0.00    -0.082 A 
ATOM     14  H2  PFQ d          14.827  -1.514  13.420  0.00  0.00     0.084 H 
ATOM     15  C14 PFQ d          11.606  -2.233  12.567  0.00  0.00    -0.083 A 
ATOM     16  H3  PFQ d          12.535  -0.562  13.550  0.00  0.00     0.083 H 
ATOM     17  C15 PFQ d          11.786  -3.488  11.983  0.00  0.00    -0.082 A 
ATOM     18  H4  PFQ d          10.612  -1.801  12.617  0.00  0.00     0.083 H 
ATOM     19  C16 PFQ d          13.071  -3.999  11.907  0.00  0.00    -0.070 A 
ATOM     20  H5  PFQ d          10.941  -4.048  11.597  0.00  0.00     0.083 H 
ATOM     21  H6  PFQ d          13.231  -4.956  11.425  0.00  0.00     0.084 H 
ENDBRANCH   2  11
BRANCH   9  22
ATOM     22  C18 PFQ d          16.745  -2.648  10.584  0.00  0.00    -0.022 A 
ATOM     23  C19 PFQ d          17.685  -1.652  10.871  0.00  0.00    -0.072 A 
ATOM     24  C20 PFQ d          17.924  -0.587   9.998  0.00  0.00    -0.082 A 
ATOM     25  H7  PFQ d          18.244  -1.707  11.799  0.00  0.00     0.084 H 
ATOM     26  C21 PFQ d          17.200  -0.516   8.806  0.00  0.00    -0.083 A 
ATOM     27  H8  PFQ d          18.660   0.170  10.242  0.00  0.00     0.083 H 
ATOM     28  C22 PFQ d          16.250  -1.512   8.517  0.00  0.00    -0.082 A 
ATOM     29  H9  PFQ d          17.369   0.299   8.111  0.00  0.00     0.083 H 
ATOM     30  C17 PFQ d          16.014  -2.573   9.397  0.00  0.00    -0.072 A 
ATOM     31  H10 PFQ d          15.687  -1.455   7.591  0.00  0.00     0.083 H 
ATOM     32  H12 PFQ d          15.274  -3.329   9.160  0.00  0.00     0.084 H 
ENDBRANCH   9  22
BRANCH   7  33
ATOM     33  N9  PFQ d          19.412  -4.260  10.473  0.00  0.00    -0.372 N 
ATOM     34  H11 PFQ d          18.988  -4.092   9.549  0.00  0.00     0.161 HD
BRANCH  33  35
ATOM     35  C8  PFQ d          20.738  -3.693  10.785  0.00  0.00     0.013 C 
ATOM     36  H15 PFQ d          21.374  -4.475  11.225  0.00  0.00     0.067 H 
ATOM     37  H16 PFQ d          20.620  -2.868  11.504  0.00  0.00     0.067 H 
BRANCH  35  38
ATOM     38  C23 PFQ d          21.402  -3.159   9.506  0.00  0.00     0.031 C 
ATOM     39  H13 PFQ d          22.489  -3.099   9.658  0.00  0.00     0.076 H 
ATOM     40  H14 PFQ d          21.007  -2.158   9.281  0.00  0.00     0.076 H 
BRANCH  38  41
ATOM     41  O24 PFQ d          21.123  -4.038   8.408  0.00  0.00    -0.399 OA
ATOM     42  H17 PFQ d          20.473  -4.678   8.673  0.00  0.00     0.209 HD
ENDBRANCH  38  41
ENDBRANCH  35  38
ENDBRANCH  33  35
ENDBRANCH   7  33
TORSDOF 6
ENDMDL
MODEL 4
REMARK VINA RESULT:      -7.0      3.487      7.210
REMARK  6 active torsions:
REMARK  status: ('A' for Active; 'I' for Inactive)
REMARK    1  A    between atoms: C10_2  and  C11_3 
REMARK    2  A    between atoms: C4_18  and  N9_17 
REMARK    3  A    between atoms: N9_17  and  C8_24 
REMARK    4  A    between atoms: C1_21  and  C18_22 
REMARK    5  A    between atoms: C8_24  and  C23_23 
REMARK    6  A    between atoms: C23_23  and  O24_25 
ROOT
ATOM      1  C2  PFQ d          21.983  -5.000  11.091  0.00  0.00     0.091 A 
ATOM      2  C10 PFQ d          17.651  -4.274  11.964  0.00  0.00     0.100 A 
ATOM      3  N1  PFQ d          20.989  -5.400  11.867  0.00  0.00    -0.217 NA
ATOM      4  C6  PFQ d          19.772  -4.847  11.755  0.00  0.00     0.186 A 
ATOM      5  O6  PFQ d          18.624  -5.093  12.440  0.00  0.00    -0.289 OA
ATOM      6  C5  PFQ d          19.533  -3.840  10.820  0.00  0.00     0.077 A 
ATOM      7  C4  PFQ d          20.610  -3.446  10.019  0.00  0.00     0.140 A 
ATOM      8  N3  PFQ d          21.799  -4.051  10.192  0.00  0.00    -0.224 NA
ATOM      9  C1  PFQ d          18.189  -3.471  10.951  0.00  0.00     0.027 A 
ATOM     10  H1  PFQ d          22.960  -5.457  11.195  0.00  0.00     0.146 H 
ENDROOT
BRANCH   2  11
ATOM     11  C11 PFQ d          16.379  -4.365  12.522  0.00  0.00    -0.001 A 
ATOM     12  C12 PFQ d          15.608  -3.269  12.905  0.00  0.00    -0.070 A 
ATOM     13  C13 PFQ d          14.341  -3.492  13.446  0.00  0.00    -0.082 A 
ATOM     14  H2  PFQ d          15.987  -2.260  12.784  0.00  0.00     0.084 H 
ATOM     15  C14 PFQ d          13.849  -4.790  13.592  0.00  0.00    -0.083 A 
ATOM     16  H3  PFQ d          13.732  -2.649  13.755  0.00  0.00     0.083 H 
ATOM     17  C15 PFQ d          14.622  -5.888  13.213  0.00  0.00    -0.082 A 
ATOM     18  H4  PFQ d          12.858  -4.947  14.004  0.00  0.00     0.083 H 
ATOM     19  C16 PFQ d          15.871  -5.654  12.662  0.00  0.00    -0.070 A 
ATOM     20  H5  PFQ d          14.254  -6.899  13.347  0.00  0.00     0.083 H 
ATOM     21  H6  PFQ d          16.469  -6.496  12.331  0.00  0.00     0.084 H 
ENDBRANCH   2  11
BRANCH   9  22
ATOM     22  C18 PFQ d          17.576  -2.478  10.168  0.00  0.00    -0.022 A 
ATOM     23  C19 PFQ d          17.989  -1.147  10.291  0.00  0.00    -0.072 A 
ATOM     24  C20 PFQ d          17.392  -0.117   9.559  0.00  0.00    -0.082 A 
ATOM     25  H7  PFQ d          18.796  -0.907  10.975  0.00  0.00     0.084 H 
ATOM     26  C21 PFQ d          16.350  -0.427   8.683  0.00  0.00    -0.083 A 
ATOM     27  H8  PFQ d          17.732   0.906   9.669  0.00  0.00     0.083 H 
ATOM     28  C22 PFQ d          15.927  -1.764   8.561  0.00  0.00    -0.082 A 
ATOM     29  H9  PFQ d          15.872   0.354   8.102  0.00  0.00     0.083 H 
ATOM     30  C17 PFQ d          16.528  -2.789   9.298  0.00  0.00    -0.072 A 
ATOM     31  H10 PFQ d          15.117  -2.003   7.881  0.00  0.00     0.083 H 
ATOM     32  H12 PFQ d          16.185  -3.812   9.196  0.00  0.00     0.084 H 
ENDBRANCH   9  22
BRANCH   7  33
ATOM     33  N9  PFQ d          20.502  -2.487   9.092  0.00  0.00    -0.372 N 
ATOM     34  H11 PFQ d          19.844  -1.709   9.238  0.00  0.00     0.161 HD
BRANCH  33  35
ATOM     35  C8  PFQ d          21.319  -2.536   7.863  0.00  0.00     0.013 C 
ATOM     36  H15 PFQ d          20.658  -2.644   6.991  0.00  0.00     0.067 H 
ATOM     37  H16 PFQ d          22.002  -3.397   7.915  0.00  0.00     0.067 H 
BRANCH  35  38
ATOM     38  C23 PFQ d          22.141  -1.246   7.720  0.00  0.00     0.031 C 
ATOM     39  H13 PFQ d          22.361  -1.070   6.657  0.00  0.00     0.076 H 
ATOM     40  H14 PFQ d          23.083  -1.350   8.278  0.00  0.00     0.076 H 
BRANCH  38  41
ATOM     41  O24 PFQ d          21.400  -0.135   8.242  0.00  0.00    -0.399 OA
ATOM     42  H17 PFQ d          21.854   0.673   8.034  0.00  0.00     0.209 HD
ENDBRANCH  38  41
ENDBRANCH  35  38
ENDBRANCH  33  35
ENDBRANCH   7  33
TORSDOF 6
ENDMDL
MODEL 5
REMARK VINA RESULT:      -6.6      2.192      4.227
REMARK  6 active torsions:
REMARK  status: ('A' for Active; 'I' for Inactive)
REMARK    1  A    between atoms: C10_2  and  C11_3 
REMARK    2  A    between atoms: C4_18  and  N9_17 
REMARK    3  A    between atoms: N9_17  and  C8_24 
REMARK    4  A    between atoms: C1_21  and  C18_22 
REMARK    5  A    between atoms: C8_24  and  C23_23 
REMARK    6  A    between atoms: C23_23  and  O24_25 
ROOT
ATOM      1  C2  PFQ d          15.839  -6.179  13.561  0.00  0.00     0.091 A 
ATOM      2  C10 PFQ d          19.038  -4.141  11.180  0.00  0.00     0.100 A 
ATOM      3  N1  PFQ d          17.138  -6.207  13.311  0.00  0.00    -0.217 NA
ATOM      4  C6  PFQ d          17.687  -5.327  12.461  0.00  0.00     0.186 A 
ATOM      5  O6  PFQ d          18.976  -5.176  12.056  0.00  0.00    -0.289 OA
ATOM      6  C5  PFQ d          16.900  -4.369  11.824  0.00  0.00     0.077 A 
ATOM      7  C4  PFQ d          15.531  -4.372  12.116  0.00  0.00     0.140 A 
ATOM      8  N3  PFQ d          15.058  -5.287  12.981  0.00  0.00    -0.224 NA
ATOM      9  C1  PFQ d          17.751  -3.614  11.008  0.00  0.00     0.027 A 
ATOM     10  H1  PFQ d          15.411  -6.898  14.250  0.00  0.00     0.146 H 
ENDROOT
BRANCH   2  11
ATOM     11  C11 PFQ d          20.276  -3.802  10.643  0.00  0.00    -0.001 A 
ATOM     12  C12 PFQ d          20.496  -3.508   9.299  0.00  0.00    -0.070 A 
ATOM     13  C13 PFQ d          21.787  -3.173   8.884  0.00  0.00    -0.082 A 
ATOM     14  H2  PFQ d          19.679  -3.538   8.587  0.00  0.00     0.084 H 
ATOM     15  C14 PFQ d          22.837  -3.124   9.801  0.00  0.00    -0.083 A 
ATOM     16  H3  PFQ d          21.975  -2.949   7.840  0.00  0.00     0.083 H 
ATOM     17  C15 PFQ d          22.619  -3.423  11.147  0.00  0.00    -0.082 A 
ATOM     18  H4  PFQ d          23.832  -2.852   9.466  0.00  0.00     0.083 H 
ATOM     19  C16 PFQ d          21.331  -3.737  11.550  0.00  0.00    -0.070 A 
ATOM     20  H5  PFQ d          23.437  -3.409  11.859  0.00  0.00     0.083 H 
ATOM     21  H6  PFQ d          21.140  -3.937  12.598  0.00  0.00     0.084 H 
ENDBRANCH   2  11
BRANCH   9  22
ATOM     22  C18 PFQ d          17.315  -2.546  10.206  0.00  0.00    -0.022 A 
ATOM     23  C19 PFQ d          17.764  -1.249  10.478  0.00  0.00    -0.072 A 
ATOM     24  C20 PFQ d          17.337  -0.147   9.732  0.00  0.00    -0.082 A 
ATOM     25  H7  PFQ d          18.463  -1.093  11.293  0.00  0.00     0.084 H 
ATOM     26  C21 PFQ d          16.433  -0.349   8.687  0.00  0.00    -0.083 A 
ATOM     27  H8  PFQ d          17.701   0.847   9.960  0.00  0.00     0.083 H 
ATOM     28  C22 PFQ d          15.974  -1.651   8.414  0.00  0.00    -0.082 A 
ATOM     29  H9  PFQ d          16.088   0.489   8.092  0.00  0.00     0.083 H 
ATOM     30  C17 PFQ d          16.405  -2.748   9.167  0.00  0.00    -0.072 A 
ATOM     31  H10 PFQ d          15.272  -1.807   7.603  0.00  0.00     0.083 H 
ATOM     32  H12 PFQ d          16.036  -3.744   8.946  0.00  0.00     0.084 H 
ENDBRANCH   9  22
BRANCH   7  33
ATOM     33  N9  PFQ d          14.677  -3.505  11.562  0.00  0.00    -0.372 N 
ATOM     34  H11 PFQ d          14.597  -3.452  10.536  0.00  0.00     0.161 HD
BRANCH  33  35
ATOM     35  C8  PFQ d          13.847  -2.625  12.408  0.00  0.00     0.013 C 
ATOM     36  H15 PFQ d          14.034  -1.576  12.134  0.00  0.00     0.067 H 
ATOM     37  H16 PFQ d          14.112  -2.782  13.464  0.00  0.00     0.067 H 
BRANCH  35  38
ATOM     38  C23 PFQ d          12.357  -2.944  12.206  0.00  0.00     0.031 C 
ATOM     39  H13 PFQ d          12.095  -2.803  11.147  0.00  0.00     0.076 H 
ATOM     40  H14 PFQ d          11.752  -2.267  12.827  0.00  0.00     0.076 H 
BRANCH  38  41
ATOM     41  O24 PFQ d          12.093  -4.301  12.585  0.00  0.00    -0.399 OA
ATOM     42  H17 PFQ d          11.560  -4.310  13.372  0.00  0.00     0.209 HD
ENDBRANCH  38  41
ENDBRANCH  35  38
ENDBRANCH  33  35
ENDBRANCH   7  33
TORSDOF 6
ENDMDL
MODEL 6
REMARK VINA RESULT:      -6.2      2.355      4.373
REMARK  6 active torsions:
REMARK  status: ('A' for Active; 'I' for Inactive)
REMARK    1  A    between atoms: C10_2  and  C11_3 
REMARK    2  A    between atoms: C4_18  and  N9_17 
REMARK    3  A    between atoms: N9_17  and  C8_24 
REMARK    4  A    between atoms: C1_21  and  C18_22 
REMARK    5  A    between atoms: C8_24  and  C23_23 
REMARK    6  A    between atoms: C23_23  and  O24_25 
ROOT
ATOM      1  C2  PFQ d          13.504  -5.480  13.466  0.00  0.00     0.091 A 
ATOM      2  C10 PFQ d          17.735  -5.007  12.074  0.00  0.00     0.100 A 
ATOM      3  N1  PFQ d          14.708  -6.020  13.568  0.00  0.00    -0.217 NA
ATOM      4  C6  PFQ d          15.752  -5.484  12.918  0.00  0.00     0.186 A 
ATOM      5  O6  PFQ d          17.055  -5.869  12.873  0.00  0.00    -0.289 OA
ATOM      6  C5  PFQ d          15.589  -4.352  12.122  0.00  0.00     0.077 A 
ATOM      7  C4  PFQ d          14.301  -3.811  12.041  0.00  0.00     0.140 A 
ATOM      8  N3  PFQ d          13.306  -4.405  12.724  0.00  0.00    -0.224 NA
ATOM      9  C1  PFQ d          16.844  -4.045  11.582  0.00  0.00     0.027 A 
ATOM     10  H1  PFQ d          12.671  -5.925  13.996  0.00  0.00     0.146 H 
ENDROOT
BRANCH   2  11
ATOM     11  C11 PFQ d          19.100  -5.209  11.894  0.00  0.00    -0.001 A 
ATOM     12  C12 PFQ d          19.995  -4.218  11.495  0.00  0.00    -0.070 A 
ATOM     13  C13 PFQ d          21.346  -4.545  11.358  0.00  0.00    -0.082 A 
ATOM     14  H2  PFQ d          19.649  -3.211  11.296  0.00  0.00     0.084 H 
ATOM     15  C14 PFQ d          21.794  -5.840  11.624  0.00  0.00    -0.083 A 
ATOM     16  H3  PFQ d          22.053  -3.787  11.041  0.00  0.00     0.083 H 
ATOM     17  C15 PFQ d          20.898  -6.834  12.019  0.00  0.00    -0.082 A 
ATOM     18  H4  PFQ d          22.848  -6.076  11.523  0.00  0.00     0.083 H 
ATOM     19  C16 PFQ d          19.563  -6.494  12.169  0.00  0.00    -0.070 A 
ATOM     20  H5  PFQ d          21.237  -7.847  12.204  0.00  0.00     0.083 H 
ATOM     21  H6  PFQ d          18.861  -7.246  12.508  0.00  0.00     0.084 H 
ENDBRANCH   2  11
BRANCH   9  22
ATOM     22  C18 PFQ d          17.076  -2.958  10.724  0.00  0.00    -0.022 A 
ATOM     23  C19 PFQ d          17.814  -1.860  11.181  0.00  0.00    -0.072 A 
ATOM     24  C20 PFQ d          18.048  -0.740  10.379  0.00  0.00    -0.082 A 
ATOM     25  H7  PFQ d          18.216  -1.879  12.188  0.00  0.00     0.084 H 
ATOM     26  C21 PFQ d          17.525  -0.716   9.084  0.00  0.00    -0.083 A 
ATOM     27  H8  PFQ d          18.625   0.096  10.755  0.00  0.00     0.083 H 
ATOM     28  C22 PFQ d          16.777  -1.815   8.623  0.00  0.00    -0.082 A 
ATOM     29  H9  PFQ d          17.694   0.141   8.441  0.00  0.00     0.083 H 
ATOM     30  C17 PFQ d          16.546  -2.932   9.432  0.00  0.00    -0.072 A 
ATOM     31  H10 PFQ d          16.371  -1.795   7.617  0.00  0.00     0.083 H 
ATOM     32  H12 PFQ d          15.962  -3.767   9.061  0.00  0.00     0.084 H 
ENDBRANCH   9  22
BRANCH   7  33
ATOM     33  N9  PFQ d          14.022  -2.729  11.304  0.00  0.00    -0.372 N 
ATOM     34  H11 PFQ d          14.751  -2.317  10.706  0.00  0.00     0.161 HD
BRANCH  33  35
ATOM     35  C8  PFQ d          12.677  -2.122  11.343  0.00  0.00     0.013 C 
ATOM     36  H15 PFQ d          12.034  -2.703  12.022  0.00  0.00     0.067 H 
ATOM     37  H16 PFQ d          12.245  -2.133  10.331  0.00  0.00     0.067 H 
BRANCH  35  38
ATOM     38  C23 PFQ d          12.762  -0.672  11.842  0.00  0.00     0.031 C 
ATOM     39  H13 PFQ d          12.723   0.012  10.982  0.00  0.00     0.076 H 
ATOM     40  H14 PFQ d          13.709  -0.528  12.383  0.00  0.00     0.076 H 
BRANCH  38  41
ATOM     41  O24 PFQ d          11.665  -0.393  12.722  0.00  0.00    -0.399 OA
ATOM     42  H17 PFQ d          10.848  -0.497  12.250  0.00  0.00     0.209 HD
ENDBRANCH  38  41
ENDBRANCH  35  38
ENDBRANCH  33  35
ENDBRANCH   7  33
TORSDOF 6
ENDMDL
