MODEL 1
REMARK VINA RESULT:      -6.5      0.000      0.000
REMARK  6 active torsions:
REMARK  status: ('A' for Active; 'I' for Inactive)
REMARK    1  A    between atoms: C1_1  and  O1_7 
REMARK    2  A    between atoms: C2_2  and  O2_8 
REMARK    3  A    between atoms: C3_3  and  O3_9 
REMARK    4  A    between atoms: C4_4  and  O4_10 
REMARK    5  A    between atoms: C5_5  and  C6_6 
REMARK    6  A    between atoms: O1_7  and  CM_12 
ROOT
ATOM      1  C1  MFU d         -40.054  20.472  11.011  0.00  0.00     0.158 C 
ATOM      2  C2  MFU d         -38.670  19.932  11.214  0.00  0.00     0.110 C 
ATOM      3  C3  MFU d         -38.157  20.305  12.618  0.00  0.00     0.092 C 
ATOM      4  C4  MFU d         -39.102  19.935  13.755  0.00  0.00     0.087 C 
ATOM      5  C5  MFU d         -40.456  20.550  13.442  0.00  0.00     0.065 C 
ATOM      6  O5  MFU d         -40.893  20.077  12.139  0.00  0.00    -0.351 OA
ATOM      7  H1  MFU d         -40.476  20.077  10.075  0.00  0.00     0.133 H 
ATOM      8  H2  MFU d         -38.727  18.835  11.145  0.00  0.00     0.094 H 
ATOM      9  H3  MFU d         -37.982  21.391  12.652  0.00  0.00     0.091 H 
ATOM     10  H4  MFU d         -38.732  20.349  14.705  0.00  0.00     0.091 H 
ATOM     11  H5  MFU d         -40.310  21.637  13.359  0.00  0.00     0.086 H 
ENDROOT
BRANCH   1  12
ATOM     12  O1  MFU d         -39.990  21.913  10.949  0.00  0.00    -0.363 OA
BRANCH  12  13
ATOM     13  CM  MFU d         -41.045  22.401  10.069  0.00  0.00     0.007 C 
ATOM     14  H12 MFU d         -41.035  21.826   9.131  0.00  0.00     0.066 H 
ATOM     15  H13 MFU d         -40.876  23.465   9.849  0.00  0.00     0.066 H 
ATOM     16  H14 MFU d         -42.020  22.279  10.564  0.00  0.00     0.066 H 
ENDBRANCH  12  13
ENDBRANCH   1  12
BRANCH   2  17
ATOM     17  O2  MFU d         -37.722  20.391  10.213  0.00  0.00    -0.388 OA
ATOM     18  H9  MFU d         -38.038  20.156   9.348  0.00  0.00     0.210 HD
ENDBRANCH   2  17
BRANCH   3  19
ATOM     19  O3  MFU d         -36.911  19.602  12.811  0.00  0.00    -0.390 OA
ATOM     20  H10 MFU d         -36.934  18.782  12.332  0.00  0.00     0.210 HD
ENDBRANCH   3  19
BRANCH   5  21
ATOM     21  C6  MFU d         -41.490  20.338  14.568  0.00  0.00    -0.050 C 
ATOM     22  H6  MFU d         -42.493  20.601  14.199  0.00  0.00     0.031 H 
ATOM     23  H7  MFU d         -41.234  20.977  15.426  0.00  0.00     0.031 H 
ATOM     24  H8  MFU d         -41.480  19.283  14.882  0.00  0.00     0.031 H 
ENDBRANCH   5  21
BRANCH   4  25
ATOM     25  O4  MFU d         -39.136  18.493  13.853  0.00  0.00    -0.390 OA
ATOM     26  H11 MFU d         -38.943  18.114  13.003  0.00  0.00     0.210 HD
ENDBRANCH   4  25
TORSDOF 6
ENDMDL
MODEL 2
REMARK VINA RESULT:      -5.1      1.721      3.422
REMARK  6 active torsions:
REMARK  status: ('A' for Active; 'I' for Inactive)
REMARK    1  A    between atoms: C1_1  and  O1_7 
REMARK    2  A    between atoms: C2_2  and  O2_8 
REMARK    3  A    between atoms: C3_3  and  O3_9 
REMARK    4  A    between atoms: C4_4  and  O4_10 
REMARK    5  A    between atoms: C5_5  and  C6_6 
REMARK    6  A    between atoms: O1_7  and  CM_12 
ROOT
ATOM      1  C1  MFU d         -39.887  21.965  13.645  0.00  0.00     0.158 C 
ATOM      2  C2  MFU d         -39.638  20.623  14.266  0.00  0.00     0.110 C 
ATOM      3  C3  MFU d         -39.468  19.555  13.168  0.00  0.00     0.092 C 
ATOM      4  C4  MFU d         -38.438  19.905  12.101  0.00  0.00     0.087 C 
ATOM      5  C5  MFU d         -38.807  21.269  11.541  0.00  0.00     0.065 C 
ATOM      6  O5  MFU d         -38.863  22.223  12.636  0.00  0.00    -0.351 OA
ATOM      7  H1  MFU d         -39.855  22.746  14.418  0.00  0.00     0.133 H 
ATOM      8  H2  MFU d         -38.700  20.688  14.836  0.00  0.00     0.094 H 
ATOM      9  H3  MFU d         -40.439  19.399  12.676  0.00  0.00     0.091 H 
ATOM     10  H4  MFU d         -38.469  19.165  11.288  0.00  0.00     0.091 H 
ATOM     11  H5  MFU d         -39.824  21.190  11.128  0.00  0.00     0.086 H 
ENDROOT
BRANCH   1  12
ATOM     12  O1  MFU d         -41.185  21.955  13.012  0.00  0.00    -0.363 OA
BRANCH  12  13
ATOM     13  CM  MFU d         -41.953  23.102  13.481  0.00  0.00     0.007 C 
ATOM     14  H12 MFU d         -42.062  23.049  14.574  0.00  0.00     0.066 H 
ATOM     15  H13 MFU d         -42.949  23.093  13.012  0.00  0.00     0.066 H 
ATOM     16  H14 MFU d         -41.429  24.030  13.209  0.00  0.00     0.066 H 
ENDBRANCH  12  13
ENDBRANCH   1  12
BRANCH   2  17
ATOM     17  O2  MFU d         -40.688  20.213  15.184  0.00  0.00    -0.388 OA
ATOM     18  H9  MFU d         -40.581  20.669  16.010  0.00  0.00     0.210 HD
ENDBRANCH   2  17
BRANCH   3  19
ATOM     19  O3  MFU d         -39.051  18.339  13.826  0.00  0.00    -0.390 OA
ATOM     20  H10 MFU d         -38.780  17.705  13.173  0.00  0.00     0.210 HD
ENDBRANCH   3  19
BRANCH   5  21
ATOM     21  C6  MFU d         -37.900  21.706  10.372  0.00  0.00    -0.050 C 
ATOM     22  H6  MFU d         -38.449  21.606   9.424  0.00  0.00     0.031 H 
ATOM     23  H7  MFU d         -37.003  21.070  10.346  0.00  0.00     0.031 H 
ATOM     24  H8  MFU d         -37.600  22.756  10.511  0.00  0.00     0.031 H 
ENDBRANCH   5  21
BRANCH   4  25
ATOM     25  O4  MFU d         -37.131  19.872  12.717  0.00  0.00    -0.390 OA
ATOM     26  H11 MFU d         -36.954  20.711  13.126  0.00  0.00     0.210 HD
ENDBRANCH   4  25
TORSDOF 6
ENDMDL
MODEL 3
REMARK VINA RESULT:      -5.1      1.224      3.451
REMARK  6 active torsions:
REMARK  status: ('A' for Active; 'I' for Inactive)
REMARK    1  A    between atoms: C1_1  and  O1_7 
REMARK    2  A    between atoms: C2_2  and  O2_8 
REMARK    3  A    between atoms: C3_3  and  O3_9 
REMARK    4  A    between atoms: C4_4  and  O4_10 
REMARK    5  A    between atoms: C5_5  and  C6_6 
REMARK    6  A    between atoms: O1_7  and  CM_12 
ROOT
ATOM      1  C1  MFU d         -39.222  21.095  13.214  0.00  0.00     0.158 C 
ATOM      2  C2  MFU d         -38.044  20.816  12.328  0.00  0.00     0.110 C 
ATOM      3  C3  MFU d         -38.508  20.644  10.869  0.00  0.00     0.092 C 
ATOM      4  C4  MFU d         -39.377  21.781  10.344  0.00  0.00     0.087 C 
ATOM      5  C5  MFU d         -40.536  21.954  11.313  0.00  0.00     0.065 C 
ATOM      6  O5  MFU d         -40.001  22.190  12.643  0.00  0.00    -0.351 OA
ATOM      7  H1  MFU d         -38.875  21.368  14.221  0.00  0.00     0.133 H 
ATOM      8  H2  MFU d         -37.374  21.687  12.380  0.00  0.00     0.094 H 
ATOM      9  H3  MFU d         -39.078  19.706  10.789  0.00  0.00     0.091 H 
ATOM     10  H4  MFU d         -39.776  21.526   9.352  0.00  0.00     0.091 H 
ATOM     11  H5  MFU d         -41.078  20.997  11.348  0.00  0.00     0.086 H 
ENDROOT
BRANCH   1  12
ATOM     12  O1  MFU d         -40.047  19.912  13.283  0.00  0.00    -0.363 OA
BRANCH  12  13
ATOM     13  CM  MFU d         -40.962  20.033  14.411  0.00  0.00     0.007 C 
ATOM     14  H12 MFU d         -41.895  19.496  14.186  0.00  0.00     0.066 H 
ATOM     15  H13 MFU d         -41.184  21.096  14.590  0.00  0.00     0.066 H 
ATOM     16  H14 MFU d         -40.497  19.600  15.309  0.00  0.00     0.066 H 
ENDBRANCH  12  13
ENDBRANCH   1  12
BRANCH   2  17
ATOM     17  O2  MFU d         -37.284  19.646  12.736  0.00  0.00    -0.388 OA
ATOM     18  H9  MFU d         -36.387  19.900  12.918  0.00  0.00     0.210 HD
ENDBRANCH   2  17
BRANCH   3  19
ATOM     19  O3  MFU d         -37.318  20.565  10.056  0.00  0.00    -0.390 OA
ATOM     20  H10 MFU d         -37.332  19.760   9.553  0.00  0.00     0.210 HD
ENDBRANCH   3  19
BRANCH   5  21
ATOM     21  C6  MFU d         -41.558  23.012  10.848  0.00  0.00    -0.050 C 
ATOM     22  H6  MFU d         -42.472  22.931  11.454  0.00  0.00     0.031 H 
ATOM     23  H7  MFU d         -41.804  22.845   9.789  0.00  0.00     0.031 H 
ATOM     24  H8  MFU d         -41.127  24.018  10.969  0.00  0.00     0.031 H 
ENDBRANCH   5  21
BRANCH   4  25
ATOM     25  O4  MFU d         -38.547  22.958  10.228  0.00  0.00    -0.390 OA
ATOM     26  H11 MFU d         -39.056  23.668   9.853  0.00  0.00     0.210 HD
ENDBRANCH   4  25
TORSDOF 6
ENDMDL
MODEL 4
REMARK VINA RESULT:      -4.9      1.361      1.434
REMARK  6 active torsions:
REMARK  status: ('A' for Active; 'I' for Inactive)
REMARK    1  A    between atoms: C1_1  and  O1_7 
REMARK    2  A    between atoms: C2_2  and  O2_8 
REMARK    3  A    between atoms: C3_3  and  O3_9 
REMARK    4  A    between atoms: C4_4  and  O4_10 
REMARK    5  A    between atoms: C5_5  and  C6_6 
REMARK    6  A    between atoms: O1_7  and  CM_12 
ROOT
ATOM      1  C1  MFU d         -39.802  21.222  11.511  0.00  0.00     0.158 C 
ATOM      2  C2  MFU d         -38.894  20.188  12.107  0.00  0.00     0.110 C 
ATOM      3  C3  MFU d         -38.708  20.454  13.614  0.00  0.00     0.092 C 
ATOM      4  C4  MFU d         -40.008  20.610  14.393  0.00  0.00     0.087 C 
ATOM      5  C5  MFU d         -40.827  21.688  13.704  0.00  0.00     0.065 C 
ATOM      6  O5  MFU d         -41.019  21.311  12.313  0.00  0.00    -0.351 OA
ATOM      7  H1  MFU d         -40.056  20.944  10.477  0.00  0.00     0.133 H 
ATOM      8  H2  MFU d         -39.378  19.208  11.985  0.00  0.00     0.094 H 
ATOM      9  H3  MFU d         -38.116  21.373  13.738  0.00  0.00     0.091 H 
ATOM     10  H4  MFU d         -39.795  20.927  15.425  0.00  0.00     0.091 H 
ATOM     11  H5  MFU d         -40.226  22.610  13.709  0.00  0.00     0.086 H 
ENDROOT
BRANCH   1  12
ATOM     12  O1  MFU d         -39.130  22.500  11.523  0.00  0.00    -0.363 OA
BRANCH  12  13
ATOM     13  CM  MFU d         -39.125  23.050  10.174  0.00  0.00     0.007 C 
ATOM     14  H12 MFU d         -38.322  23.797  10.085  0.00  0.00     0.066 H 
ATOM     15  H13 MFU d         -40.094  23.527   9.968  0.00  0.00     0.066 H 
ATOM     16  H14 MFU d         -38.954  22.240   9.448  0.00  0.00     0.066 H 
ENDBRANCH  12  13
ENDBRANCH   1  12
BRANCH   2  17
ATOM     17  O2  MFU d         -37.594  20.126  11.461  0.00  0.00    -0.388 OA
ATOM     18  H9  MFU d         -36.930  19.916  12.107  0.00  0.00     0.210 HD
ENDBRANCH   2  17
BRANCH   3  19
ATOM     19  O3  MFU d         -37.983  19.328  14.153  0.00  0.00    -0.390 OA
ATOM     20  H10 MFU d         -37.628  18.810  13.440  0.00  0.00     0.210 HD
ENDBRANCH   3  19
BRANCH   5  21
ATOM     21  C6  MFU d         -42.135  22.023  14.451  0.00  0.00    -0.050 C 
ATOM     22  H6  MFU d         -42.876  21.231  14.265  0.00  0.00     0.031 H 
ATOM     23  H7  MFU d         -42.528  22.985  14.092  0.00  0.00     0.031 H 
ATOM     24  H8  MFU d         -41.934  22.090  15.531  0.00  0.00     0.031 H 
ENDBRANCH   5  21
BRANCH   4  25
ATOM     25  O4  MFU d         -40.665  19.322  14.424  0.00  0.00    -0.390 OA
ATOM     26  H11 MFU d         -40.335  18.817  15.159  0.00  0.00     0.210 HD
ENDBRANCH   4  25
TORSDOF 6
ENDMDL
MODEL 5
REMARK VINA RESULT:      -4.3      1.326      1.786
REMARK  6 active torsions:
REMARK  status: ('A' for Active; 'I' for Inactive)
REMARK    1  A    between atoms: C1_1  and  O1_7 
REMARK    2  A    between atoms: C2_2  and  O2_8 
REMARK    3  A    between atoms: C3_3  and  O3_9 
REMARK    4  A    between atoms: C4_4  and  O4_10 
REMARK    5  A    between atoms: C5_5  and  C6_6 
REMARK    6  A    between atoms: O1_7  and  CM_12 
ROOT
ATOM      1  C1  MFU d         -41.017  21.166  11.626  0.00  0.00     0.158 C 
ATOM      2  C2  MFU d         -39.951  20.651  10.706  0.00  0.00     0.110 C 
ATOM      3  C3  MFU d         -38.557  20.981  11.274  0.00  0.00     0.092 C 
ATOM      4  C4  MFU d         -38.343  20.543  12.718  0.00  0.00     0.087 C 
ATOM      5  C5  MFU d         -39.471  21.138  13.546  0.00  0.00     0.065 C 
ATOM      6  O5  MFU d         -40.740  20.706  12.984  0.00  0.00    -0.351 OA
ATOM      7  H1  MFU d         -42.001  20.798  11.301  0.00  0.00     0.133 H 
ATOM      8  H2  MFU d         -40.055  19.557  10.654  0.00  0.00     0.094 H 
ATOM      9  H3  MFU d         -38.400  22.068  11.214  0.00  0.00     0.091 H 
ATOM     10  H4  MFU d         -37.383  20.928  13.092  0.00  0.00     0.091 H 
ATOM     11  H5  MFU d         -39.420  22.231  13.430  0.00  0.00     0.086 H 
ENDROOT
BRANCH   1  12
ATOM     12  O1  MFU d         -41.001  22.610  11.601  0.00  0.00    -0.363 OA
BRANCH  12  13
ATOM     13  CM  MFU d         -42.371  23.101  11.535  0.00  0.00     0.007 C 
ATOM     14  H12 MFU d         -42.956  22.467  10.854  0.00  0.00     0.066 H 
ATOM     15  H13 MFU d         -42.372  24.137  11.163  0.00  0.00     0.066 H 
ATOM     16  H14 MFU d         -42.820  23.072  12.540  0.00  0.00     0.066 H 
ENDBRANCH  12  13
ENDBRANCH   1  12
BRANCH   2  17
ATOM     17  O2  MFU d         -40.060  21.172   9.353  0.00  0.00    -0.388 OA
ATOM     18  H9  MFU d         -40.968  21.381   9.168  0.00  0.00     0.210 HD
ENDBRANCH   2  17
BRANCH   3  19
ATOM     19  O3  MFU d         -37.592  20.300  10.442  0.00  0.00    -0.390 OA
ATOM     20  H10 MFU d         -37.866  19.400  10.313  0.00  0.00     0.210 HD
ENDBRANCH   3  19
BRANCH   5  21
ATOM     21  C6  MFU d         -39.323  20.856  15.056  0.00  0.00    -0.050 C 
ATOM     22  H6  MFU d         -39.170  21.805  15.593  0.00  0.00     0.031 H 
ATOM     23  H7  MFU d         -38.459  20.196  15.224  0.00  0.00     0.031 H 
ATOM     24  H8  MFU d         -40.235  20.367  15.430  0.00  0.00     0.031 H 
ENDBRANCH   5  21
BRANCH   4  25
ATOM     25  O4  MFU d         -38.312  19.098  12.745  0.00  0.00    -0.390 OA
ATOM     26  H11 MFU d         -38.760  18.787  13.524  0.00  0.00     0.210 HD
ENDBRANCH   4  25
TORSDOF 6
ENDMDL
MODEL 6
REMARK VINA RESULT:      -4.3      1.964      2.139
REMARK  6 active torsions:
REMARK  status: ('A' for Active; 'I' for Inactive)
REMARK    1  A    between atoms: C1_1  and  O1_7 
REMARK    2  A    between atoms: C2_2  and  O2_8 
REMARK    3  A    between atoms: C3_3  and  O3_9 
REMARK    4  A    between atoms: C4_4  and  O4_10 
REMARK    5  A    between atoms: C5_5  and  C6_6 
REMARK    6  A    between atoms: O1_7  and  CM_12 
ROOT
ATOM      1  C1  MFU d         -39.763  21.710  12.002  0.00  0.00     0.158 C 
ATOM      2  C2  MFU d         -39.635  20.228  12.191  0.00  0.00     0.110 C 
ATOM      3  C3  MFU d         -38.616  19.923  13.306  0.00  0.00     0.092 C 
ATOM      4  C4  MFU d         -38.873  20.659  14.616  0.00  0.00     0.087 C 
ATOM      5  C5  MFU d         -38.966  22.142  14.295  0.00  0.00     0.065 C 
ATOM      6  O5  MFU d         -40.005  22.339  13.298  0.00  0.00    -0.351 OA
ATOM      7  H1  MFU d         -40.597  21.929  11.320  0.00  0.00     0.133 H 
ATOM      8  H2  MFU d         -40.618  19.846  12.505  0.00  0.00     0.094 H 
ATOM      9  H3  MFU d         -37.611  20.192  12.948  0.00  0.00     0.091 H 
ATOM     10  H4  MFU d         -38.037  20.496  15.312  0.00  0.00     0.091 H 
ATOM     11  H5  MFU d         -38.013  22.437  13.831  0.00  0.00     0.086 H 
ENDROOT
BRANCH   1  12
ATOM     12  O1  MFU d         -38.531  22.221  11.449  0.00  0.00    -0.363 OA
BRANCH  12  13
ATOM     13  CM  MFU d         -38.763  22.641  10.074  0.00  0.00     0.007 C 
ATOM     14  H12 MFU d         -39.844  22.660   9.873  0.00  0.00     0.066 H 
ATOM     15  H13 MFU d         -38.275  21.934   9.386  0.00  0.00     0.066 H 
ATOM     16  H14 MFU d         -38.344  23.647   9.922  0.00  0.00     0.066 H 
ENDBRANCH  12  13
ENDBRANCH   1  12
BRANCH   2  17
ATOM     17  O2  MFU d         -39.252  19.526  10.978  0.00  0.00    -0.388 OA
ATOM     18  H9  MFU d         -39.181  20.148  10.263  0.00  0.00     0.210 HD
ENDBRANCH   2  17
BRANCH   3  19
ATOM     19  O3  MFU d         -38.682  18.503  13.559  0.00  0.00    -0.390 OA
ATOM     20  H10 MFU d         -37.841  18.200  13.880  0.00  0.00     0.210 HD
ENDBRANCH   3  19
BRANCH   5  21
ATOM     21  C6  MFU d         -39.125  23.022  15.553  0.00  0.00    -0.050 C 
ATOM     22  H6  MFU d         -39.813  22.534  16.258  0.00  0.00     0.031 H 
ATOM     23  H7  MFU d         -39.529  24.004  15.265  0.00  0.00     0.031 H 
ATOM     24  H8  MFU d         -38.144  23.157  16.033  0.00  0.00     0.031 H 
ENDBRANCH   5  21
BRANCH   4  25
ATOM     25  O4  MFU d         -40.081  20.122  15.198  0.00  0.00    -0.390 OA
ATOM     26  H11 MFU d         -40.202  19.226  14.904  0.00  0.00     0.210 HD
ENDBRANCH   4  25
TORSDOF 6
ENDMDL
MODEL 7
REMARK VINA RESULT:      -4.1      1.961      3.431
REMARK  6 active torsions:
REMARK  status: ('A' for Active; 'I' for Inactive)
REMARK    1  A    between atoms: C1_1  and  O1_7 
REMARK    2  A    between atoms: C2_2  and  O2_8 
REMARK    3  A    between atoms: C3_3  and  O3_9 
REMARK    4  A    between atoms: C4_4  and  O4_10 
REMARK    5  A    between atoms: C5_5  and  C6_6 
REMARK    6  A    between atoms: O1_7  and  CM_12 
ROOT
ATOM      1  C1  MFU d         -38.652  21.850  13.653  0.00  0.00     0.158 C 
ATOM      2  C2  MFU d         -38.276  20.411  13.467  0.00  0.00     0.110 C 
ATOM      3  C3  MFU d         -39.497  19.602  12.988  0.00  0.00     0.092 C 
ATOM      4  C4  MFU d         -40.201  20.185  11.768  0.00  0.00     0.087 C 
ATOM      5  C5  MFU d         -40.543  21.631  12.086  0.00  0.00     0.065 C 
ATOM      6  O5  MFU d         -39.321  22.331  12.447  0.00  0.00    -0.351 OA
ATOM      7  H1  MFU d         -37.751  22.451  13.844  0.00  0.00     0.133 H 
ATOM      8  H2  MFU d         -37.502  20.367  12.686  0.00  0.00     0.094 H 
ATOM      9  H3  MFU d         -40.223  19.540  13.812  0.00  0.00     0.091 H 
ATOM     10  H4  MFU d         -41.132  19.633  11.569  0.00  0.00     0.091 H 
ATOM     11  H5  MFU d         -41.188  21.626  12.978  0.00  0.00     0.086 H 
ENDROOT
BRANCH   1  12
ATOM     12  O1  MFU d         -39.558  21.956  14.773  0.00  0.00    -0.363 OA
BRANCH  12  13
ATOM     13  CM  MFU d         -39.073  22.985  15.684  0.00  0.00     0.007 C 
ATOM     14  H12 MFU d         -39.779  23.098  16.519  0.00  0.00     0.066 H 
ATOM     15  H13 MFU d         -38.987  23.941  15.145  0.00  0.00     0.066 H 
ATOM     16  H14 MFU d         -38.086  22.694  16.074  0.00  0.00     0.066 H 
ENDBRANCH  12  13
ENDBRANCH   1  12
BRANCH   2  17
ATOM     17  O2  MFU d         -37.730  19.801  14.668  0.00  0.00    -0.388 OA
ATOM     18  H9  MFU d         -37.931  18.872  14.670  0.00  0.00     0.210 HD
ENDBRANCH   2  17
BRANCH   3  19
ATOM     19  O3  MFU d         -39.021  18.281  12.654  0.00  0.00    -0.390 OA
ATOM     20  H10 MFU d         -38.675  17.863  13.433  0.00  0.00     0.210 HD
ENDBRANCH   3  19
BRANCH   5  21
ATOM     21  C6  MFU d         -41.356  22.319  10.969  0.00  0.00    -0.050 C 
ATOM     22  H6  MFU d         -42.107  21.617  10.577  0.00  0.00     0.031 H 
ATOM     23  H7  MFU d         -40.679  22.623  10.157  0.00  0.00     0.031 H 
ATOM     24  H8  MFU d         -41.862  23.207  11.376  0.00  0.00     0.031 H 
ENDBRANCH   5  21
BRANCH   4  25
ATOM     25  O4  MFU d         -39.318  20.040  10.633  0.00  0.00    -0.390 OA
ATOM     26  H11 MFU d         -38.905  20.876  10.446  0.00  0.00     0.210 HD
ENDBRANCH   4  25
TORSDOF 6
ENDMDL
MODEL 8
REMARK VINA RESULT:      -4.0      1.901      3.621
REMARK  6 active torsions:
REMARK  status: ('A' for Active; 'I' for Inactive)
REMARK    1  A    between atoms: C1_1  and  O1_7 
REMARK    2  A    between atoms: C2_2  and  O2_8 
REMARK    3  A    between atoms: C3_3  and  O3_9 
REMARK    4  A    between atoms: C4_4  and  O4_10 
REMARK    5  A    between atoms: C5_5  and  C6_6 
REMARK    6  A    between atoms: O1_7  and  CM_12 
ROOT
ATOM      1  C1  MFU d         -40.183  20.158  12.907  0.00  0.00     0.158 C 
ATOM      2  C2  MFU d         -40.199  20.544  11.458  0.00  0.00     0.110 C 
ATOM      3  C3  MFU d         -40.244  22.078  11.320  0.00  0.00     0.092 C 
ATOM      4  C4  MFU d         -39.169  22.816  12.109  0.00  0.00     0.087 C 
ATOM      5  C5  MFU d         -39.265  22.353  13.554  0.00  0.00     0.065 C 
ATOM      6  O5  MFU d         -39.131  20.906  13.590  0.00  0.00    -0.351 OA
ATOM      7  H1  MFU d         -39.996  19.079  13.004  0.00  0.00     0.133 H 
ATOM      8  H2  MFU d         -39.264  20.182  11.006  0.00  0.00     0.094 H 
ATOM      9  H3  MFU d         -41.229  22.433  11.659  0.00  0.00     0.091 H 
ATOM     10  H4  MFU d         -39.346  23.900  12.068  0.00  0.00     0.091 H 
ATOM     11  H5  MFU d         -40.279  22.593  13.907  0.00  0.00     0.086 H 
ENDROOT
BRANCH   1  12
ATOM     12  O1  MFU d         -41.459  20.489  13.495  0.00  0.00    -0.363 OA
BRANCH  12  13
ATOM     13  CM  MFU d         -41.466  20.070  14.891  0.00  0.00     0.007 C 
ATOM     14  H12 MFU d         -42.157  20.706  15.462  0.00  0.00     0.066 H 
ATOM     15  H13 MFU d         -40.451  20.165  15.307  0.00  0.00     0.066 H 
ATOM     16  H14 MFU d         -41.792  19.021  14.957  0.00  0.00     0.066 H 
ENDBRANCH  12  13
ENDBRANCH   1  12
BRANCH   2  17
ATOM     17  O2  MFU d         -41.306  19.957  10.721  0.00  0.00    -0.388 OA
ATOM     18  H9  MFU d         -41.956  20.626  10.542  0.00  0.00     0.210 HD
ENDBRANCH   2  17
BRANCH   3  19
ATOM     19  O3  MFU d         -40.071  22.379   9.918  0.00  0.00    -0.390 OA
ATOM     20  H10 MFU d         -39.808  21.592   9.457  0.00  0.00     0.210 HD
ENDBRANCH   3  19
BRANCH   5  21
ATOM     21  C6  MFU d         -38.294  23.100  14.492  0.00  0.00    -0.050 C 
ATOM     22  H6  MFU d         -37.383  22.499  14.630  0.00  0.00     0.031 H 
ATOM     23  H7  MFU d         -38.777  23.263  15.466  0.00  0.00     0.031 H 
ATOM     24  H8  MFU d         -38.028  24.071  14.048  0.00  0.00     0.031 H 
ENDBRANCH   5  21
BRANCH   4  25
ATOM     25  O4  MFU d         -37.891  22.526  11.498  0.00  0.00    -0.390 OA
ATOM     26  H11 MFU d         -37.680  21.608  11.628  0.00  0.00     0.210 HD
ENDBRANCH   4  25
TORSDOF 6
ENDMDL
MODEL 9
REMARK VINA RESULT:      -3.7      1.964      2.740
REMARK  6 active torsions:
REMARK  status: ('A' for Active; 'I' for Inactive)
REMARK    1  A    between atoms: C1_1  and  O1_7 
REMARK    2  A    between atoms: C2_2  and  O2_8 
REMARK    3  A    between atoms: C3_3  and  O3_9 
REMARK    4  A    between atoms: C4_4  and  O4_10 
REMARK    5  A    between atoms: C5_5  and  C6_6 
REMARK    6  A    between atoms: O1_7  and  CM_12 
ROOT
ATOM      1  C1  MFU d         -39.199  22.557  12.909  0.00  0.00     0.158 C 
ATOM      2  C2  MFU d         -38.869  21.818  11.646  0.00  0.00     0.110 C 
ATOM      3  C3  MFU d         -38.879  20.299  11.903  0.00  0.00     0.092 C 
ATOM      4  C4  MFU d         -40.148  19.780  12.569  0.00  0.00     0.087 C 
ATOM      5  C5  MFU d         -40.364  20.591  13.836  0.00  0.00     0.065 C 
ATOM      6  O5  MFU d         -40.422  22.000  13.483  0.00  0.00    -0.351 OA
ATOM      7  H1  MFU d         -39.343  23.625  12.690  0.00  0.00     0.133 H 
ATOM      8  H2  MFU d         -39.651  22.051  10.909  0.00  0.00     0.094 H 
ATOM      9  H3  MFU d         -38.022  20.045  12.544  0.00  0.00     0.091 H 
ATOM     10  H4  MFU d         -40.027  18.720  12.839  0.00  0.00     0.091 H 
ATOM     11  H5  MFU d         -39.475  20.452  14.469  0.00  0.00     0.086 H 
ENDROOT
BRANCH   1  12
ATOM     12  O1  MFU d         -38.115  22.390  13.847  0.00  0.00    -0.363 OA
BRANCH  12  13
ATOM     13  CM  MFU d         -38.435  23.102  15.078  0.00  0.00     0.007 C 
ATOM     14  H12 MFU d         -37.518  23.242  15.670  0.00  0.00     0.066 H 
ATOM     15  H13 MFU d         -39.162  22.518  15.661  0.00  0.00     0.066 H 
ATOM     16  H14 MFU d         -38.866  24.084  14.832  0.00  0.00     0.066 H 
ENDBRANCH  12  13
ENDBRANCH   1  12
BRANCH   2  17
ATOM     17  O2  MFU d         -37.590  22.205  11.074  0.00  0.00    -0.388 OA
ATOM     18  H9  MFU d         -37.104  21.426  10.832  0.00  0.00     0.210 HD
ENDBRANCH   2  17
BRANCH   3  19
ATOM     19  O3  MFU d         -38.739  19.655  10.619  0.00  0.00    -0.390 OA
ATOM     20  H10 MFU d         -38.188  20.186  10.057  0.00  0.00     0.210 HD
ENDBRANCH   3  19
BRANCH   5  21
ATOM     21  C6  MFU d         -41.567  20.101  14.668  0.00  0.00    -0.050 C 
ATOM     22  H6  MFU d         -42.085  19.297  14.125  0.00  0.00     0.031 H 
ATOM     23  H7  MFU d         -42.262  20.937  14.836  0.00  0.00     0.031 H 
ATOM     24  H8  MFU d         -41.212  19.719  15.637  0.00  0.00     0.031 H 
ENDBRANCH   5  21
BRANCH   4  25
ATOM     25  O4  MFU d         -41.231  19.901  11.618  0.00  0.00    -0.390 OA
ATOM     26  H11 MFU d         -40.911  19.696  10.747  0.00  0.00     0.210 HD
ENDBRANCH   4  25
TORSDOF 6
ENDMDL
