MODEL 1
REMARK VINA RESULT:      -7.8      0.000      0.000
REMARK  10 active torsions:
REMARK  status: ('A' for Active; 'I' for Inactive)
REMARK    1  A    between atoms: C12_12  and  C21_21 
REMARK    2  A    between atoms: C13_13  and  C22_22 
REMARK    3  A    between atoms: C24_24  and  C14_14 
REMARK    4  A    between atoms: C25_25  and  C15_15 
REMARK    5  A    between atoms: C26_26  and  C16_16 
REMARK    6  A    between atoms: C27_27  and  C20_20 
REMARK       I    between atoms: C21_21  and  N28_28 
REMARK    7  A    between atoms: N28_28  and  C24_24 
REMARK    8  A    between atoms: N29_29  and  C25_25 
REMARK    9  A    between atoms: N29_29  and  C26_26 
REMARK   10  A    between atoms: C27_27  and  N29_29 
ROOT
ATOM      1  C25 N44 d         -10.025  45.265  -0.034  0.00  0.00     0.109 C 
ATOM      2  H19 N44 d         -10.743  46.012  -0.405  0.00  0.00     0.083 H 
ATOM      3  H20 N44 d          -9.024  45.489  -0.434  0.00  0.00     0.083 H 
ENDROOT
BRANCH   1   4
ATOM      4  C15 N44 d         -10.440  43.932  -0.549  0.00  0.00    -0.017 A 
ATOM      5  C9  N44 d         -11.748  43.784  -0.969  0.00  0.00    -0.074 A 
ATOM      6  C5  N44 d         -12.213  42.575  -1.457  0.00  0.00    -0.082 A 
ATOM      7  H9  N44 d         -12.423  44.630  -0.915  0.00  0.00     0.084 H 
ATOM      8  C2  N44 d         -11.347  41.511  -1.516  0.00  0.00    -0.082 A 
ATOM      9  H5  N44 d         -13.239  42.471  -1.787  0.00  0.00     0.083 H 
ATOM     10  C6  N44 d         -10.036  41.646  -1.100  0.00  0.00    -0.067 A 
ATOM     11  H2  N44 d         -11.695  40.556  -1.892  0.00  0.00     0.083 H 
ATOM     12  C12 N44 d          -9.566  42.855  -0.615  0.00  0.00     0.040 A 
ATOM     13  H6  N44 d          -9.367  40.794  -1.153  0.00  0.00     0.085 H 
BRANCH  12  14
ATOM     14  C21 N44 d          -8.145  42.959  -0.169  0.00  0.00     0.252 C 
ATOM     15  N28 N44 d          -7.799  42.422   1.064  0.00  0.00    -0.353 N 
ATOM     16  H25 N44 d          -8.495  41.974   1.624  0.00  0.00     0.163 HD
ATOM     17  O31 N44 d          -7.334  43.518  -0.890  0.00  0.00    -0.268 OA
BRANCH  15  18
ATOM     18  C24 N44 d          -6.434  42.509   1.542  0.00  0.00     0.019 C 
ATOM     19  H17 N44 d          -6.076  41.501   1.795  0.00  0.00     0.071 H 
ATOM     20  H18 N44 d          -5.802  42.935   0.749  0.00  0.00     0.071 H 
BRANCH  18  21
ATOM     21  C14 N44 d          -6.347  43.378   2.757  0.00  0.00    -0.041 A 
ATOM     22  C7  N44 d          -6.928  42.982   3.942  0.00  0.00    -0.075 A 
ATOM     23  C3  N44 d          -6.835  43.767   5.067  0.00  0.00    -0.082 A 
ATOM     24  H7  N44 d          -7.464  42.041   3.988  0.00  0.00     0.084 H 
ATOM     25  C1  N44 d          -6.160  44.968   5.018  0.00  0.00    -0.083 A 
ATOM     26  H3  N44 d          -7.294  43.442   5.994  0.00  0.00     0.083 H 
ATOM     27  C4  N44 d          -5.593  45.382   3.833  0.00  0.00    -0.082 A 
ATOM     28  H1  N44 d          -6.076  45.584   5.907  0.00  0.00     0.083 H 
ATOM     29  C8  N44 d          -5.680  44.587   2.709  0.00  0.00    -0.075 A 
ATOM     30  H4  N44 d          -5.076  46.333   3.784  0.00  0.00     0.083 H 
ATOM     31  H8  N44 d          -5.224  44.914   1.782  0.00  0.00     0.084 H 
ENDBRANCH  18  21
ENDBRANCH  15  18
ENDBRANCH  12  14
ENDBRANCH   1   4
BRANCH   1  32
ATOM     32  N29 N44 d          -9.963  45.383   1.447  0.00  0.00    -0.060 N 
ATOM     33  H26 N44 d          -9.830  44.435   1.763  0.00  0.00     0.281 HD
BRANCH  32  34
ATOM     34  C26 N44 d         -11.237  45.801   2.133  0.00  0.00     0.109 C 
ATOM     35  H21 N44 d         -12.002  45.026   1.980  0.00  0.00     0.083 H 
ATOM     36  H22 N44 d         -11.047  45.920   3.209  0.00  0.00     0.083 H 
BRANCH  34  37
ATOM     37  C16 N44 d         -11.734  47.103   1.571  0.00  0.00    -0.013 A 
ATOM     38  C10 N44 d         -10.865  48.194   1.603  0.00  0.00    -0.071 A 
ATOM     39  C11 N44 d         -11.244  49.436   1.110  0.00  0.00    -0.047 A 
ATOM     40  H10 N44 d          -9.873  48.069   2.021  0.00  0.00     0.084 H 
ATOM     41  C17 N44 d         -12.516  49.535   0.597  0.00  0.00     0.106 A 
ATOM     42  H11 N44 d         -10.570  50.285   1.129  0.00  0.00     0.087 H 
ATOM     43  C18 N44 d         -13.381  48.469   0.561  0.00  0.00     0.122 A 
ATOM     44  O33 N44 d         -13.060  50.683   0.075  0.00  0.00    -0.323 OA
ATOM     45  C13 N44 d         -13.026  47.219   1.050  0.00  0.00     0.085 A 
ATOM     46  O34 N44 d         -14.608  48.826   0.002  0.00  0.00    -0.322 OA
ATOM     47  C23 N44 d         -14.376  50.214  -0.298  0.00  0.00     0.115 A 
ATOM     48  H15 N44 d         -14.501  50.360  -1.382  0.00  0.00     0.118 H 
ATOM     49  H16 N44 d         -15.123  50.816   0.241  0.00  0.00     0.118 H 
BRANCH  45  50
ATOM     50  C22 N44 d         -13.979  46.052   0.986  0.00  0.00     0.212 C 
ATOM     51  O30 N44 d         -14.166  45.542  -0.154  0.00  0.00    -0.644 OA
ATOM     52  O32 N44 d         -14.514  45.600   2.042  0.00  0.00    -0.644 OA
ENDBRANCH  45  50
ENDBRANCH  34  37
ENDBRANCH  32  34
BRANCH  32  53
ATOM     53  C27 N44 d          -8.720  46.097   1.892  0.00  0.00     0.099 C 
ATOM     54  H23 N44 d          -9.021  46.979   2.476  0.00  0.00     0.082 H 
ATOM     55  H24 N44 d          -8.140  45.414   2.530  0.00  0.00     0.082 H 
BRANCH  53  56
ATOM     56  C20 N44 d          -7.839  46.555   0.780  0.00  0.00    -0.087 C 
ATOM     57  C19 N44 d          -6.976  47.566   0.932  0.00  0.00    -0.123 C 
ATOM     58  H12 N44 d          -6.347  47.875   0.098  0.00  0.00     0.066 H 
ATOM     59  H13 N44 d          -6.902  48.080   1.889  0.00  0.00     0.066 H 
ATOM     60  H14 N44 d          -7.900  46.053  -0.184  0.00  0.00     0.078 H 
ENDBRANCH  53  56
ENDBRANCH  32  53
ENDBRANCH   1  32
TORSDOF 10
ENDMDL
MODEL 2
REMARK VINA RESULT:      -7.7      2.235      4.475
REMARK  10 active torsions:
REMARK  status: ('A' for Active; 'I' for Inactive)
REMARK    1  A    between atoms: C12_12  and  C21_21 
REMARK    2  A    between atoms: C13_13  and  C22_22 
REMARK    3  A    between atoms: C24_24  and  C14_14 
REMARK    4  A    between atoms: C25_25  and  C15_15 
REMARK    5  A    between atoms: C26_26  and  C16_16 
REMARK    6  A    between atoms: C27_27  and  C20_20 
REMARK       I    between atoms: C21_21  and  N28_28 
REMARK    7  A    between atoms: N28_28  and  C24_24 
REMARK    8  A    between atoms: N29_29  and  C25_25 
REMARK    9  A    between atoms: N29_29  and  C26_26 
REMARK   10  A    between atoms: C27_27  and  N29_29 
ROOT
ATOM      1  C25 N44 d         -10.047  44.610  -0.915  0.00  0.00     0.109 C 
ATOM      2  H19 N44 d         -10.212  44.370  -1.976  0.00  0.00     0.083 H 
ATOM      3  H20 N44 d          -9.446  45.529  -0.837  0.00  0.00     0.083 H 
ENDROOT
BRANCH   1   4
ATOM      4  C15 N44 d          -9.266  43.497  -0.308  0.00  0.00    -0.017 A 
ATOM      5  C9  N44 d          -9.759  42.214  -0.449  0.00  0.00    -0.074 A 
ATOM      6  C5  N44 d          -9.095  41.127   0.089  0.00  0.00    -0.082 A 
ATOM      7  H9  N44 d         -10.684  42.057  -0.992  0.00  0.00     0.084 H 
ATOM      8  C2  N44 d          -7.926  41.343   0.778  0.00  0.00    -0.082 A 
ATOM      9  H5  N44 d          -9.488  40.124  -0.030  0.00  0.00     0.083 H 
ATOM     10  C6  N44 d          -7.421  42.621   0.926  0.00  0.00    -0.067 A 
ATOM     11  H2  N44 d          -7.394  40.503   1.210  0.00  0.00     0.083 H 
ATOM     12  C12 N44 d          -8.081  43.711   0.384  0.00  0.00     0.040 A 
ATOM     13  H6  N44 d          -6.498  42.772   1.472  0.00  0.00     0.085 H 
BRANCH  12  14
ATOM     14  C21 N44 d          -7.508  45.077   0.571  0.00  0.00     0.252 C 
ATOM     15  N28 N44 d          -7.690  46.013  -0.438  0.00  0.00    -0.353 N 
ATOM     16  H25 N44 d          -8.201  45.765  -1.261  0.00  0.00     0.163 HD
ATOM     17  O31 N44 d          -6.891  45.328   1.595  0.00  0.00    -0.268 OA
BRANCH  15  18
ATOM     18  C24 N44 d          -7.143  47.348  -0.304  0.00  0.00     0.019 C 
ATOM     19  H17 N44 d          -6.574  47.410   0.635  0.00  0.00     0.071 H 
ATOM     20  H18 N44 d          -6.473  47.549  -1.153  0.00  0.00     0.071 H 
BRANCH  18  21
ATOM     21  C14 N44 d          -8.232  48.374  -0.285  0.00  0.00    -0.041 A 
ATOM     22  C7  N44 d          -8.026  49.601   0.306  0.00  0.00    -0.075 A 
ATOM     23  C3  N44 d          -9.017  50.554   0.310  0.00  0.00    -0.082 A 
ATOM     24  H7  N44 d          -7.073  49.817   0.774  0.00  0.00     0.084 H 
ATOM     25  C1  N44 d         -10.235  50.287  -0.277  0.00  0.00    -0.083 A 
ATOM     26  H3  N44 d          -8.840  51.517   0.776  0.00  0.00     0.083 H 
ATOM     27  C4  N44 d         -10.457  49.056  -0.854  0.00  0.00    -0.082 A 
ATOM     28  H1  N44 d         -11.014  51.041  -0.286  0.00  0.00     0.083 H 
ATOM     29  C8  N44 d          -9.458  48.105  -0.863  0.00  0.00    -0.075 A 
ATOM     30  H4  N44 d         -11.419  48.834  -1.301  0.00  0.00     0.083 H 
ATOM     31  H8  N44 d          -9.636  47.142  -1.327  0.00  0.00     0.084 H 
ENDBRANCH  18  21
ENDBRANCH  15  18
ENDBRANCH  12  14
ENDBRANCH   1   4
BRANCH   1  32
ATOM     32  N29 N44 d         -11.370  44.872  -0.291  0.00  0.00    -0.060 N 
ATOM     33  H26 N44 d         -11.538  45.849  -0.474  0.00  0.00     0.281 HD
BRANCH  32  34
ATOM     34  C26 N44 d         -11.423  44.787   1.212  0.00  0.00     0.109 C 
ATOM     35  H21 N44 d         -12.407  44.404   1.518  0.00  0.00     0.083 H 
ATOM     36  H22 N44 d         -10.638  44.101   1.564  0.00  0.00     0.083 H 
BRANCH  34  37
ATOM     37  C16 N44 d         -11.207  46.142   1.824  0.00  0.00    -0.013 A 
ATOM     38  C10 N44 d          -9.975  46.388   2.431  0.00  0.00    -0.071 A 
ATOM     39  C11 N44 d          -9.692  47.611   3.025  0.00  0.00    -0.047 A 
ATOM     40  H10 N44 d          -9.222  45.608   2.438  0.00  0.00     0.084 H 
ATOM     41  C17 N44 d         -10.687  48.560   2.989  0.00  0.00     0.106 A 
ATOM     42  H11 N44 d          -8.734  47.808   3.494  0.00  0.00     0.087 H 
ATOM     43  C18 N44 d         -11.903  48.329   2.397  0.00  0.00     0.122 A 
ATOM     44  O33 N44 d         -10.585  49.818   3.531  0.00  0.00    -0.323 OA
ATOM     45  C13 N44 d         -12.210  47.114   1.798  0.00  0.00     0.085 A 
ATOM     46  O34 N44 d         -12.740  49.441   2.499  0.00  0.00    -0.322 OA
ATOM     47  C23 N44 d         -11.887  50.358   3.207  0.00  0.00     0.115 A 
ATOM     48  H15 N44 d         -11.745  51.253   2.582  0.00  0.00     0.118 H 
ATOM     49  H16 N44 d         -12.386  50.642   4.145  0.00  0.00     0.118 H 
BRANCH  45  50
ATOM     50  C22 N44 d         -13.543  46.882   1.133  0.00  0.00     0.212 C 
ATOM     51  O30 N44 d         -13.656  47.291  -0.056  0.00  0.00    -0.644 OA
ATOM     52  O32 N44 d         -14.468  46.267   1.743  0.00  0.00    -0.644 OA
ENDBRANCH  45  50
ENDBRANCH  34  37
ENDBRANCH  32  34
BRANCH  32  53
ATOM     53  C27 N44 d         -12.474  44.164  -1.022  0.00  0.00     0.099 C 
ATOM     54  H23 N44 d         -12.169  43.119  -1.175  0.00  0.00     0.082 H 
ATOM     55  H24 N44 d         -13.377  44.196  -0.395  0.00  0.00     0.082 H 
BRANCH  53  56
ATOM     56  C20 N44 d         -12.809  44.751  -2.351  0.00  0.00    -0.087 C 
ATOM     57  C19 N44 d         -14.071  45.019  -2.707  0.00  0.00    -0.123 C 
ATOM     58  H12 N44 d         -14.281  45.447  -3.686  0.00  0.00     0.066 H 
ATOM     59  H13 N44 d         -14.887  44.809  -2.019  0.00  0.00     0.066 H 
ATOM     60  H14 N44 d         -12.005  44.967  -3.052  0.00  0.00     0.078 H 
ENDBRANCH  53  56
ENDBRANCH  32  53
ENDBRANCH   1  32
TORSDOF 10
ENDMDL
MODEL 3
REMARK VINA RESULT:      -7.7      2.116      5.089
REMARK  10 active torsions:
REMARK  status: ('A' for Active; 'I' for Inactive)
REMARK    1  A    between atoms: C12_12  and  C21_21 
REMARK    2  A    between atoms: C13_13  and  C22_22 
REMARK    3  A    between atoms: C24_24  and  C14_14 
REMARK    4  A    between atoms: C25_25  and  C15_15 
REMARK    5  A    between atoms: C26_26  and  C16_16 
REMARK    6  A    between atoms: C27_27  and  C20_20 
REMARK       I    between atoms: C21_21  and  N28_28 
REMARK    7  A    between atoms: N28_28  and  C24_24 
REMARK    8  A    between atoms: N29_29  and  C25_25 
REMARK    9  A    between atoms: N29_29  and  C26_26 
REMARK   10  A    between atoms: C27_27  and  N29_29 
ROOT
ATOM      1  C25 N44 d          -8.676  47.122   0.371  0.00  0.00     0.109 C 
ATOM      2  H19 N44 d          -8.411  46.056   0.311  0.00  0.00     0.083 H 
ATOM      3  H20 N44 d          -8.533  47.591  -0.614  0.00  0.00     0.083 H 
ENDROOT
BRANCH   1   4
ATOM      4  C15 N44 d          -7.743  47.774   1.331  0.00  0.00    -0.017 A 
ATOM      5  C9  N44 d          -7.570  49.141   1.231  0.00  0.00    -0.074 A 
ATOM      6  C5  N44 d          -6.718  49.821   2.084  0.00  0.00    -0.082 A 
ATOM      7  H9  N44 d          -8.112  49.692   0.472  0.00  0.00     0.084 H 
ATOM      8  C2  N44 d          -6.034  49.109   3.039  0.00  0.00    -0.082 A 
ATOM      9  H5  N44 d          -6.592  50.894   2.000  0.00  0.00     0.083 H 
ATOM     10  C6  N44 d          -6.199  47.741   3.149  0.00  0.00    -0.067 A 
ATOM     11  H2  N44 d          -5.359  49.624   3.712  0.00  0.00     0.083 H 
ATOM     12  C12 N44 d          -7.054  47.059   2.301  0.00  0.00     0.040 A 
ATOM     13  H6  N44 d          -5.651  47.196   3.909  0.00  0.00     0.085 H 
BRANCH  12  14
ATOM     14  C21 N44 d          -7.200  45.580   2.447  0.00  0.00     0.252 C 
ATOM     15  N28 N44 d          -6.395  44.757   1.671  0.00  0.00    -0.353 N 
ATOM     16  H25 N44 d          -5.733  45.161   1.039  0.00  0.00     0.163 HD
ATOM     17  O31 N44 d          -8.024  45.138   3.233  0.00  0.00    -0.268 OA
BRANCH  15  18
ATOM     18  C24 N44 d          -6.509  43.316   1.773  0.00  0.00     0.019 C 
ATOM     19  H17 N44 d          -5.531  42.862   1.559  0.00  0.00     0.071 H 
ATOM     20  H18 N44 d          -6.821  43.051   2.794  0.00  0.00     0.071 H 
BRANCH  18  21
ATOM     21  C14 N44 d          -7.516  42.789   0.800  0.00  0.00    -0.041 A 
ATOM     22  C7  N44 d          -7.837  43.506  -0.332  0.00  0.00    -0.075 A 
ATOM     23  C3  N44 d          -8.749  43.018  -1.238  0.00  0.00    -0.082 A 
ATOM     24  H7  N44 d          -7.366  44.466  -0.509  0.00  0.00     0.084 H 
ATOM     25  C1  N44 d          -9.357  41.801  -1.019  0.00  0.00    -0.083 A 
ATOM     26  H3  N44 d          -8.989  43.591  -2.126  0.00  0.00     0.083 H 
ATOM     27  C4  N44 d          -9.057  41.086   0.119  0.00  0.00    -0.082 A 
ATOM     28  H1  N44 d         -10.067  41.409  -1.738  0.00  0.00     0.083 H 
ATOM     29  C8  N44 d          -8.137  41.574   1.022  0.00  0.00    -0.075 A 
ATOM     30  H4  N44 d          -9.546  40.137   0.305  0.00  0.00     0.083 H 
ATOM     31  H8  N44 d          -7.898  41.002   1.911  0.00  0.00     0.084 H 
ENDBRANCH  18  21
ENDBRANCH  15  18
ENDBRANCH  12  14
ENDBRANCH   1   4
BRANCH   1  32
ATOM     32  N29 N44 d         -10.117  47.219   0.721  0.00  0.00    -0.060 N 
ATOM     33  H26 N44 d         -10.123  47.704   1.605  0.00  0.00     0.281 HD
BRANCH  32  34
ATOM     34  C26 N44 d         -10.812  45.919   1.034  0.00  0.00     0.109 C 
ATOM     35  H21 N44 d         -10.060  45.128   1.159  0.00  0.00     0.083 H 
ATOM     36  H22 N44 d         -11.385  46.031   1.966  0.00  0.00     0.083 H 
BRANCH  34  37
ATOM     37  C16 N44 d         -11.748  45.542  -0.079  0.00  0.00    -0.013 A 
ATOM     38  C10 N44 d         -11.182  45.105  -1.278  0.00  0.00    -0.071 A 
ATOM     39  C11 N44 d         -11.973  44.741  -2.360  0.00  0.00    -0.047 A 
ATOM     40  H10 N44 d         -10.104  45.048  -1.366  0.00  0.00     0.084 H 
ATOM     41  C17 N44 d         -13.335  44.838  -2.192  0.00  0.00     0.106 A 
ATOM     42  H11 N44 d         -11.538  44.397  -3.292  0.00  0.00     0.087 H 
ATOM     43  C18 N44 d         -13.902  45.268  -1.018  0.00  0.00     0.122 A 
ATOM     44  O33 N44 d         -14.264  44.528  -3.153  0.00  0.00    -0.323 OA
ATOM     45  C13 N44 d         -13.133  45.639   0.077  0.00  0.00     0.085 A 
ATOM     46  O34 N44 d         -15.295  45.285  -1.100  0.00  0.00    -0.322 OA
ATOM     47  C23 N44 d         -15.492  44.811  -2.445  0.00  0.00     0.115 A 
ATOM     48  H15 N44 d         -16.089  43.888  -2.403  0.00  0.00     0.118 H 
ATOM     49  H16 N44 d         -16.045  45.580  -3.006  0.00  0.00     0.118 H 
BRANCH  45  50
ATOM     50  C22 N44 d         -13.771  46.090   1.367  0.00  0.00     0.212 C 
ATOM     51  O30 N44 d         -13.642  47.311   1.660  0.00  0.00    -0.644 OA
ATOM     52  O32 N44 d         -14.431  45.273   2.077  0.00  0.00    -0.644 OA
ENDBRANCH  45  50
ENDBRANCH  34  37
ENDBRANCH  32  34
BRANCH  32  53
ATOM     53  C27 N44 d         -10.849  48.141  -0.210  0.00  0.00     0.099 C 
ATOM     54  H23 N44 d         -11.740  47.615  -0.583  0.00  0.00     0.082 H 
ATOM     55  H24 N44 d         -11.159  49.030   0.360  0.00  0.00     0.082 H 
BRANCH  53  56
ATOM     56  C20 N44 d         -10.051  48.596  -1.383  0.00  0.00    -0.087 C 
ATOM     57  C19 N44 d          -9.847  49.894  -1.639  0.00  0.00    -0.123 C 
ATOM     58  H12 N44 d          -9.258  50.191  -2.506  0.00  0.00     0.066 H 
ATOM     59  H13 N44 d         -10.269  50.651  -0.982  0.00  0.00     0.066 H 
ATOM     60  H14 N44 d          -9.622  47.851  -2.052  0.00  0.00     0.078 H 
ENDBRANCH  53  56
ENDBRANCH  32  53
ENDBRANCH   1  32
TORSDOF 10
ENDMDL
MODEL 4
REMARK VINA RESULT:      -7.7      2.230      4.702
REMARK  10 active torsions:
REMARK  status: ('A' for Active; 'I' for Inactive)
REMARK    1  A    between atoms: C12_12  and  C21_21 
REMARK    2  A    between atoms: C13_13  and  C22_22 
REMARK    3  A    between atoms: C24_24  and  C14_14 
REMARK    4  A    between atoms: C25_25  and  C15_15 
REMARK    5  A    between atoms: C26_26  and  C16_16 
REMARK    6  A    between atoms: C27_27  and  C20_20 
REMARK       I    between atoms: C21_21  and  N28_28 
REMARK    7  A    between atoms: N28_28  and  C24_24 
REMARK    8  A    between atoms: N29_29  and  C25_25 
REMARK    9  A    between atoms: N29_29  and  C26_26 
REMARK   10  A    between atoms: C27_27  and  N29_29 
ROOT
ATOM      1  C25 N44 d          -8.937  45.648   0.154  0.00  0.00     0.109 C 
ATOM      2  H19 N44 d          -9.259  45.287  -0.834  0.00  0.00     0.083 H 
ATOM      3  H20 N44 d          -8.282  46.523   0.029  0.00  0.00     0.083 H 
ENDROOT
BRANCH   1   4
ATOM      4  C15 N44 d          -8.145  44.568   0.803  0.00  0.00    -0.017 A 
ATOM      5  C9  N44 d          -8.132  43.327   0.195  0.00  0.00    -0.074 A 
ATOM      6  C5  N44 d          -7.423  42.269   0.738  0.00  0.00    -0.082 A 
ATOM      7  H9  N44 d          -8.688  43.178  -0.723  0.00  0.00     0.084 H 
ATOM      8  C2  N44 d          -6.727  42.471   1.905  0.00  0.00    -0.082 A 
ATOM      9  H5  N44 d          -7.416  41.301   0.252  0.00  0.00     0.083 H 
ATOM     10  C6  N44 d          -6.731  43.708   2.522  0.00  0.00    -0.067 A 
ATOM     11  H2  N44 d          -6.170  41.654   2.346  0.00  0.00     0.083 H 
ATOM     12  C12 N44 d          -7.436  44.769   1.980  0.00  0.00     0.040 A 
ATOM     13  H6  N44 d          -6.176  43.849   3.443  0.00  0.00     0.085 H 
BRANCH  12  14
ATOM     14  C21 N44 d          -7.422  46.088   2.680  0.00  0.00     0.252 C 
ATOM     15  N28 N44 d          -8.323  46.296   3.715  0.00  0.00    -0.353 N 
ATOM     16  H25 N44 d          -8.955  45.567   3.978  0.00  0.00     0.163 HD
ATOM     17  O31 N44 d          -6.630  46.945   2.319  0.00  0.00    -0.268 OA
BRANCH  15  18
ATOM     18  C24 N44 d          -8.352  47.563   4.416  0.00  0.00     0.019 C 
ATOM     19  H17 N44 d          -8.532  47.380   5.485  0.00  0.00     0.071 H 
ATOM     20  H18 N44 d          -7.381  48.067   4.289  0.00  0.00     0.071 H 
BRANCH  18  21
ATOM     21  C14 N44 d          -9.435  48.446   3.882  0.00  0.00    -0.041 A 
ATOM     22  C7  N44 d         -10.760  48.145   4.114  0.00  0.00    -0.075 A 
ATOM     23  C3  N44 d         -11.760  48.963   3.641  0.00  0.00    -0.082 A 
ATOM     24  H7  N44 d         -11.016  47.254   4.675  0.00  0.00     0.084 H 
ATOM     25  C1  N44 d         -11.443  50.095   2.922  0.00  0.00    -0.083 A 
ATOM     26  H3  N44 d         -12.797  48.716   3.835  0.00  0.00     0.083 H 
ATOM     27  C4  N44 d         -10.123  50.394   2.668  0.00  0.00    -0.082 A 
ATOM     28  H1  N44 d         -12.230  50.748   2.559  0.00  0.00     0.083 H 
ATOM     29  C8  N44 d          -9.123  49.577   3.151  0.00  0.00    -0.075 A 
ATOM     30  H4  N44 d          -9.870  51.273   2.088  0.00  0.00     0.083 H 
ATOM     31  H8  N44 d          -8.085  49.822   2.956  0.00  0.00     0.084 H 
ENDBRANCH  18  21
ENDBRANCH  15  18
ENDBRANCH  12  14
ENDBRANCH   1   4
BRANCH   1  32
ATOM     32  N29 N44 d         -10.147  46.084   0.900  0.00  0.00    -0.060 N 
ATOM     33  H26 N44 d          -9.816  46.229   1.841  0.00  0.00     0.281 HD
BRANCH  32  34
ATOM     34  C26 N44 d         -11.230  45.051   1.070  0.00  0.00     0.109 C 
ATOM     35  H21 N44 d         -10.769  44.066   1.227  0.00  0.00     0.083 H 
ATOM     36  H22 N44 d         -11.845  45.311   1.944  0.00  0.00     0.083 H 
BRANCH  34  37
ATOM     37  C16 N44 d         -12.104  45.000  -0.151  0.00  0.00    -0.013 A 
ATOM     38  C10 N44 d         -11.571  44.419  -1.303  0.00  0.00    -0.071 A 
ATOM     39  C11 N44 d         -12.307  44.334  -2.478  0.00  0.00    -0.047 A 
ATOM     40  H10 N44 d         -10.562  44.025  -1.280  0.00  0.00     0.084 H 
ATOM     41  C17 N44 d         -13.581  44.855  -2.448  0.00  0.00     0.106 A 
ATOM     42  H11 N44 d         -11.899  43.880  -3.374  0.00  0.00     0.087 H 
ATOM     43  C18 N44 d         -14.114  45.430  -1.322  0.00  0.00     0.122 A 
ATOM     44  O33 N44 d         -14.445  44.864  -3.515  0.00  0.00    -0.323 OA
ATOM     45  C13 N44 d         -13.397  45.528  -0.137  0.00  0.00     0.085 A 
ATOM     46  O34 N44 d         -15.413  45.888  -1.549  0.00  0.00    -0.322 OA
ATOM     47  C23 N44 d         -15.594  45.514  -2.927  0.00  0.00     0.115 A 
ATOM     48  H15 N44 d         -16.451  44.826  -2.989  0.00  0.00     0.118 H 
ATOM     49  H16 N44 d         -15.811  46.424  -3.507  0.00  0.00     0.118 H 
BRANCH  45  50
ATOM     50  C22 N44 d         -14.004  46.144   1.099  0.00  0.00     0.212 C 
ATOM     51  O30 N44 d         -13.946  47.402   1.186  0.00  0.00    -0.644 OA
ATOM     52  O32 N44 d         -14.575  45.417   1.966  0.00  0.00    -0.644 OA
ENDBRANCH  45  50
ENDBRANCH  34  37
ENDBRANCH  32  34
BRANCH  32  53
ATOM     53  C27 N44 d         -10.607  47.443   0.458  0.00  0.00     0.099 C 
ATOM     54  H23 N44 d         -11.686  47.390   0.252  0.00  0.00     0.082 H 
ATOM     55  H24 N44 d         -10.425  48.152   1.279  0.00  0.00     0.082 H 
BRANCH  53  56
ATOM     56  C20 N44 d          -9.924  47.959  -0.762  0.00  0.00    -0.087 C 
ATOM     57  C19 N44 d          -9.589  49.249  -0.893  0.00  0.00    -0.123 C 
ATOM     58  H12 N44 d          -9.090  49.592  -1.798  0.00  0.00     0.066 H 
ATOM     59  H13 N44 d          -9.814  49.953  -0.094  0.00  0.00     0.066 H 
ATOM     60  H14 N44 d          -9.692  47.268  -1.570  0.00  0.00     0.078 H 
ENDBRANCH  53  56
ENDBRANCH  32  53
ENDBRANCH   1  32
TORSDOF 10
ENDMDL
MODEL 5
REMARK VINA RESULT:      -7.6      1.874      5.151
REMARK  10 active torsions:
REMARK  status: ('A' for Active; 'I' for Inactive)
REMARK    1  A    between atoms: C12_12  and  C21_21 
REMARK    2  A    between atoms: C13_13  and  C22_22 
REMARK    3  A    between atoms: C24_24  and  C14_14 
REMARK    4  A    between atoms: C25_25  and  C15_15 
REMARK    5  A    between atoms: C26_26  and  C16_16 
REMARK    6  A    between atoms: C27_27  and  C20_20 
REMARK       I    between atoms: C21_21  and  N28_28 
REMARK    7  A    between atoms: N28_28  and  C24_24 
REMARK    8  A    between atoms: N29_29  and  C25_25 
REMARK    9  A    between atoms: N29_29  and  C26_26 
REMARK   10  A    between atoms: C27_27  and  N29_29 
ROOT
ATOM      1  C25 N44 d          -7.879  44.888  -0.071  0.00  0.00     0.109 C 
ATOM      2  H19 N44 d          -7.230  44.705  -0.940  0.00  0.00     0.083 H 
ATOM      3  H20 N44 d          -8.077  45.967   0.017  0.00  0.00     0.083 H 
ENDROOT
BRANCH   1   4
ATOM      4  C15 N44 d          -7.145  44.454   1.150  0.00  0.00    -0.017 A 
ATOM      5  C9  N44 d          -7.080  43.099   1.413  0.00  0.00    -0.074 A 
ATOM      6  C5  N44 d          -6.420  42.616   2.529  0.00  0.00    -0.082 A 
ATOM      7  H9  N44 d          -7.555  42.402   0.733  0.00  0.00     0.084 H 
ATOM      8  C2  N44 d          -5.826  43.512   3.384  0.00  0.00    -0.082 A 
ATOM      9  H5  N44 d          -6.372  41.551   2.725  0.00  0.00     0.083 H 
ATOM     10  C6  N44 d          -5.883  44.870   3.132  0.00  0.00    -0.067 A 
ATOM     11  H2  N44 d          -5.309  43.152   4.265  0.00  0.00     0.083 H 
ATOM     12  C12 N44 d          -6.538  45.356   2.014  0.00  0.00     0.040 A 
ATOM     13  H6  N44 d          -5.409  45.562   3.818  0.00  0.00     0.085 H 
BRANCH  12  14
ATOM     14  C21 N44 d          -6.584  46.830   1.779  0.00  0.00     0.252 C 
ATOM     15  N28 N44 d          -7.678  47.541   2.255  0.00  0.00    -0.353 N 
ATOM     16  H25 N44 d          -8.406  47.064   2.747  0.00  0.00     0.163 HD
ATOM     17  O31 N44 d          -5.670  47.365   1.171  0.00  0.00    -0.268 OA
BRANCH  15  18
ATOM     18  C24 N44 d          -7.769  48.971   2.041  0.00  0.00     0.019 C 
ATOM     19  H17 N44 d          -8.027  49.461   2.991  0.00  0.00     0.071 H 
ATOM     20  H18 N44 d          -6.796  49.345   1.688  0.00  0.00     0.071 H 
BRANCH  18  21
ATOM     21  C14 N44 d          -8.817  49.295   1.024  0.00  0.00    -0.041 A 
ATOM     22  C7  N44 d          -8.954  48.523  -0.109  0.00  0.00    -0.075 A 
ATOM     23  C3  N44 d          -9.927  48.805  -1.039  0.00  0.00    -0.082 A 
ATOM     24  H7  N44 d          -8.286  47.684  -0.270  0.00  0.00     0.084 H 
ATOM     25  C1  N44 d         -10.778  49.872  -0.847  0.00  0.00    -0.083 A 
ATOM     26  H3  N44 d         -10.025  48.187  -1.924  0.00  0.00     0.083 H 
ATOM     27  C4  N44 d         -10.637  50.661   0.273  0.00  0.00    -0.082 A 
ATOM     28  H1  N44 d         -11.554  50.089  -1.572  0.00  0.00     0.083 H 
ATOM     29  C8  N44 d          -9.665  50.370   1.208  0.00  0.00    -0.075 A 
ATOM     30  H4  N44 d         -11.291  51.512   0.421  0.00  0.00     0.083 H 
ATOM     31  H8  N44 d          -9.566  50.990   2.092  0.00  0.00     0.084 H 
ENDBRANCH  18  21
ENDBRANCH  15  18
ENDBRANCH  12  14
ENDBRANCH   1   4
BRANCH   1  32
ATOM     32  N29 N44 d          -9.174  44.200  -0.311  0.00  0.00    -0.060 N 
ATOM     33  H26 N44 d          -9.686  44.839  -0.899  0.00  0.00     0.281 HD
BRANCH  32  34
ATOM     34  C26 N44 d         -10.072  44.039   0.889  0.00  0.00     0.109 C 
ATOM     35  H21 N44 d         -10.743  43.184   0.725  0.00  0.00     0.083 H 
ATOM     36  H22 N44 d          -9.455  43.855   1.780  0.00  0.00     0.083 H 
BRANCH  34  37
ATOM     37  C16 N44 d         -10.892  45.279   1.103  0.00  0.00    -0.013 A 
ATOM     38  C10 N44 d         -10.616  46.050   2.232  0.00  0.00    -0.071 A 
ATOM     39  C11 N44 d         -11.329  47.209   2.510  0.00  0.00    -0.047 A 
ATOM     40  H10 N44 d          -9.828  45.738   2.907  0.00  0.00     0.084 H 
ATOM     41  C17 N44 d         -12.321  47.553   1.620  0.00  0.00     0.106 A 
ATOM     42  H11 N44 d         -11.115  47.814   3.384  0.00  0.00     0.087 H 
ATOM     43  C18 N44 d         -12.602  46.801   0.506  0.00  0.00     0.122 A 
ATOM     44  O33 N44 d         -13.127  48.657   1.738  0.00  0.00    -0.323 OA
ATOM     45  C13 N44 d         -11.905  45.638   0.209  0.00  0.00     0.085 A 
ATOM     46  O34 N44 d         -13.652  47.353  -0.230  0.00  0.00    -0.322 OA
ATOM     47  C23 N44 d         -13.955  48.516   0.562  0.00  0.00     0.115 A 
ATOM     48  H15 N44 d         -13.818  49.409  -0.067  0.00  0.00     0.118 H 
ATOM     49  H16 N44 d         -15.005  48.452   0.883  0.00  0.00     0.118 H 
BRANCH  45  50
ATOM     50  C22 N44 d         -12.212  44.834  -1.030  0.00  0.00     0.212 C 
ATOM     51  O30 N44 d         -13.129  43.972  -0.926  0.00  0.00    -0.644 OA
ATOM     52  O32 N44 d         -11.597  45.063  -2.114  0.00  0.00    -0.644 OA
ENDBRANCH  45  50
ENDBRANCH  34  37
ENDBRANCH  32  34
BRANCH  32  53
ATOM     53  C27 N44 d          -8.999  42.976  -1.162  0.00  0.00     0.099 C 
ATOM     54  H23 N44 d          -9.264  43.238  -2.197  0.00  0.00     0.082 H 
ATOM     55  H24 N44 d          -7.942  42.675  -1.118  0.00  0.00     0.082 H 
BRANCH  53  56
ATOM     56  C20 N44 d          -9.832  41.812  -0.748  0.00  0.00    -0.087 C 
ATOM     57  C19 N44 d         -10.848  41.367  -1.497  0.00  0.00    -0.123 C 
ATOM     58  H12 N44 d         -11.437  40.513  -1.165  0.00  0.00     0.066 H 
ATOM     59  H13 N44 d         -11.086  41.859  -2.439  0.00  0.00     0.066 H 
ATOM     60  H14 N44 d          -9.608  41.308   0.191  0.00  0.00     0.078 H 
ENDBRANCH  53  56
ENDBRANCH  32  53
ENDBRANCH   1  32
TORSDOF 10
ENDMDL
MODEL 6
REMARK VINA RESULT:      -7.6      2.233      5.064
REMARK  10 active torsions:
REMARK  status: ('A' for Active; 'I' for Inactive)
REMARK    1  A    between atoms: C12_12  and  C21_21 
REMARK    2  A    between atoms: C13_13  and  C22_22 
REMARK    3  A    between atoms: C24_24  and  C14_14 
REMARK    4  A    between atoms: C25_25  and  C15_15 
REMARK    5  A    between atoms: C26_26  and  C16_16 
REMARK    6  A    between atoms: C27_27  and  C20_20 
REMARK       I    between atoms: C21_21  and  N28_28 
REMARK    7  A    between atoms: N28_28  and  C24_24 
REMARK    8  A    between atoms: N29_29  and  C25_25 
REMARK    9  A    between atoms: N29_29  and  C26_26 
REMARK   10  A    between atoms: C27_27  and  N29_29 
ROOT
ATOM      1  C25 N44 d          -8.979  48.621   1.612  0.00  0.00     0.109 C 
ATOM      2  H19 N44 d          -9.402  49.577   1.955  0.00  0.00     0.083 H 
ATOM      3  H20 N44 d          -8.435  48.143   2.441  0.00  0.00     0.083 H 
ENDROOT
BRANCH   1   4
ATOM      4  C15 N44 d          -8.001  48.913   0.528  0.00  0.00    -0.017 A 
ATOM      5  C9  N44 d          -8.129  50.113  -0.146  0.00  0.00    -0.074 A 
ATOM      6  C5  N44 d          -7.263  50.457  -1.169  0.00  0.00    -0.082 A 
ATOM      7  H9  N44 d          -8.923  50.797   0.132  0.00  0.00     0.084 H 
ATOM      8  C2  N44 d          -6.266  49.578  -1.512  0.00  0.00    -0.082 A 
ATOM      9  H5  N44 d          -7.370  51.401  -1.689  0.00  0.00     0.083 H 
ATOM     10  C6  N44 d          -6.126  48.375  -0.845  0.00  0.00    -0.067 A 
ATOM     11  H2  N44 d          -5.581  49.829  -2.314  0.00  0.00     0.083 H 
ATOM     12  C12 N44 d          -6.988  48.030   0.182  0.00  0.00     0.040 A 
ATOM     13  H6  N44 d          -5.333  47.694  -1.130  0.00  0.00     0.085 H 
BRANCH  12  14
ATOM     14  C21 N44 d          -6.809  46.718   0.874  0.00  0.00     0.252 C 
ATOM     15  N28 N44 d          -7.454  45.604   0.353  0.00  0.00    -0.353 N 
ATOM     16  H25 N44 d          -8.015  45.693  -0.469  0.00  0.00     0.163 HD
ATOM     17  O31 N44 d          -6.114  46.664   1.876  0.00  0.00    -0.268 OA
BRANCH  15  18
ATOM     18  C24 N44 d          -7.317  44.314   0.998  0.00  0.00     0.019 C 
ATOM     19  H17 N44 d          -6.261  44.009   0.971  0.00  0.00     0.071 H 
ATOM     20  H18 N44 d          -7.649  44.397   2.043  0.00  0.00     0.071 H 
BRANCH  18  21
ATOM     21  C14 N44 d          -8.143  43.278   0.302  0.00  0.00    -0.041 A 
ATOM     22  C7  N44 d          -8.329  42.036   0.869  0.00  0.00    -0.075 A 
ATOM     23  C3  N44 d          -9.102  41.086   0.243  0.00  0.00    -0.082 A 
ATOM     24  H7  N44 d          -7.860  41.805   1.818  0.00  0.00     0.084 H 
ATOM     25  C1  N44 d          -9.699  41.369  -0.967  0.00  0.00    -0.083 A 
ATOM     26  H3  N44 d          -9.243  40.115   0.702  0.00  0.00     0.083 H 
ATOM     27  C4  N44 d          -9.503  42.601  -1.551  0.00  0.00    -0.082 A 
ATOM     28  H1  N44 d         -10.318  40.626  -1.457  0.00  0.00     0.083 H 
ATOM     29  C8  N44 d          -8.734  43.554  -0.916  0.00  0.00    -0.075 A 
ATOM     30  H4  N44 d          -9.955  42.823  -2.511  0.00  0.00     0.083 H 
ATOM     31  H8  N44 d          -8.592  44.525  -1.377  0.00  0.00     0.084 H 
ENDBRANCH  18  21
ENDBRANCH  15  18
ENDBRANCH  12  14
ENDBRANCH   1   4
BRANCH   1  32
ATOM     32  N29 N44 d         -10.105  47.729   1.229  0.00  0.00    -0.060 N 
ATOM     33  H26 N44 d          -9.664  46.990   0.705  0.00  0.00     0.281 HD
BRANCH  32  34
ATOM     34  C26 N44 d         -11.101  48.300   0.254  0.00  0.00     0.109 C 
ATOM     35  H21 N44 d         -11.873  48.852   0.808  0.00  0.00     0.083 H 
ATOM     36  H22 N44 d         -10.583  48.986  -0.433  0.00  0.00     0.083 H 
BRANCH  34  37
ATOM     37  C16 N44 d         -11.750  47.202  -0.539  0.00  0.00    -0.013 A 
ATOM     38  C10 N44 d         -11.000  46.608  -1.555  0.00  0.00    -0.071 A 
ATOM     39  C11 N44 d         -11.523  45.589  -2.340  0.00  0.00    -0.047 A 
ATOM     40  H10 N44 d          -9.987  46.949  -1.735  0.00  0.00     0.084 H 
ATOM     41  C17 N44 d         -12.815  45.201  -2.069  0.00  0.00     0.106 A 
ATOM     42  H11 N44 d         -10.942  45.122  -3.128  0.00  0.00     0.087 H 
ATOM     43  C18 N44 d         -13.563  45.779  -1.073  0.00  0.00     0.122 A 
ATOM     44  O33 N44 d         -13.493  44.218  -2.746  0.00  0.00    -0.323 OA
ATOM     45  C13 N44 d         -13.063  46.800  -0.277  0.00  0.00     0.085 A 
ATOM     46  O34 N44 d         -14.839  45.218  -1.003  0.00  0.00    -0.322 OA
ATOM     47  C23 N44 d         -14.764  44.241  -2.057  0.00  0.00     0.115 A 
ATOM     48  H15 N44 d         -14.939  43.246  -1.620  0.00  0.00     0.118 H 
ATOM     49  H16 N44 d         -15.552  44.463  -2.792  0.00  0.00     0.118 H 
BRANCH  45  50
ATOM     50  C22 N44 d         -13.889  47.411   0.827  0.00  0.00     0.212 C 
ATOM     51  O30 N44 d         -14.223  48.619   0.675  0.00  0.00    -0.644 OA
ATOM     52  O32 N44 d         -14.251  46.713   1.821  0.00  0.00    -0.644 OA
ENDBRANCH  45  50
ENDBRANCH  34  37
ENDBRANCH  32  34
BRANCH  32  53
ATOM     53  C27 N44 d         -10.689  47.035   2.425  0.00  0.00     0.099 C 
ATOM     54  H23 N44 d         -10.257  47.487   3.330  0.00  0.00     0.082 H 
ATOM     55  H24 N44 d         -11.778  47.196   2.418  0.00  0.00     0.082 H 
BRANCH  53  56
ATOM     56  C20 N44 d         -10.436  45.567   2.472  0.00  0.00    -0.087 C 
ATOM     57  C19 N44 d         -10.994  44.725   1.594  0.00  0.00    -0.123 C 
ATOM     58  H12 N44 d         -10.787  43.657   1.657  0.00  0.00     0.066 H 
ATOM     59  H13 N44 d         -11.654  45.107   0.817  0.00  0.00     0.066 H 
ATOM     60  H14 N44 d          -9.779  45.168   3.243  0.00  0.00     0.078 H 
ENDBRANCH  53  56
ENDBRANCH  32  53
ENDBRANCH   1  32
TORSDOF 10
ENDMDL
MODEL 7
REMARK VINA RESULT:      -7.3      1.596      2.002
REMARK  10 active torsions:
REMARK  status: ('A' for Active; 'I' for Inactive)
REMARK    1  A    between atoms: C12_12  and  C21_21 
REMARK    2  A    between atoms: C13_13  and  C22_22 
REMARK    3  A    between atoms: C24_24  and  C14_14 
REMARK    4  A    between atoms: C25_25  and  C15_15 
REMARK    5  A    between atoms: C26_26  and  C16_16 
REMARK    6  A    between atoms: C27_27  and  C20_20 
REMARK       I    between atoms: C21_21  and  N28_28 
REMARK    7  A    between atoms: N28_28  and  C24_24 
REMARK    8  A    between atoms: N29_29  and  C25_25 
REMARK    9  A    between atoms: N29_29  and  C26_26 
REMARK   10  A    between atoms: C27_27  and  N29_29 
ROOT
ATOM      1  C25 N44 d         -10.037  45.464  -0.648  0.00  0.00     0.109 C 
ATOM      2  H19 N44 d         -10.855  46.140  -0.937  0.00  0.00     0.083 H 
ATOM      3  H20 N44 d          -9.158  45.662  -1.279  0.00  0.00     0.083 H 
ENDROOT
BRANCH   1   4
ATOM      4  C15 N44 d         -10.483  44.067  -0.905  0.00  0.00    -0.017 A 
ATOM      5  C9  N44 d         -11.775  43.877  -1.356  0.00  0.00    -0.074 A 
ATOM      6  C5  N44 d         -12.266  42.609  -1.614  0.00  0.00    -0.082 A 
ATOM      7  H9  N44 d         -12.416  44.737  -1.510  0.00  0.00     0.084 H 
ATOM      8  C2  N44 d         -11.444  41.529  -1.410  0.00  0.00    -0.082 A 
ATOM      9  H5  N44 d         -13.280  42.472  -1.970  0.00  0.00     0.083 H 
ATOM     10  C6  N44 d         -10.148  41.705  -0.960  0.00  0.00    -0.067 A 
ATOM     11  H2  N44 d         -11.813  40.529  -1.603  0.00  0.00     0.083 H 
ATOM     12  C12 N44 d          -9.652  42.972  -0.706  0.00  0.00     0.040 A 
ATOM     13  H6  N44 d          -9.514  40.840  -0.805  0.00  0.00     0.085 H 
BRANCH  12  14
ATOM     14  C21 N44 d          -8.250  43.121  -0.214  0.00  0.00     0.252 C 
ATOM     15  N28 N44 d          -7.949  42.682   1.068  0.00  0.00    -0.353 N 
ATOM     16  H25 N44 d          -8.665  42.271   1.634  0.00  0.00     0.163 HD
ATOM     17  O31 N44 d          -7.414  43.630  -0.945  0.00  0.00    -0.268 OA
BRANCH  15  18
ATOM     18  C24 N44 d          -6.605  42.816   1.590  0.00  0.00     0.019 C 
ATOM     19  H17 N44 d          -6.220  41.819   1.852  0.00  0.00     0.071 H 
ATOM     20  H18 N44 d          -5.962  43.266   0.818  0.00  0.00     0.071 H 
BRANCH  18  21
ATOM     21  C14 N44 d          -6.587  43.683   2.809  0.00  0.00    -0.041 A 
ATOM     22  C7  N44 d          -6.554  43.121   4.067  0.00  0.00    -0.075 A 
ATOM     23  C3  N44 d          -6.520  43.913   5.190  0.00  0.00    -0.082 A 
ATOM     24  H7  N44 d          -6.556  42.042   4.172  0.00  0.00     0.084 H 
ATOM     25  C1  N44 d          -6.523  45.286   5.067  0.00  0.00    -0.083 A 
ATOM     26  H3  N44 d          -6.491  43.458   6.173  0.00  0.00     0.083 H 
ATOM     27  C4  N44 d          -6.575  45.858   3.815  0.00  0.00    -0.082 A 
ATOM     28  H1  N44 d          -6.483  45.913   5.951  0.00  0.00     0.083 H 
ATOM     29  C8  N44 d          -6.601  45.060   2.691  0.00  0.00    -0.075 A 
ATOM     30  H4  N44 d          -6.595  46.936   3.713  0.00  0.00     0.083 H 
ATOM     31  H8  N44 d          -6.632  45.516   1.707  0.00  0.00     0.084 H 
ENDBRANCH  18  21
ENDBRANCH  15  18
ENDBRANCH  12  14
ENDBRANCH   1   4
BRANCH   1  32
ATOM     32  N29 N44 d          -9.668  45.763   0.760  0.00  0.00    -0.060 N 
ATOM     33  H26 N44 d          -9.039  45.018   1.013  0.00  0.00     0.281 HD
BRANCH  32  34
ATOM     34  C26 N44 d         -10.774  45.643   1.776  0.00  0.00     0.109 C 
ATOM     35  H21 N44 d         -11.713  45.397   1.260  0.00  0.00     0.083 H 
ATOM     36  H22 N44 d         -10.526  44.842   2.488  0.00  0.00     0.083 H 
BRANCH  34  37
ATOM     37  C16 N44 d         -10.944  46.935   2.524  0.00  0.00    -0.013 A 
ATOM     38  C10 N44 d         -10.177  47.121   3.675  0.00  0.00    -0.071 A 
ATOM     39  C11 N44 d         -10.275  48.282   4.430  0.00  0.00    -0.047 A 
ATOM     40  H10 N44 d          -9.490  46.342   3.986  0.00  0.00     0.084 H 
ATOM     41  C17 N44 d         -11.167  49.233   3.989  0.00  0.00     0.106 A 
ATOM     42  H11 N44 d          -9.678  48.433   5.323  0.00  0.00     0.087 H 
ATOM     43  C18 N44 d         -11.927  49.060   2.859  0.00  0.00     0.122 A 
ATOM     44  O33 N44 d         -11.398  50.434   4.612  0.00  0.00    -0.323 OA
ATOM     45  C13 N44 d         -11.849  47.907   2.090  0.00  0.00     0.085 A 
ATOM     46  O34 N44 d         -12.756  50.160   2.629  0.00  0.00    -0.322 OA
ATOM     47  C23 N44 d         -12.398  51.005   3.737  0.00  0.00     0.115 A 
ATOM     48  H15 N44 d         -12.008  51.954   3.338  0.00  0.00     0.118 H 
ATOM     49  H16 N44 d         -13.304  51.201   4.330  0.00  0.00     0.118 H 
BRANCH  45  50
ATOM     50  C22 N44 d         -12.676  47.740   0.840  0.00  0.00     0.212 C 
ATOM     51  O30 N44 d         -13.820  47.228   0.988  0.00  0.00    -0.644 OA
ATOM     52  O32 N44 d         -12.237  48.143  -0.280  0.00  0.00    -0.644 OA
ENDBRANCH  45  50
ENDBRANCH  34  37
ENDBRANCH  32  34
BRANCH  32  53
ATOM     53  C27 N44 d          -8.827  47.004   0.858  0.00  0.00     0.099 C 
ATOM     54  H23 N44 d          -9.483  47.875   0.713  0.00  0.00     0.082 H 
ATOM     55  H24 N44 d          -8.384  47.040   1.864  0.00  0.00     0.082 H 
BRANCH  53  56
ATOM     56  C20 N44 d          -7.723  47.081  -0.140  0.00  0.00    -0.087 C 
ATOM     57  C19 N44 d          -6.685  47.911   0.017  0.00  0.00    -0.123 C 
ATOM     58  H12 N44 d          -5.895  47.942  -0.732  0.00  0.00     0.066 H 
ATOM     59  H13 N44 d          -6.630  48.554   0.894  0.00  0.00     0.066 H 
ATOM     60  H14 N44 d          -7.762  46.445  -1.023  0.00  0.00     0.078 H 
ENDBRANCH  53  56
ENDBRANCH  32  53
ENDBRANCH   1  32
TORSDOF 10
ENDMDL
MODEL 8
REMARK VINA RESULT:      -7.2      2.719      4.114
REMARK  10 active torsions:
REMARK  status: ('A' for Active; 'I' for Inactive)
REMARK    1  A    between atoms: C12_12  and  C21_21 
REMARK    2  A    between atoms: C13_13  and  C22_22 
REMARK    3  A    between atoms: C24_24  and  C14_14 
REMARK    4  A    between atoms: C25_25  and  C15_15 
REMARK    5  A    between atoms: C26_26  and  C16_16 
REMARK    6  A    between atoms: C27_27  and  C20_20 
REMARK       I    between atoms: C21_21  and  N28_28 
REMARK    7  A    between atoms: N28_28  and  C24_24 
REMARK    8  A    between atoms: N29_29  and  C25_25 
REMARK    9  A    between atoms: N29_29  and  C26_26 
REMARK   10  A    between atoms: C27_27  and  N29_29 
ROOT
ATOM      1  C25 N44 d          -9.932  45.432  -0.347  0.00  0.00     0.109 C 
ATOM      2  H19 N44 d          -9.510  45.914  -1.242  0.00  0.00     0.083 H 
ATOM      3  H20 N44 d          -9.139  45.294   0.403  0.00  0.00     0.083 H 
ENDROOT
BRANCH   1   4
ATOM      4  C15 N44 d         -10.431  44.086  -0.743  0.00  0.00    -0.017 A 
ATOM      5  C9  N44 d         -11.695  44.006  -1.295  0.00  0.00    -0.074 A 
ATOM      6  C5  N44 d         -12.232  42.792  -1.685  0.00  0.00    -0.082 A 
ATOM      7  H9  N44 d         -12.277  44.911  -1.425  0.00  0.00     0.084 H 
ATOM      8  C2  N44 d         -11.485  41.653  -1.510  0.00  0.00    -0.082 A 
ATOM      9  H5  N44 d         -13.223  42.740  -2.120  0.00  0.00     0.083 H 
ATOM     10  C6  N44 d         -10.219  41.720  -0.960  0.00  0.00    -0.067 A 
ATOM     11  H2  N44 d         -11.891  40.693  -1.806  0.00  0.00     0.083 H 
ATOM     12  C12 N44 d          -9.676  42.933  -0.573  0.00  0.00     0.040 A 
ATOM     13  H6  N44 d          -9.643  40.810  -0.830  0.00  0.00     0.085 H 
BRANCH  12  14
ATOM     14  C21 N44 d          -8.308  42.963   0.024  0.00  0.00     0.252 C 
ATOM     15  N28 N44 d          -8.157  42.579   1.349  0.00  0.00    -0.353 N 
ATOM     16  H25 N44 d          -8.954  42.285   1.876  0.00  0.00     0.163 HD
ATOM     17  O31 N44 d          -7.367  43.331  -0.663  0.00  0.00    -0.268 OA
BRANCH  15  18
ATOM     18  C24 N44 d          -6.849  42.602   1.972  0.00  0.00     0.019 C 
ATOM     19  H17 N44 d          -6.622  41.602   2.369  0.00  0.00     0.071 H 
ATOM     20  H18 N44 d          -6.096  42.878   1.219  0.00  0.00     0.071 H 
BRANCH  18  21
ATOM     21  C14 N44 d          -6.807  43.593   3.093  0.00  0.00    -0.041 A 
ATOM     22  C7  N44 d          -6.446  43.199   4.362  0.00  0.00    -0.075 A 
ATOM     23  C3  N44 d          -6.388  44.109   5.391  0.00  0.00    -0.082 A 
ATOM     24  H7  N44 d          -6.205  42.159   4.552  0.00  0.00     0.084 H 
ATOM     25  C1  N44 d          -6.698  45.432   5.162  0.00  0.00    -0.083 A 
ATOM     26  H3  N44 d          -6.099  43.785   6.385  0.00  0.00     0.083 H 
ATOM     27  C4  N44 d          -7.079  45.833   3.900  0.00  0.00    -0.082 A 
ATOM     28  H1  N44 d          -6.642  46.154   5.969  0.00  0.00     0.083 H 
ATOM     29  C8  N44 d          -7.128  44.919   2.869  0.00  0.00    -0.075 A 
ATOM     30  H4  N44 d          -7.341  46.869   3.718  0.00  0.00     0.083 H 
ATOM     31  H8  N44 d          -7.419  45.242   1.876  0.00  0.00     0.084 H 
ENDBRANCH  18  21
ENDBRANCH  15  18
ENDBRANCH  12  14
ENDBRANCH   1   4
BRANCH   1  32
ATOM     32  N29 N44 d         -10.954  46.344   0.228  0.00  0.00    -0.060 N 
ATOM     33  H26 N44 d         -11.767  46.197  -0.349  0.00  0.00     0.281 HD
BRANCH  32  34
ATOM     34  C26 N44 d         -10.686  47.819   0.079  0.00  0.00     0.109 C 
ATOM     35  H21 N44 d         -10.247  48.009  -0.911  0.00  0.00     0.083 H 
ATOM     36  H22 N44 d         -11.634  48.370   0.171  0.00  0.00     0.083 H 
BRANCH  34  37
ATOM     37  C16 N44 d          -9.734  48.291   1.141  0.00  0.00    -0.013 A 
ATOM     38  C10 N44 d         -10.242  48.475   2.427  0.00  0.00    -0.071 A 
ATOM     39  C11 N44 d          -9.433  48.914   3.468  0.00  0.00    -0.047 A 
ATOM     40  H10 N44 d         -11.289  48.272   2.619  0.00  0.00     0.084 H 
ATOM     41  C17 N44 d          -8.114  49.161   3.164  0.00  0.00     0.106 A 
ATOM     42  H11 N44 d          -9.823  49.055   4.471  0.00  0.00     0.087 H 
ATOM     43  C18 N44 d          -7.604  48.984   1.903  0.00  0.00     0.122 A 
ATOM     44  O33 N44 d          -7.176  49.605   4.064  0.00  0.00    -0.323 OA
ATOM     45  C13 N44 d          -8.393  48.549   0.846  0.00  0.00     0.085 A 
ATOM     46  O34 N44 d          -6.248  49.308   1.850  0.00  0.00    -0.322 OA
ATOM     47  C23 N44 d          -6.007  49.687   3.218  0.00  0.00     0.115 A 
ATOM     48  H15 N44 d          -5.234  49.021   3.630  0.00  0.00     0.118 H 
ATOM     49  H16 N44 d          -5.643  50.725   3.231  0.00  0.00     0.118 H 
BRANCH  45  50
ATOM     50  C22 N44 d          -7.814  48.340  -0.531  0.00  0.00     0.212 C 
ATOM     51  O30 N44 d          -7.117  47.300  -0.695  0.00  0.00    -0.644 OA
ATOM     52  O32 N44 d          -8.067  49.158  -1.466  0.00  0.00    -0.644 OA
ENDBRANCH  45  50
ENDBRANCH  34  37
ENDBRANCH  32  34
BRANCH  32  53
ATOM     53  C27 N44 d         -11.386  45.896   1.595  0.00  0.00     0.099 C 
ATOM     54  H23 N44 d         -10.796  45.009   1.867  0.00  0.00     0.082 H 
ATOM     55  H24 N44 d         -11.175  46.709   2.305  0.00  0.00     0.082 H 
BRANCH  53  56
ATOM     56  C20 N44 d         -12.831  45.547   1.702  0.00  0.00    -0.087 C 
ATOM     57  C19 N44 d         -13.770  46.200   1.007  0.00  0.00    -0.123 C 
ATOM     58  H12 N44 d         -14.817  45.918   1.109  0.00  0.00     0.066 H 
ATOM     59  H13 N44 d         -13.487  47.012   0.340  0.00  0.00     0.066 H 
ATOM     60  H14 N44 d         -13.131  44.737   2.365  0.00  0.00     0.078 H 
ENDBRANCH  53  56
ENDBRANCH  32  53
ENDBRANCH   1  32
TORSDOF 10
ENDMDL
MODEL 9
REMARK VINA RESULT:      -7.2      2.026      5.089
REMARK  10 active torsions:
REMARK  status: ('A' for Active; 'I' for Inactive)
REMARK    1  A    between atoms: C12_12  and  C21_21 
REMARK    2  A    between atoms: C13_13  and  C22_22 
REMARK    3  A    between atoms: C24_24  and  C14_14 
REMARK    4  A    between atoms: C25_25  and  C15_15 
REMARK    5  A    between atoms: C26_26  and  C16_16 
REMARK    6  A    between atoms: C27_27  and  C20_20 
REMARK       I    between atoms: C21_21  and  N28_28 
REMARK    7  A    between atoms: N28_28  and  C24_24 
REMARK    8  A    between atoms: N29_29  and  C25_25 
REMARK    9  A    between atoms: N29_29  and  C26_26 
REMARK   10  A    between atoms: C27_27  and  N29_29 
ROOT
ATOM      1  C25 N44 d          -7.417  48.545   2.169  0.00  0.00     0.109 C 
ATOM      2  H19 N44 d          -7.381  49.330   2.939  0.00  0.00     0.083 H 
ATOM      3  H20 N44 d          -6.398  48.333   1.814  0.00  0.00     0.083 H 
ENDROOT
BRANCH   1   4
ATOM      4  C15 N44 d          -8.206  49.067   1.019  0.00  0.00    -0.017 A 
ATOM      5  C9  N44 d          -8.929  50.229   1.210  0.00  0.00    -0.074 A 
ATOM      6  C5  N44 d          -9.691  50.775   0.191  0.00  0.00    -0.082 A 
ATOM      7  H9  N44 d          -8.899  50.722   2.174  0.00  0.00     0.084 H 
ATOM      8  C2  N44 d          -9.722  50.137  -1.024  0.00  0.00    -0.082 A 
ATOM      9  H5  N44 d         -10.251  51.689   0.350  0.00  0.00     0.083 H 
ATOM     10  C6  N44 d          -9.003  48.975  -1.228  0.00  0.00    -0.067 A 
ATOM     11  H2  N44 d         -10.316  50.549  -1.832  0.00  0.00     0.083 H 
ATOM     12  C12 N44 d          -8.236  48.428  -0.214  0.00  0.00     0.040 A 
ATOM     13  H6  N44 d          -9.040  48.485  -2.195  0.00  0.00     0.085 H 
BRANCH  12  14
ATOM     14  C21 N44 d          -7.479  47.167  -0.470  0.00  0.00     0.252 C 
ATOM     15  N28 N44 d          -8.166  45.961  -0.418  0.00  0.00    -0.353 N 
ATOM     16  H25 N44 d          -9.145  45.956  -0.218  0.00  0.00     0.163 HD
ATOM     17  O31 N44 d          -6.282  47.229  -0.709  0.00  0.00    -0.268 OA
BRANCH  15  18
ATOM     18  C24 N44 d          -7.469  44.713  -0.651  0.00  0.00     0.019 C 
ATOM     19  H17 N44 d          -6.910  44.783  -1.595  0.00  0.00     0.071 H 
ATOM     20  H18 N44 d          -6.768  44.532   0.178  0.00  0.00     0.071 H 
BRANCH  18  21
ATOM     21  C14 N44 d          -8.432  43.570  -0.736  0.00  0.00    -0.041 A 
ATOM     22  C7  N44 d          -8.207  42.412  -0.024  0.00  0.00    -0.075 A 
ATOM     23  C3  N44 d          -9.098  41.366  -0.084  0.00  0.00    -0.082 A 
ATOM     24  H7  N44 d          -7.318  42.325   0.590  0.00  0.00     0.084 H 
ATOM     25  C1  N44 d         -10.229  41.466  -0.866  0.00  0.00    -0.083 A 
ATOM     26  H3  N44 d          -8.910  40.463   0.484  0.00  0.00     0.083 H 
ATOM     27  C4  N44 d         -10.452  42.612  -1.596  0.00  0.00    -0.082 A 
ATOM     28  H1  N44 d         -10.938  40.647  -0.906  0.00  0.00     0.083 H 
ATOM     29  C8  N44 d          -9.561  43.662  -1.527  0.00  0.00    -0.075 A 
ATOM     30  H4  N44 d         -11.330  42.689  -2.227  0.00  0.00     0.083 H 
ATOM     31  H8  N44 d          -9.748  44.566  -2.097  0.00  0.00     0.084 H 
ENDBRANCH  18  21
ENDBRANCH  15  18
ENDBRANCH  12  14
ENDBRANCH   1   4
BRANCH   1  32
ATOM     32  N29 N44 d          -7.952  47.309   2.797  0.00  0.00    -0.060 N 
ATOM     33  H26 N44 d          -8.166  46.709   2.015  0.00  0.00     0.281 HD
BRANCH  32  34
ATOM     34  C26 N44 d          -9.275  47.443   3.504  0.00  0.00     0.109 C 
ATOM     35  H21 N44 d          -9.205  46.974   4.496  0.00  0.00     0.083 H 
ATOM     36  H22 N44 d          -9.518  48.509   3.619  0.00  0.00     0.083 H 
BRANCH  34  37
ATOM     37  C16 N44 d         -10.363  46.770   2.715  0.00  0.00    -0.013 A 
ATOM     38  C10 N44 d         -10.085  45.518   2.168  0.00  0.00    -0.071 A 
ATOM     39  C11 N44 d         -11.030  44.827   1.420  0.00  0.00    -0.047 A 
ATOM     40  H10 N44 d          -9.109  45.073   2.329  0.00  0.00     0.084 H 
ATOM     41  C17 N44 d         -12.248  45.443   1.245  0.00  0.00     0.106 A 
ATOM     42  H11 N44 d         -10.819  43.852   0.996  0.00  0.00     0.087 H 
ATOM     43  C18 N44 d         -12.533  46.675   1.778  0.00  0.00     0.122 A 
ATOM     44  O33 N44 d         -13.295  44.913   0.532  0.00  0.00    -0.323 OA
ATOM     45  C13 N44 d         -11.604  47.385   2.526  0.00  0.00     0.085 A 
ATOM     46  O34 N44 d         -13.827  47.085   1.453  0.00  0.00    -0.322 OA
ATOM     47  C23 N44 d         -14.281  45.960   0.679  0.00  0.00     0.115 A 
ATOM     48  H15 N44 d         -15.167  45.534   1.174  0.00  0.00     0.118 H 
ATOM     49  H16 N44 d         -14.558  46.318  -0.324  0.00  0.00     0.118 H 
BRANCH  45  50
ATOM     50  C22 N44 d         -11.938  48.730   3.122  0.00  0.00     0.212 C 
ATOM     51  O30 N44 d         -11.968  48.793   4.383  0.00  0.00    -0.644 OA
ATOM     52  O32 N44 d         -12.131  49.735   2.374  0.00  0.00    -0.644 OA
ENDBRANCH  45  50
ENDBRANCH  34  37
ENDBRANCH  32  34
BRANCH  32  53
ATOM     53  C27 N44 d          -6.885  46.567   3.549  0.00  0.00     0.099 C 
ATOM     54  H23 N44 d          -6.115  47.291   3.856  0.00  0.00     0.082 H 
ATOM     55  H24 N44 d          -7.343  46.117   4.442  0.00  0.00     0.082 H 
BRANCH  53  56
ATOM     56  C20 N44 d          -6.221  45.484   2.770  0.00  0.00    -0.087 C 
ATOM     57  C19 N44 d          -6.577  44.200   2.899  0.00  0.00    -0.123 C 
ATOM     58  H12 N44 d          -6.071  43.433   2.315  0.00  0.00     0.066 H 
ATOM     59  H13 N44 d          -7.372  43.923   3.588  0.00  0.00     0.066 H 
ATOM     60  H14 N44 d          -5.423  45.743   2.077  0.00  0.00     0.078 H 
ENDBRANCH  53  56
ENDBRANCH  32  53
ENDBRANCH   1  32
TORSDOF 10
ENDMDL
MODEL 10
REMARK VINA RESULT:      -7.2      2.254      3.976
REMARK  10 active torsions:
REMARK  status: ('A' for Active; 'I' for Inactive)
REMARK    1  A    between atoms: C12_12  and  C21_21 
REMARK    2  A    between atoms: C13_13  and  C22_22 
REMARK    3  A    between atoms: C24_24  and  C14_14 
REMARK    4  A    between atoms: C25_25  and  C15_15 
REMARK    5  A    between atoms: C26_26  and  C16_16 
REMARK    6  A    between atoms: C27_27  and  C20_20 
REMARK       I    between atoms: C21_21  and  N28_28 
REMARK    7  A    between atoms: N28_28  and  C24_24 
REMARK    8  A    between atoms: N29_29  and  C25_25 
REMARK    9  A    between atoms: N29_29  and  C26_26 
REMARK   10  A    between atoms: C27_27  and  N29_29 
ROOT
ATOM      1  C25 N44 d         -10.329  45.109   0.517  0.00  0.00     0.109 C 
ATOM      2  H19 N44 d          -9.247  45.284   0.419  0.00  0.00     0.083 H 
ATOM      3  H20 N44 d         -10.581  44.956   1.577  0.00  0.00     0.083 H 
ENDROOT
BRANCH   1   4
ATOM      4  C15 N44 d         -10.662  43.860  -0.221  0.00  0.00    -0.017 A 
ATOM      5  C9  N44 d         -11.948  43.725  -0.708  0.00  0.00    -0.074 A 
ATOM      6  C5  N44 d         -12.338  42.592  -1.401  0.00  0.00    -0.082 A 
ATOM      7  H9  N44 d         -12.665  44.521  -0.545  0.00  0.00     0.084 H 
ATOM      8  C2  N44 d         -11.419  41.590  -1.596  0.00  0.00    -0.082 A 
ATOM      9  H5  N44 d         -13.347  42.498  -1.782  0.00  0.00     0.083 H 
ATOM     10  C6  N44 d         -10.129  41.713  -1.115  0.00  0.00    -0.067 A 
ATOM     11  H2  N44 d         -11.708  40.694  -2.133  0.00  0.00     0.083 H 
ATOM     12  C12 N44 d          -9.735  42.847  -0.426  0.00  0.00     0.040 A 
ATOM     13  H6  N44 d          -9.418  40.912  -1.279  0.00  0.00     0.085 H 
BRANCH  12  14
ATOM     14  C21 N44 d          -8.335  42.940   0.085  0.00  0.00     0.252 C 
ATOM     15  N28 N44 d          -8.073  42.505   1.377  0.00  0.00    -0.353 N 
ATOM     16  H25 N44 d          -8.814  42.134   1.937  0.00  0.00     0.163 HD
ATOM     17  O31 N44 d          -7.467  43.402  -0.639  0.00  0.00    -0.268 OA
BRANCH  15  18
ATOM     18  C24 N44 d          -6.732  42.585   1.918  0.00  0.00     0.019 C 
ATOM     19  H17 N44 d          -6.420  41.587   2.257  0.00  0.00     0.071 H 
ATOM     20  H18 N44 d          -6.047  42.936   1.131  0.00  0.00     0.071 H 
BRANCH  18  21
ATOM     21  C14 N44 d          -6.676  43.534   3.074  0.00  0.00    -0.041 A 
ATOM     22  C7  N44 d          -7.127  44.828   2.938  0.00  0.00    -0.075 A 
ATOM     23  C3  N44 d          -7.096  45.699   4.002  0.00  0.00    -0.082 A 
ATOM     24  H7  N44 d          -7.511  45.165   1.982  0.00  0.00     0.084 H 
ATOM     25  C1  N44 d          -6.605  45.283   5.221  0.00  0.00    -0.083 A 
ATOM     26  H3  N44 d          -7.457  46.714   3.882  0.00  0.00     0.083 H 
ATOM     27  C4  N44 d          -6.133  43.996   5.362  0.00  0.00    -0.082 A 
ATOM     28  H1  N44 d          -6.590  45.964   6.065  0.00  0.00     0.083 H 
ATOM     29  C8  N44 d          -6.174  43.124   4.295  0.00  0.00    -0.075 A 
ATOM     30  H4  N44 d          -5.729  43.669   6.312  0.00  0.00     0.083 H 
ATOM     31  H8  N44 d          -5.811  42.109   4.414  0.00  0.00     0.084 H 
ENDBRANCH  18  21
ENDBRANCH  15  18
ENDBRANCH  12  14
ENDBRANCH   1   4
BRANCH   1  32
ATOM     32  N29 N44 d         -11.035  46.331   0.050  0.00  0.00    -0.060 N 
ATOM     33  H26 N44 d         -11.894  45.981  -0.347  0.00  0.00     0.281 HD
BRANCH  32  34
ATOM     34  C26 N44 d         -10.398  47.067  -1.100  0.00  0.00     0.109 C 
ATOM     35  H21 N44 d         -10.174  46.355  -1.906  0.00  0.00     0.083 H 
ATOM     36  H22 N44 d         -11.095  47.833  -1.470  0.00  0.00     0.083 H 
BRANCH  34  37
ATOM     37  C16 N44 d          -9.124  47.730  -0.658  0.00  0.00    -0.013 A 
ATOM     38  C10 N44 d          -8.177  46.940  -0.006  0.00  0.00    -0.071 A 
ATOM     39  C11 N44 d          -6.974  47.472   0.441  0.00  0.00    -0.047 A 
ATOM     40  H10 N44 d          -8.383  45.888   0.155  0.00  0.00     0.084 H 
ATOM     41  C17 N44 d          -6.769  48.813   0.213  0.00  0.00     0.106 A 
ATOM     42  H11 N44 d          -6.233  46.860   0.944  0.00  0.00     0.087 H 
ATOM     43  C18 N44 d          -7.694  49.601  -0.426  0.00  0.00     0.122 A 
ATOM     44  O33 N44 d          -5.645  49.506   0.590  0.00  0.00    -0.323 OA
ATOM     45  C13 N44 d          -8.904  49.092  -0.879  0.00  0.00     0.085 A 
ATOM     46  O34 N44 d          -7.256  50.922  -0.528  0.00  0.00    -0.322 OA
ATOM     47  C23 N44 d          -5.969  50.830   0.110  0.00  0.00     0.115 A 
ATOM     48  H15 N44 d          -5.200  51.134  -0.616  0.00  0.00     0.118 H 
ATOM     49  H16 N44 d          -5.958  51.521   0.967  0.00  0.00     0.118 H 
BRANCH  45  50
ATOM     50  C22 N44 d          -9.902  49.965  -1.598  0.00  0.00     0.212 C 
ATOM     51  O30 N44 d          -9.714  50.131  -2.835  0.00  0.00    -0.644 OA
ATOM     52  O32 N44 d         -10.891  50.456  -0.977  0.00  0.00    -0.644 OA
ENDBRANCH  45  50
ENDBRANCH  34  37
ENDBRANCH  32  34
BRANCH  32  53
ATOM     53  C27 N44 d         -11.482  47.184   1.201  0.00  0.00     0.099 C 
ATOM     54  H23 N44 d         -11.122  48.209   1.029  0.00  0.00     0.082 H 
ATOM     55  H24 N44 d         -12.582  47.180   1.225  0.00  0.00     0.082 H 
BRANCH  53  56
ATOM     56  C20 N44 d         -10.987  46.733   2.533  0.00  0.00    -0.087 C 
ATOM     57  C19 N44 d         -10.648  47.602   3.493  0.00  0.00    -0.123 C 
ATOM     58  H12 N44 d         -10.289  47.238   4.454  0.00  0.00     0.066 H 
ATOM     59  H13 N44 d         -10.731  48.672   3.312  0.00  0.00     0.066 H 
ATOM     60  H14 N44 d         -10.897  45.666   2.730  0.00  0.00     0.078 H 
ENDBRANCH  53  56
ENDBRANCH  32  53
ENDBRANCH   1  32
TORSDOF 10
ENDMDL
