MODEL 1
REMARK VINA RESULT:      -9.7      0.000      0.000
REMARK  3 active torsions:
REMARK  status: ('A' for Active; 'I' for Inactive)
REMARK    1  A    between atoms: C1_1  and  O1_2 
REMARK    2  A    between atoms: C10_11  and  C11_12 
REMARK    3  A    between atoms: C14_15  and  C15_16 
ROOT
ATOM      1  C1  MOL d          22.363   5.937  18.730  0.00  0.00     0.066 A 
ATOM      2  C2  MOL d          22.267   4.544  18.802  0.00  0.00    -0.049 A 
ATOM      3  C3  MOL d          22.298   3.763  17.647  0.00  0.00    -0.054 A 
ATOM      4  C4  MOL d          22.425   4.393  16.410  0.00  0.00     0.044 A 
ATOM      5  C5  MOL d          22.518   5.771  16.357  0.00  0.00     0.006 A 
ATOM      6  C6  MOL d          22.491   6.573  17.495  0.00  0.00    -0.038 A 
ATOM      7  N7  MOL d          22.487   3.954  15.112  0.00  0.00    -0.354 N 
ATOM      8  C8  MOL d          22.620   4.983  14.210  0.00  0.00     0.051 A 
ATOM      9  C9  MOL d          22.643   6.153  14.946  0.00  0.00     0.011 A 
ATOM     10  C10 MOL d          22.726   5.046  12.824  0.00  0.00    -0.023 A 
ATOM     11  C12 MOL d          22.851   6.295  12.201  0.00  0.00    -0.011 A 
ATOM     12  C13 MOL d          22.871   7.487  12.958  0.00  0.00     0.036 A 
ATOM     13  C14 MOL d          22.766   7.420  14.363  0.00  0.00    -0.033 A 
ATOM     14  C16 MOL d          22.953   6.368  10.809  0.00  0.00    -0.057 A 
ATOM     15  C17 MOL d          23.077   7.607  10.184  0.00  0.00    -0.020 A 
ATOM     16  N18 MOL d          23.098   8.733  10.919  0.00  0.00    -0.344 N 
ATOM     17  C19 MOL d          23.000   8.707  12.262  0.00  0.00     0.190 A 
ATOM     18  O19 MOL d          23.032   9.900  12.922  0.00  0.00    -0.171 OA
ATOM     19  H2  MOL d          22.168   4.065  19.770  0.00  0.00     0.087 H 
ATOM     20  H3  MOL d          22.223   2.683  17.710  0.00  0.00     0.087 H 
ATOM     21  H4  MOL d          22.568   7.652  17.424  0.00  0.00     0.089 H 
ATOM     22  H5  MOL d          22.441   2.961  14.842  0.00  0.00     0.166 HD
ATOM     23  H12 MOL d          22.935   5.457  10.213  0.00  0.00     0.086 H 
ATOM     24  H13 MOL d          23.156   7.663   9.099  0.00  0.00     0.111 H 
ATOM     25  H14 MOL d          23.191   9.614  10.455  0.00  0.00     0.167 HD
ENDROOT
BRANCH  10  26
ATOM     26  C11 MOL d          22.699   3.764  12.022  0.00  0.00    -0.048 C 
ATOM     27  H6  MOL d          22.413   2.928  12.677  0.00  0.00     0.033 H 
ATOM     28  H7  MOL d          23.697   3.574  11.601  0.00  0.00     0.033 H 
ATOM     29  H8  MOL d          21.968   3.858  11.206  0.00  0.00     0.033 H 
ENDBRANCH  10  26
BRANCH  13  30
ATOM     30  C15 MOL d          22.779   8.658  15.236  0.00  0.00    -0.049 C 
ATOM     31  H9  MOL d          21.751   9.028  15.364  0.00  0.00     0.033 H 
ATOM     32  H10 MOL d          23.392   9.436  14.760  0.00  0.00     0.033 H 
ATOM     33  H11 MOL d          23.202   8.408  16.220  0.00  0.00     0.033 H 
ENDBRANCH  13  30
BRANCH   1  34
ATOM     34  O1  MOL d          22.332   6.677  19.877  0.00  0.00    -0.361 OA
ATOM     35  H1  MOL d          21.705   6.298  20.480  0.00  0.00     0.217 HD
ENDBRANCH   1  34
TORSDOF 3
ENDMDL
MODEL 2
REMARK VINA RESULT:      -9.7      2.068      5.696
REMARK  3 active torsions:
REMARK  status: ('A' for Active; 'I' for Inactive)
REMARK    1  A    between atoms: C1_1  and  O1_2 
REMARK    2  A    between atoms: C10_11  and  C11_12 
REMARK    3  A    between atoms: C14_15  and  C15_16 
ROOT
ATOM      1  C1  MOL d          23.262   7.001  10.980  0.00  0.00     0.066 A 
ATOM      2  C2  MOL d          23.154   5.634  10.707  0.00  0.00    -0.049 A 
ATOM      3  C3  MOL d          22.953   4.712  11.735  0.00  0.00    -0.054 A 
ATOM      4  C4  MOL d          22.862   5.173  13.046  0.00  0.00     0.044 A 
ATOM      5  C5  MOL d          22.972   6.529  13.299  0.00  0.00     0.006 A 
ATOM      6  C6  MOL d          23.171   7.469  12.291  0.00  0.00    -0.038 A 
ATOM      7  N7  MOL d          22.674   4.571  14.264  0.00  0.00    -0.354 N 
ATOM      8  C8  MOL d          22.653   5.471  15.303  0.00  0.00     0.051 A 
ATOM      9  C9  MOL d          22.839   6.723  14.747  0.00  0.00     0.011 A 
ATOM     10  C10 MOL d          22.492   5.353  16.680  0.00  0.00    -0.023 A 
ATOM     11  C12 MOL d          22.524   6.507  17.476  0.00  0.00    -0.011 A 
ATOM     12  C13 MOL d          22.716   7.782  16.902  0.00  0.00     0.036 A 
ATOM     13  C14 MOL d          22.876   7.898  15.505  0.00  0.00    -0.033 A 
ATOM     14  C16 MOL d          22.369   6.398  18.861  0.00  0.00    -0.057 A 
ATOM     15  C17 MOL d          22.400   7.540  19.658  0.00  0.00    -0.020 A 
ATOM     16  N18 MOL d          22.580   8.748  19.095  0.00  0.00    -0.344 N 
ATOM     17  C19 MOL d          22.737   8.897  17.765  0.00  0.00     0.190 A 
ATOM     18  O19 MOL d          22.913  10.162  17.286  0.00  0.00    -0.171 OA
ATOM     19  H2  MOL d          23.226   5.286   9.683  0.00  0.00     0.087 H 
ATOM     20  H3  MOL d          22.870   3.653  11.516  0.00  0.00     0.087 H 
ATOM     21  H4  MOL d          23.251   8.527  12.517  0.00  0.00     0.089 H 
ATOM     22  H5  MOL d          22.561   3.555  14.387  0.00  0.00     0.166 HD
ATOM     23  H12 MOL d          22.223   5.420  19.317  0.00  0.00     0.086 H 
ATOM     24  H13 MOL d          22.278   7.455  20.737  0.00  0.00     0.111 H 
ATOM     25  H14 MOL d          22.597   9.559  19.680  0.00  0.00     0.167 HD
ENDROOT
BRANCH  10  26
ATOM     26  C11 MOL d          22.291   3.983  17.286  0.00  0.00    -0.048 C 
ATOM     27  H6  MOL d          22.310   4.061  18.384  0.00  0.00     0.033 H 
ATOM     28  H7  MOL d          23.097   3.312  16.953  0.00  0.00     0.033 H 
ATOM     29  H8  MOL d          21.321   3.577  16.964  0.00  0.00     0.033 H 
ENDBRANCH  10  26
BRANCH  13  30
ATOM     30  C15 MOL d          23.088   9.234  14.822  0.00  0.00    -0.049 C 
ATOM     31  H9  MOL d          22.476   9.281  13.909  0.00  0.00     0.033 H 
ATOM     32  H10 MOL d          24.150   9.346  14.558  0.00  0.00     0.033 H 
ATOM     33  H11 MOL d          22.792  10.045  15.503  0.00  0.00     0.033 H 
ENDBRANCH  13  30
BRANCH   1  34
ATOM     34  O1  MOL d          23.456   7.882   9.955  0.00  0.00    -0.361 OA
ATOM     35  H1  MOL d          23.742   8.717  10.307  0.00  0.00     0.217 HD
ENDBRANCH   1  34
TORSDOF 3
ENDMDL
MODEL 3
REMARK VINA RESULT:      -9.5      2.100      3.196
REMARK  3 active torsions:
REMARK  status: ('A' for Active; 'I' for Inactive)
REMARK    1  A    between atoms: C1_1  and  O1_2 
REMARK    2  A    between atoms: C10_11  and  C11_12 
REMARK    3  A    between atoms: C14_15  and  C15_16 
ROOT
ATOM      1  C1  MOL d          22.125   4.944  18.925  0.00  0.00     0.066 A 
ATOM      2  C2  MOL d          22.197   6.175  19.586  0.00  0.00    -0.049 A 
ATOM      3  C3  MOL d          22.411   7.358  18.878  0.00  0.00    -0.054 A 
ATOM      4  C4  MOL d          22.553   7.298  17.493  0.00  0.00     0.044 A 
ATOM      5  C5  MOL d          22.480   6.073  16.855  0.00  0.00     0.006 A 
ATOM      6  C6  MOL d          22.266   4.879  17.538  0.00  0.00    -0.038 A 
ATOM      7  N7  MOL d          22.767   8.230  16.510  0.00  0.00    -0.354 N 
ATOM      8  C8  MOL d          22.835   7.671  15.256  0.00  0.00     0.051 A 
ATOM      9  C9  MOL d          22.661   6.310  15.419  0.00  0.00     0.011 A 
ATOM     10  C10 MOL d          23.028   8.187  13.978  0.00  0.00    -0.023 A 
ATOM     11  C12 MOL d          23.044   7.314  12.880  0.00  0.00    -0.011 A 
ATOM     12  C13 MOL d          22.868   5.924  13.054  0.00  0.00     0.036 A 
ATOM     13  C14 MOL d          22.670   5.405  14.351  0.00  0.00    -0.033 A 
ATOM     14  C16 MOL d          23.242   7.822  11.593  0.00  0.00    -0.057 A 
ATOM     15  C17 MOL d          23.260   6.960  10.499  0.00  0.00    -0.020 A 
ATOM     16  N18 MOL d          23.087   5.639  10.681  0.00  0.00    -0.344 N 
ATOM     17  C19 MOL d          22.897   5.108  11.904  0.00  0.00     0.190 A 
ATOM     18  O19 MOL d          22.729   3.757  11.989  0.00  0.00    -0.171 OA
ATOM     19  H2  MOL d          22.085   6.209  20.664  0.00  0.00     0.087 H 
ATOM     20  H3  MOL d          22.465   8.308  19.397  0.00  0.00     0.087 H 
ATOM     21  H4  MOL d          22.211   3.932  17.013  0.00  0.00     0.089 H 
ATOM     22  H5  MOL d          22.866   9.239  16.691  0.00  0.00     0.166 HD
ATOM     23  H12 MOL d          23.383   8.892  11.446  0.00  0.00     0.086 H 
ATOM     24  H13 MOL d          23.414   7.356   9.497  0.00  0.00     0.111 H 
ATOM     25  H14 MOL d          23.100   5.033   9.885  0.00  0.00     0.167 HD
ENDROOT
BRANCH  10  26
ATOM     26  C11 MOL d          23.220   9.676  13.802  0.00  0.00    -0.048 C 
ATOM     27  H6  MOL d          22.926   9.966  12.783  0.00  0.00     0.033 H 
ATOM     28  H7  MOL d          24.277   9.932  13.966  0.00  0.00     0.033 H 
ATOM     29  H8  MOL d          22.596  10.215  14.531  0.00  0.00     0.033 H 
ENDBRANCH  10  26
BRANCH  13  30
ATOM     30  C15 MOL d          22.477   3.925  14.610  0.00  0.00    -0.049 C 
ATOM     31  H9  MOL d          23.438   3.474  14.898  0.00  0.00     0.033 H 
ATOM     32  H10 MOL d          22.103   3.439  13.697  0.00  0.00     0.033 H 
ATOM     33  H11 MOL d          21.749   3.787  15.423  0.00  0.00     0.033 H 
ENDBRANCH  13  30
BRANCH   1  34
ATOM     34  O1  MOL d          21.913   3.803  19.642  0.00  0.00    -0.361 OA
ATOM     35  H1  MOL d          22.065   3.976  20.564  0.00  0.00     0.217 HD
ENDBRANCH   1  34
TORSDOF 3
ENDMDL
MODEL 4
REMARK VINA RESULT:      -9.5      1.789      2.343
REMARK  3 active torsions:
REMARK  status: ('A' for Active; 'I' for Inactive)
REMARK    1  A    between atoms: C1_1  and  O1_2 
REMARK    2  A    between atoms: C10_11  and  C11_12 
REMARK    3  A    between atoms: C14_15  and  C15_16 
ROOT
ATOM      1  C1  MOL d          22.608   9.612  18.266  0.00  0.00     0.066 A 
ATOM      2  C2  MOL d          22.515   8.521  19.136  0.00  0.00    -0.049 A 
ATOM      3  C3  MOL d          22.544   7.213  18.652  0.00  0.00    -0.054 A 
ATOM      4  C4  MOL d          22.666   7.005  17.280  0.00  0.00     0.044 A 
ATOM      5  C5  MOL d          22.757   8.094  16.432  0.00  0.00     0.006 A 
ATOM      6  C6  MOL d          22.732   9.409  16.891  0.00  0.00    -0.038 A 
ATOM      7  N7  MOL d          22.726   5.892  16.480  0.00  0.00    -0.354 N 
ATOM      8  C8  MOL d          22.854   6.203  15.147  0.00  0.00     0.051 A 
ATOM      9  C9  MOL d          22.877   7.583  15.063  0.00  0.00     0.011 A 
ATOM     10  C10 MOL d          22.956   5.447  13.983  0.00  0.00    -0.023 A 
ATOM     11  C12 MOL d          23.077   6.099  12.748  0.00  0.00    -0.011 A 
ATOM     12  C13 MOL d          23.098   7.509  12.669  0.00  0.00     0.036 A 
ATOM     13  C14 MOL d          22.996   8.273  13.851  0.00  0.00    -0.033 A 
ATOM     14  C16 MOL d          23.175   5.348  11.574  0.00  0.00    -0.057 A 
ATOM     15  C17 MOL d          23.295   5.991  10.344  0.00  0.00    -0.020 A 
ATOM     16  N18 MOL d          23.317   7.334  10.285  0.00  0.00    -0.344 N 
ATOM     17  C19 MOL d          23.221   8.095  11.393  0.00  0.00     0.190 A 
ATOM     18  O19 MOL d          23.254   9.450  11.234  0.00  0.00    -0.171 OA
ATOM     19  H2  MOL d          22.420   8.695  20.202  0.00  0.00     0.087 H 
ATOM     20  H3  MOL d          22.472   6.372  19.332  0.00  0.00     0.087 H 
ATOM     21  H4  MOL d          22.807  10.245  16.204  0.00  0.00     0.089 H 
ATOM     22  H5  MOL d          22.680   4.928  16.838  0.00  0.00     0.166 HD
ATOM     23  H12 MOL d          23.157   4.260  11.620  0.00  0.00     0.086 H 
ATOM     24  H13 MOL d          23.371   5.404   9.429  0.00  0.00     0.111 H 
ATOM     25  H14 MOL d          23.406   7.780   9.395  0.00  0.00     0.167 HD
ENDROOT
BRANCH  10  26
ATOM     26  C11 MOL d          22.929   3.938  14.078  0.00  0.00    -0.048 C 
ATOM     27  H6  MOL d          23.597   3.511  13.315  0.00  0.00     0.033 H 
ATOM     28  H7  MOL d          21.903   3.578  13.909  0.00  0.00     0.033 H 
ATOM     29  H8  MOL d          23.267   3.627  15.077  0.00  0.00     0.033 H 
ENDBRANCH  10  26
BRANCH  13  30
ATOM     30  C15 MOL d          23.009   9.788  13.840  0.00  0.00    -0.049 C 
ATOM     31  H9  MOL d          23.536  10.157  14.733  0.00  0.00     0.033 H 
ATOM     32  H10 MOL d          21.976  10.163  13.842  0.00  0.00     0.033 H 
ATOM     33  H11 MOL d          23.527  10.143  12.937  0.00  0.00     0.033 H 
ENDBRANCH  13  30
BRANCH   1  34
ATOM     34  O1  MOL d          22.579  10.881  18.767  0.00  0.00    -0.361 OA
ATOM     35  H1  MOL d          22.498  11.500  18.051  0.00  0.00     0.217 HD
ENDBRANCH   1  34
TORSDOF 3
ENDMDL
MODEL 5
REMARK VINA RESULT:      -9.0      2.373      6.486
REMARK  3 active torsions:
REMARK  status: ('A' for Active; 'I' for Inactive)
REMARK    1  A    between atoms: C1_1  and  O1_2 
REMARK    2  A    between atoms: C10_11  and  C11_12 
REMARK    3  A    between atoms: C14_15  and  C15_16 
ROOT
ATOM      1  C1  MOL d          22.862   4.969  12.133  0.00  0.00     0.066 A 
ATOM      2  C2  MOL d          23.122   6.115  11.375  0.00  0.00    -0.049 A 
ATOM      3  C3  MOL d          23.238   7.365  11.983  0.00  0.00    -0.054 A 
ATOM      4  C4  MOL d          23.090   7.459  13.365  0.00  0.00     0.044 A 
ATOM      5  C5  MOL d          22.833   6.316  14.100  0.00  0.00     0.006 A 
ATOM      6  C6  MOL d          22.714   5.057  13.518  0.00  0.00    -0.038 A 
ATOM      7  N7  MOL d          23.138   8.491  14.267  0.00  0.00    -0.354 N 
ATOM      8  C8  MOL d          22.926   8.076  15.560  0.00  0.00     0.051 A 
ATOM      9  C9  MOL d          22.727   6.709  15.509  0.00  0.00     0.011 A 
ATOM     10  C10 MOL d          22.884   8.726  16.790  0.00  0.00    -0.023 A 
ATOM     11  C12 MOL d          22.637   7.983  17.952  0.00  0.00    -0.011 A 
ATOM     12  C13 MOL d          22.432   6.587  17.893  0.00  0.00     0.036 A 
ATOM     13  C14 MOL d          22.478   5.930  16.645  0.00  0.00    -0.033 A 
ATOM     14  C16 MOL d          22.588   8.629  19.191  0.00  0.00    -0.057 A 
ATOM     15  C17 MOL d          22.342   7.895  20.349  0.00  0.00    -0.020 A 
ATOM     16  N18 MOL d          22.153   6.566  20.277  0.00  0.00    -0.344 N 
ATOM     17  C19 MOL d          22.189   5.905  19.103  0.00  0.00     0.190 A 
ATOM     18  O19 MOL d          21.986   4.557  19.129  0.00  0.00    -0.171 OA
ATOM     19  H2  MOL d          23.236   6.030  10.300  0.00  0.00     0.087 H 
ATOM     20  H3  MOL d          23.440   8.249  11.389  0.00  0.00     0.087 H 
ATOM     21  H4  MOL d          22.514   4.176  14.118  0.00  0.00     0.089 H 
ATOM     22  H5  MOL d          23.314   9.472  14.004  0.00  0.00     0.166 HD
ATOM     23  H12 MOL d          22.741   9.705  19.250  0.00  0.00     0.086 H 
ATOM     24  H13 MOL d          22.304   8.399  21.315  0.00  0.00     0.111 H 
ATOM     25  H14 MOL d          21.980   6.053  21.118  0.00  0.00     0.167 HD
ENDROOT
BRANCH  10  26
ATOM     26  C11 MOL d          23.101  10.222  16.842  0.00  0.00    -0.048 C 
ATOM     27  H6  MOL d          23.874  10.506  16.113  0.00  0.00     0.033 H 
ATOM     28  H7  MOL d          23.428  10.510  17.853  0.00  0.00     0.033 H 
ATOM     29  H8  MOL d          22.161  10.738  16.600  0.00  0.00     0.033 H 
ENDBRANCH  10  26
BRANCH  13  30
ATOM     30  C15 MOL d          22.265   4.436  16.508  0.00  0.00    -0.049 C 
ATOM     31  H9  MOL d          22.923   3.905  17.212  0.00  0.00     0.033 H 
ATOM     32  H10 MOL d          22.501   4.125  15.480  0.00  0.00     0.033 H 
ATOM     33  H11 MOL d          21.216   4.194  16.733  0.00  0.00     0.033 H 
ENDBRANCH  13  30
BRANCH   1  34
ATOM     34  O1  MOL d          22.757   3.757  11.513  0.00  0.00    -0.361 OA
ATOM     35  H1  MOL d          22.061   3.794  10.867  0.00  0.00     0.217 HD
ENDBRANCH   1  34
TORSDOF 3
ENDMDL
MODEL 6
REMARK VINA RESULT:      -8.7      2.105      6.695
REMARK  3 active torsions:
REMARK  status: ('A' for Active; 'I' for Inactive)
REMARK    1  A    between atoms: C1_1  and  O1_2 
REMARK    2  A    between atoms: C10_11  and  C11_12 
REMARK    3  A    between atoms: C14_15  and  C15_16 
ROOT
ATOM      1  C1  MOL d          23.203   8.461  11.192  0.00  0.00     0.066 A 
ATOM      2  C2  MOL d          23.333   9.848  11.314  0.00  0.00    -0.049 A 
ATOM      3  C3  MOL d          23.295  10.464  12.566  0.00  0.00    -0.054 A 
ATOM      4  C4  MOL d          23.124   9.674  13.701  0.00  0.00     0.044 A 
ATOM      5  C5  MOL d          22.996   8.304  13.562  0.00  0.00     0.006 A 
ATOM      6  C6  MOL d          23.032   7.665  12.325  0.00  0.00    -0.038 A 
ATOM      7  N7  MOL d          23.042   9.931  15.045  0.00  0.00    -0.354 N 
ATOM      8  C8  MOL d          22.869   8.791  15.794  0.00  0.00     0.051 A 
ATOM      9  C9  MOL d          22.832   7.735  14.904  0.00  0.00     0.011 A 
ATOM     10  C10 MOL d          22.739   8.541  17.157  0.00  0.00    -0.023 A 
ATOM     11  C12 MOL d          22.570   7.221  17.599  0.00  0.00    -0.011 A 
ATOM     12  C13 MOL d          22.531   6.146  16.684  0.00  0.00     0.036 A 
ATOM     13  C14 MOL d          22.666   6.404  15.304  0.00  0.00    -0.033 A 
ATOM     14  C16 MOL d          22.434   6.960  18.966  0.00  0.00    -0.057 A 
ATOM     15  C17 MOL d          22.265   5.651  19.411  0.00  0.00    -0.020 A 
ATOM     16  N18 MOL d          22.234   4.638  18.528  0.00  0.00    -0.344 N 
ATOM     17  C19 MOL d          22.358   4.846  17.202  0.00  0.00     0.190 A 
ATOM     18  O19 MOL d          22.315   3.757  16.383  0.00  0.00    -0.171 OA
ATOM     19  H2  MOL d          23.466  10.453  10.424  0.00  0.00     0.087 H 
ATOM     20  H3  MOL d          23.397  11.539  12.654  0.00  0.00     0.087 H 
ATOM     21  H4  MOL d          22.931   6.589  12.244  0.00  0.00     0.089 H 
ATOM     22  H5  MOL d          23.104  10.876  15.451  0.00  0.00     0.166 HD
ATOM     23  H12 MOL d          22.459   7.780  19.682  0.00  0.00     0.086 H 
ATOM     24  H13 MOL d          22.159   5.448  20.476  0.00  0.00     0.111 H 
ATOM     25  H14 MOL d          22.115   3.704  18.863  0.00  0.00     0.167 HD
ENDROOT
BRANCH  10  26
ATOM     26  C11 MOL d          22.778   9.699  18.128  0.00  0.00    -0.048 C 
ATOM     27  H6  MOL d          23.142   9.345  19.105  0.00  0.00     0.033 H 
ATOM     28  H7  MOL d          21.767  10.116  18.243  0.00  0.00     0.033 H 
ATOM     29  H8  MOL d          23.454  10.477  17.745  0.00  0.00     0.033 H 
ENDBRANCH  10  26
BRANCH  13  30
ATOM     30  C15 MOL d          22.631   5.300  14.267  0.00  0.00    -0.049 C 
ATOM     31  H9  MOL d          22.831   5.724  13.271  0.00  0.00     0.033 H 
ATOM     32  H10 MOL d          21.639   4.826  14.270  0.00  0.00     0.033 H 
ATOM     33  H11 MOL d          23.397   4.548  14.506  0.00  0.00     0.033 H 
ENDBRANCH  13  30
BRANCH   1  34
ATOM     34  O1  MOL d          23.246   7.885   9.955  0.00  0.00    -0.361 OA
ATOM     35  H1  MOL d          24.100   8.035   9.567  0.00  0.00     0.217 HD
ENDBRANCH   1  34
TORSDOF 3
ENDMDL
MODEL 7
REMARK VINA RESULT:      -8.2      1.887      2.622
REMARK  3 active torsions:
REMARK  status: ('A' for Active; 'I' for Inactive)
REMARK    1  A    between atoms: C1_1  and  O1_2 
REMARK    2  A    between atoms: C10_11  and  C11_12 
REMARK    3  A    between atoms: C14_15  and  C15_16 
ROOT
ATOM      1  C1  MOL d          22.432   9.552  19.565  0.00  0.00     0.066 A 
ATOM      2  C2  MOL d          22.378   8.430  20.398  0.00  0.00    -0.049 A 
ATOM      3  C3  MOL d          22.410   7.140  19.866  0.00  0.00    -0.054 A 
ATOM      4  C4  MOL d          22.497   6.983  18.485  0.00  0.00     0.044 A 
ATOM      5  C5  MOL d          22.549   8.103  17.675  0.00  0.00     0.006 A 
ATOM      6  C6  MOL d          22.520   9.400  18.181  0.00  0.00    -0.038 A 
ATOM      7  N7  MOL d          22.549   5.901  17.644  0.00  0.00    -0.354 N 
ATOM      8  C8  MOL d          22.635   6.261  16.320  0.00  0.00     0.051 A 
ATOM      9  C9  MOL d          22.638   7.643  16.285  0.00  0.00     0.011 A 
ATOM     10  C10 MOL d          22.714   5.548  15.128  0.00  0.00    -0.023 A 
ATOM     11  C12 MOL d          22.793   6.246  13.914  0.00  0.00    -0.011 A 
ATOM     12  C13 MOL d          22.793   7.657  13.885  0.00  0.00     0.036 A 
ATOM     13  C14 MOL d          22.714   8.377  15.096  0.00  0.00    -0.033 A 
ATOM     14  C16 MOL d          22.867   5.538  12.711  0.00  0.00    -0.057 A 
ATOM     15  C17 MOL d          22.945   6.226  11.502  0.00  0.00    -0.020 A 
ATOM     16  N18 MOL d          22.947   7.570  11.492  0.00  0.00    -0.344 N 
ATOM     17  C19 MOL d          22.873   8.290  12.628  0.00  0.00     0.190 A 
ATOM     18  O19 MOL d          22.884   9.650  12.518  0.00  0.00    -0.171 OA
ATOM     19  H2  MOL d          22.310   8.564  21.472  0.00  0.00     0.087 H 
ATOM     20  H3  MOL d          22.368   6.275  20.518  0.00  0.00     0.087 H 
ATOM     21  H4  MOL d          22.565  10.261  17.523  0.00  0.00     0.089 H 
ATOM     22  H5  MOL d          22.525   4.923  17.969  0.00  0.00     0.166 HD
ATOM     23  H12 MOL d          22.865   4.449  12.719  0.00  0.00     0.086 H 
ATOM     24  H13 MOL d          23.003   5.673  10.565  0.00  0.00     0.111 H 
ATOM     25  H14 MOL d          23.006   8.049  10.616  0.00  0.00     0.167 HD
ENDROOT
BRANCH  10  26
ATOM     26  C11 MOL d          22.710   4.037  15.169  0.00  0.00    -0.048 C 
ATOM     27  H6  MOL d          21.776   3.685  15.631  0.00  0.00     0.033 H 
ATOM     28  H7  MOL d          23.567   3.683  15.760  0.00  0.00     0.033 H 
ATOM     29  H8  MOL d          22.784   3.641  14.145  0.00  0.00     0.033 H 
ENDBRANCH  10  26
BRANCH  13  30
ATOM     30  C15 MOL d          22.707   9.892  15.139  0.00  0.00    -0.049 C 
ATOM     31  H9  MOL d          23.335  10.238  15.974  0.00  0.00     0.033 H 
ATOM     32  H10 MOL d          21.678  10.249  15.281  0.00  0.00     0.033 H 
ATOM     33  H11 MOL d          23.106  10.287  14.193  0.00  0.00     0.033 H 
ENDBRANCH  13  30
BRANCH   1  34
ATOM     34  O1  MOL d          22.401  10.802  20.112  0.00  0.00    -0.361 OA
ATOM     35  H1  MOL d          22.763  10.771  20.989  0.00  0.00     0.217 HD
ENDBRANCH   1  34
TORSDOF 3
ENDMDL
MODEL 8
REMARK VINA RESULT:      -7.5      2.186      6.202
REMARK  3 active torsions:
REMARK  status: ('A' for Active; 'I' for Inactive)
REMARK    1  A    between atoms: C1_1  and  O1_2 
REMARK    2  A    between atoms: C10_11  and  C11_12 
REMARK    3  A    between atoms: C14_15  and  C15_16 
ROOT
ATOM      1  C1  MOL d          23.539   9.483  12.555  0.00  0.00     0.066 A 
ATOM      2  C2  MOL d          23.285   8.362  11.760  0.00  0.00    -0.049 A 
ATOM      3  C3  MOL d          22.894   7.150  12.332  0.00  0.00    -0.054 A 
ATOM      4  C4  MOL d          22.759   7.072  13.716  0.00  0.00     0.044 A 
ATOM      5  C5  MOL d          23.015   8.190  14.489  0.00  0.00     0.006 A 
ATOM      6  C6  MOL d          23.405   9.410  13.942  0.00  0.00    -0.038 A 
ATOM      7  N7  MOL d          22.405   6.076  14.590  0.00  0.00    -0.354 N 
ATOM      8  C8  MOL d          22.415   6.492  15.901  0.00  0.00     0.051 A 
ATOM      9  C9  MOL d          22.795   7.821  15.891  0.00  0.00     0.011 A 
ATOM     10  C10 MOL d          22.135   5.870  17.114  0.00  0.00    -0.023 A 
ATOM     11  C12 MOL d          22.247   6.604  18.303  0.00  0.00    -0.011 A 
ATOM     12  C13 MOL d          22.638   7.961  18.287  0.00  0.00     0.036 A 
ATOM     13  C14 MOL d          22.919   8.588  17.055  0.00  0.00    -0.033 A 
ATOM     14  C16 MOL d          21.973   5.987  19.527  0.00  0.00    -0.057 A 
ATOM     15  C17 MOL d          22.083   6.711  20.712  0.00  0.00    -0.020 A 
ATOM     16  N18 MOL d          22.452   8.004  20.679  0.00  0.00    -0.344 N 
ATOM     17  C19 MOL d          22.729   8.635  19.522  0.00  0.00     0.190 A 
ATOM     18  O19 MOL d          23.095   9.947  19.588  0.00  0.00    -0.171 OA
ATOM     19  H2  MOL d          23.392   8.434  10.683  0.00  0.00     0.087 H 
ATOM     20  H3  MOL d          22.698   6.285  11.709  0.00  0.00     0.087 H 
ATOM     21  H4  MOL d          23.597  10.272  14.571  0.00  0.00     0.089 H 
ATOM     22  H5  MOL d          22.159   5.119  14.297  0.00  0.00     0.166 HD
ATOM     23  H12 MOL d          21.673   4.941  19.554  0.00  0.00     0.086 H 
ATOM     24  H13 MOL d          21.869   6.230  21.666  0.00  0.00     0.111 H 
ATOM     25  H14 MOL d          22.524   8.510  21.538  0.00  0.00     0.167 HD
ENDROOT
BRANCH  10  26
ATOM     26  C11 MOL d          21.721   4.416  17.121  0.00  0.00    -0.048 C 
ATOM     27  H6  MOL d          22.607   3.784  17.283  0.00  0.00     0.033 H 
ATOM     28  H7  MOL d          21.260   4.161  16.156  0.00  0.00     0.033 H 
ATOM     29  H8  MOL d          20.996   4.245  17.931  0.00  0.00     0.033 H 
ENDBRANCH  10  26
BRANCH  13  30
ATOM     30  C15 MOL d          23.345  10.040  16.963  0.00  0.00    -0.049 C 
ATOM     31  H9  MOL d          23.344  10.487  17.969  0.00  0.00     0.033 H 
ATOM     32  H10 MOL d          22.643  10.588  16.318  0.00  0.00     0.033 H 
ATOM     33  H11 MOL d          24.357  10.098  16.537  0.00  0.00     0.033 H 
ENDBRANCH  13  30
BRANCH   1  34
ATOM     34  O1  MOL d          23.918  10.656  11.969  0.00  0.00    -0.361 OA
ATOM     35  H1  MOL d          23.293  10.886  11.291  0.00  0.00     0.217 HD
ENDBRANCH   1  34
TORSDOF 3
ENDMDL
MODEL 9
REMARK VINA RESULT:      -7.0      1.692      2.375
REMARK  3 active torsions:
REMARK  status: ('A' for Active; 'I' for Inactive)
REMARK    1  A    between atoms: C1_1  and  O1_2 
REMARK    2  A    between atoms: C10_11  and  C11_12 
REMARK    3  A    between atoms: C14_15  and  C15_16 
ROOT
ATOM      1  C1  MOL d          22.002   8.731  20.088  0.00  0.00     0.066 A 
ATOM      2  C2  MOL d          21.831   7.417  20.536  0.00  0.00    -0.049 A 
ATOM      3  C3  MOL d          21.917   6.341  19.652  0.00  0.00    -0.054 A 
ATOM      4  C4  MOL d          22.178   6.593  18.307  0.00  0.00     0.044 A 
ATOM      5  C5  MOL d          22.346   7.898  17.880  0.00  0.00     0.006 A 
ATOM      6  C6  MOL d          22.265   8.989  18.742  0.00  0.00    -0.038 A 
ATOM      7  N7  MOL d          22.326   5.804  17.194  0.00  0.00    -0.354 N 
ATOM      8  C8  MOL d          22.584   6.533  16.058  0.00  0.00     0.051 A 
ATOM      9  C9  MOL d          22.606   7.863  16.437  0.00  0.00     0.011 A 
ATOM     10  C10 MOL d          22.808   6.199  14.726  0.00  0.00    -0.023 A 
ATOM     11  C12 MOL d          23.048   7.219  13.793  0.00  0.00    -0.011 A 
ATOM     12  C13 MOL d          23.066   8.575  14.186  0.00  0.00     0.036 A 
ATOM     13  C14 MOL d          22.841   8.910  15.538  0.00  0.00    -0.033 A 
ATOM     14  C16 MOL d          23.268   6.893  12.452  0.00  0.00    -0.057 A 
ATOM     15  C17 MOL d          23.507   7.901  11.521  0.00  0.00    -0.020 A 
ATOM     16  N18 MOL d          23.525   9.188  11.912  0.00  0.00    -0.344 N 
ATOM     17  C19 MOL d          23.313   9.545  13.193  0.00  0.00     0.190 A 
ATOM     18  O19 MOL d          23.352  10.875  13.495  0.00  0.00    -0.171 OA
ATOM     19  H2  MOL d          21.628   7.233  21.585  0.00  0.00     0.087 H 
ATOM     20  H3  MOL d          21.783   5.326  20.007  0.00  0.00     0.087 H 
ATOM     21  H4  MOL d          22.403  10.002  18.381  0.00  0.00     0.089 H 
ATOM     22  H5  MOL d          22.251   4.777  17.208  0.00  0.00     0.166 HD
ATOM     23  H12 MOL d          23.254   5.851  12.135  0.00  0.00     0.086 H 
ATOM     24  H13 MOL d          23.679   7.647  10.476  0.00  0.00     0.111 H 
ATOM     25  H14 MOL d          23.699   9.900  11.232  0.00  0.00     0.167 HD
ENDROOT
BRANCH  10  26
ATOM     26  C11 MOL d          22.783   4.745  14.314  0.00  0.00    -0.048 C 
ATOM     27  H6  MOL d          23.812   4.393  14.150  0.00  0.00     0.033 H 
ATOM     28  H7  MOL d          22.206   4.637  13.383  0.00  0.00     0.033 H 
ATOM     29  H8  MOL d          22.312   4.147  15.108  0.00  0.00     0.033 H 
ENDBRANCH  10  26
BRANCH  13  30
ATOM     30  C15 MOL d          22.845  10.343  16.029  0.00  0.00    -0.049 C 
ATOM     31  H9  MOL d          23.877  10.653  16.250  0.00  0.00     0.033 H 
ATOM     32  H10 MOL d          22.236  10.419  16.942  0.00  0.00     0.033 H 
ATOM     33  H11 MOL d          22.424  10.998  15.252  0.00  0.00     0.033 H 
ENDBRANCH  13  30
BRANCH   1  34
ATOM     34  O1  MOL d          21.915   9.765  20.974  0.00  0.00    -0.361 OA
ATOM     35  H1  MOL d          21.206   9.598  21.584  0.00  0.00     0.217 HD
ENDBRANCH   1  34
TORSDOF 3
ENDMDL
