MODEL 1
REMARK VINA RESULT:      -7.4      0.000      0.000
REMARK  1 active torsions:
REMARK  status: ('A' for Active; 'I' for Inactive)
REMARK    1  A    between atoms: C3_3  and  N15_15 
ROOT
ATOM      1  C1  PRL d           8.965  23.229  49.558  0.00  0.00    -0.069 A 
ATOM      2  C2  PRL d           9.774  23.524  48.541  0.00  0.00    -0.057 A 
ATOM      3  C3  PRL d          10.783  22.600  48.072  0.00  0.00     0.028 A 
ATOM      4  C4  PRL d          10.902  21.387  48.723  0.00  0.00    -0.029 A 
ATOM      5  C5  PRL d           9.462  18.138  51.940  0.00  0.00    -0.029 A 
ATOM      6  C6  PRL d           8.627  17.699  52.952  0.00  0.00     0.028 A 
ATOM      7  C7  PRL d           7.602  18.604  53.430  0.00  0.00    -0.057 A 
ATOM      8  C8  PRL d           7.452  19.828  52.922  0.00  0.00    -0.069 A 
ATOM      9  C9  PRL d           8.207  21.565  51.271  0.00  0.00    -0.059 A 
ATOM     10  N10 PRL d          10.144  19.829  50.384  0.00  0.00    -0.247 NA
ATOM     11  C11 PRL d          10.070  21.061  49.773  0.00  0.00     0.070 A 
ATOM     12  C12 PRL d           8.308  20.315  51.861  0.00  0.00    -0.006 A 
ATOM     13  C13 PRL d           9.049  21.964  50.247  0.00  0.00    -0.006 A 
ATOM     14  C14 PRL d           9.322  19.398  51.402  0.00  0.00     0.070 A 
ATOM     15  N16 PRL d           8.742  16.456  53.474  0.00  0.00    -0.399 N 
ATOM     16  H1  PRL d           8.227  23.957  49.874  0.00  0.00     0.085 H 
ATOM     17  H2  PRL d           9.673  24.485  48.050  0.00  0.00     0.086 H 
ATOM     18  H3  PRL d          11.660  20.680  48.404  0.00  0.00     0.090 H 
ATOM     19  H4  PRL d          10.237  17.480  51.564  0.00  0.00     0.090 H 
ATOM     20  H5  PRL d           6.938  18.277  54.223  0.00  0.00     0.086 H 
ATOM     21  H6  PRL d           6.672  20.472  53.313  0.00  0.00     0.085 H 
ATOM     22  H7  PRL d           7.445  22.251  51.624  0.00  0.00     0.086 H 
ATOM     23  H10 PRL d           9.474  15.818  53.129  0.00  0.00     0.156 HD
ATOM     24  H11 PRL d           8.098  16.147  54.217  0.00  0.00     0.156 HD
ENDROOT
BRANCH   3  25
ATOM     25  N15 PRL d          11.521  22.896  46.978  0.00  0.00    -0.399 N 
ATOM     26  H8  PRL d          11.410  23.809  46.514  0.00  0.00     0.156 HD
ATOM     27  H9  PRL d          12.193  22.210  46.608  0.00  0.00     0.156 HD
ENDBRANCH   3  25
TORSDOF 1
ENDMDL
