MODEL 1
REMARK VINA RESULT:      -7.5      0.000      0.000
REMARK  1 active torsions:
REMARK  status: ('A' for Active; 'I' for Inactive)
REMARK    1  A    between atoms: C3_3  and  N15_15 
ROOT
ATOM      1  C1  PRL d           9.003  23.271  49.556  0.00  0.00    -0.069 A 
ATOM      2  C2  PRL d           9.805  23.562  48.534  0.00  0.00    -0.057 A 
ATOM      3  C3  PRL d          10.801  22.632  48.051  0.00  0.00     0.028 A 
ATOM      4  C4  PRL d          10.915  21.414  48.696  0.00  0.00    -0.029 A 
ATOM      5  C5  PRL d           9.476  18.165  51.912  0.00  0.00    -0.029 A 
ATOM      6  C6  PRL d           8.646  17.729  52.930  0.00  0.00     0.028 A 
ATOM      7  C7  PRL d           7.634  18.640  53.421  0.00  0.00    -0.057 A 
ATOM      8  C8  PRL d           7.490  19.868  52.920  0.00  0.00    -0.069 A 
ATOM      9  C9  PRL d           8.245  21.605  51.270  0.00  0.00    -0.059 A 
ATOM     10  N10 PRL d          10.158  19.857  50.357  0.00  0.00    -0.247 NA
ATOM     11  C11 PRL d          10.090  21.092  49.752  0.00  0.00     0.070 A 
ATOM     12  C12 PRL d           8.341  20.352  51.853  0.00  0.00    -0.006 A 
ATOM     13  C13 PRL d           9.081  22.002  50.239  0.00  0.00    -0.006 A 
ATOM     14  C14 PRL d           9.343  19.429  51.381  0.00  0.00     0.070 A 
ATOM     15  N16 PRL d           8.755  16.482  53.445  0.00  0.00    -0.399 N 
ATOM     16  H1  PRL d           8.274  24.003  49.883  0.00  0.00     0.085 H 
ATOM     17  H2  PRL d           9.708  24.527  48.048  0.00  0.00     0.086 H 
ATOM     18  H3  PRL d          11.664  20.703  48.367  0.00  0.00     0.090 H 
ATOM     19  H4  PRL d          10.242  17.501  51.526  0.00  0.00     0.090 H 
ATOM     20  H5  PRL d           6.975  18.316  54.218  0.00  0.00     0.086 H 
ATOM     21  H6  PRL d           6.720  20.518  53.321  0.00  0.00     0.085 H 
ATOM     22  H7  PRL d           7.493  22.297  51.632  0.00  0.00     0.086 H 
ATOM     23  H10 PRL d           9.478  15.840  53.090  0.00  0.00     0.156 HD
ATOM     24  H11 PRL d           8.115  16.176  54.192  0.00  0.00     0.156 HD
ENDROOT
BRANCH   3  25
ATOM     25  N15 PRL d          11.531  22.927  46.952  0.00  0.00    -0.399 N 
ATOM     26  H8  PRL d          11.198  22.641  46.020  0.00  0.00     0.156 HD
ATOM     27  H9  PRL d          12.421  23.437  47.046  0.00  0.00     0.156 HD
ENDBRANCH   3  25
TORSDOF 1
ENDMDL
MODEL 2
REMARK VINA RESULT:      -7.4      0.240      5.668
REMARK  1 active torsions:
REMARK  status: ('A' for Active; 'I' for Inactive)
REMARK    1  A    between atoms: C3_3  and  N15_15 
ROOT
ATOM      1  C1  PRL d           7.661  19.774  52.796  0.00  0.00    -0.069 A 
ATOM      2  C2  PRL d           7.881  18.562  53.305  0.00  0.00    -0.057 A 
ATOM      3  C3  PRL d           8.877  17.670  52.756  0.00  0.00     0.028 A 
ATOM      4  C4  PRL d           9.601  18.103  51.661  0.00  0.00    -0.029 A 
ATOM      5  C5  PRL d          10.872  21.442  48.466  0.00  0.00    -0.029 A 
ATOM      6  C6  PRL d          10.781  22.705  47.907  0.00  0.00     0.028 A 
ATOM      7  C7  PRL d           9.797  23.619  48.449  0.00  0.00    -0.057 A 
ATOM      8  C8  PRL d           8.994  23.273  49.456  0.00  0.00    -0.069 A 
ATOM      9  C9  PRL d           8.281  21.531  51.119  0.00  0.00    -0.059 A 
ATOM     10  N10 PRL d          10.154  19.815  50.072  0.00  0.00    -0.247 NA
ATOM     11  C11 PRL d           9.392  19.356  51.124  0.00  0.00     0.070 A 
ATOM     12  C12 PRL d           9.067  21.961  50.063  0.00  0.00    -0.006 A 
ATOM     13  C13 PRL d           8.412  20.265  51.666  0.00  0.00    -0.006 A 
ATOM     14  C14 PRL d          10.052  21.066  49.507  0.00  0.00     0.070 A 
ATOM     15  N16 PRL d          11.594  23.091  46.898  0.00  0.00    -0.399 N 
ATOM     16  H1  PRL d           6.901  20.405  53.241  0.00  0.00     0.085 H 
ATOM     17  H2  PRL d           7.296  18.236  54.157  0.00  0.00     0.086 H 
ATOM     18  H3  PRL d          10.344  17.449  51.218  0.00  0.00     0.090 H 
ATOM     19  H4  PRL d          11.601  20.738  48.079  0.00  0.00     0.090 H 
ATOM     20  H5  PRL d           9.711  24.613  48.024  0.00  0.00     0.086 H 
ATOM     21  H6  PRL d           8.270  23.990  49.827  0.00  0.00     0.085 H 
ATOM     22  H7  PRL d           7.539  22.207  51.530  0.00  0.00     0.086 H 
ATOM     23  H10 PRL d          12.291  22.434  46.518  0.00  0.00     0.156 HD
ATOM     24  H11 PRL d          11.517  24.042  46.509  0.00  0.00     0.156 HD
ENDROOT
BRANCH   3  25
ATOM     25  N15 PRL d           9.136  16.487  53.358  0.00  0.00    -0.399 N 
ATOM     26  H8  PRL d           8.478  15.702  53.256  0.00  0.00     0.156 HD
ATOM     27  H9  PRL d           9.993  16.371  53.919  0.00  0.00     0.156 HD
ENDBRANCH   3  25
TORSDOF 1
ENDMDL
MODEL 3
REMARK VINA RESULT:      -6.9      1.521      2.489
REMARK  1 active torsions:
REMARK  status: ('A' for Active; 'I' for Inactive)
REMARK    1  A    between atoms: C3_3  and  N15_15 
ROOT
ATOM      1  C1  PRL d          11.231  21.662  47.677  0.00  0.00    -0.069 A 
ATOM      2  C2  PRL d          11.156  22.826  47.033  0.00  0.00    -0.057 A 
ATOM      3  C3  PRL d          10.219  23.857  47.421  0.00  0.00     0.028 A 
ATOM      4  C4  PRL d           9.376  23.599  48.485  0.00  0.00    -0.029 A 
ATOM      5  C5  PRL d           7.858  20.887  52.134  0.00  0.00    -0.029 A 
ATOM      6  C6  PRL d           7.902  19.749  52.919  0.00  0.00     0.028 A 
ATOM      7  C7  PRL d           8.841  18.707  52.556  0.00  0.00    -0.057 A 
ATOM      8  C8  PRL d           9.647  18.823  51.499  0.00  0.00    -0.069 A 
ATOM      9  C9  PRL d          10.439  20.206  49.557  0.00  0.00    -0.059 A 
ATOM     10  N10 PRL d           8.648  22.166  50.267  0.00  0.00    -0.247 NA
ATOM     11  C11 PRL d           9.443  22.403  49.168  0.00  0.00     0.070 A 
ATOM     12  C12 PRL d           9.625  20.003  50.660  0.00  0.00    -0.006 A 
ATOM     13  C13 PRL d          10.380  21.367  48.805  0.00  0.00    -0.006 A 
ATOM     14  C14 PRL d           8.682  21.026  51.039  0.00  0.00     0.070 A 
ATOM     15  N16 PRL d           7.111  19.610  54.008  0.00  0.00    -0.399 N 
ATOM     16  H1  PRL d          11.947  20.920  47.347  0.00  0.00     0.085 H 
ATOM     17  H2  PRL d          11.818  23.006  46.194  0.00  0.00     0.086 H 
ATOM     18  H3  PRL d           8.652  24.347  48.788  0.00  0.00     0.090 H 
ATOM     19  H4  PRL d           7.164  21.682  52.385  0.00  0.00     0.090 H 
ATOM     20  H5  PRL d           8.890  17.808  53.160  0.00  0.00     0.086 H 
ATOM     21  H6  PRL d          10.332  18.017  51.264  0.00  0.00     0.085 H 
ATOM     22  H7  PRL d          11.143  19.432  49.275  0.00  0.00     0.086 H 
ATOM     23  H10 PRL d           6.445  20.355  54.259  0.00  0.00     0.156 HD
ATOM     24  H11 PRL d           7.174  18.759  54.585  0.00  0.00     0.156 HD
ENDROOT
BRANCH   3  25
ATOM     25  N15 PRL d          10.238  25.060  46.804  0.00  0.00    -0.399 N 
ATOM     26  H8  PRL d          11.108  25.404  46.372  0.00  0.00     0.156 HD
ATOM     27  H9  PRL d           9.383  25.633  46.764  0.00  0.00     0.156 HD
ENDBRANCH   3  25
TORSDOF 1
ENDMDL
MODEL 4
REMARK VINA RESULT:      -5.5      1.679      2.710
REMARK  1 active torsions:
REMARK  status: ('A' for Active; 'I' for Inactive)
REMARK    1  A    between atoms: C3_3  and  N15_15 
ROOT
ATOM      1  C1  PRL d          10.415  21.498  49.242  0.00  0.00    -0.069 A 
ATOM      2  C2  PRL d           9.824  22.687  49.128  0.00  0.00    -0.057 A 
ATOM      3  C3  PRL d           8.625  23.021  49.865  0.00  0.00     0.028 A 
ATOM      4  C4  PRL d           8.087  22.056  50.696  0.00  0.00    -0.029 A 
ATOM      5  C5  PRL d           8.186  17.777  52.852  0.00  0.00    -0.029 A 
ATOM      6  C6  PRL d           8.757  16.542  53.104  0.00  0.00     0.028 A 
ATOM      7  C7  PRL d           9.964  16.191  52.386  0.00  0.00    -0.057 A 
ATOM      8  C8  PRL d          10.524  17.020  51.502  0.00  0.00    -0.069 A 
ATOM      9  C9  PRL d          10.479  19.240  50.329  0.00  0.00    -0.059 A 
ATOM     10  N10 PRL d           8.188  19.882  51.705  0.00  0.00    -0.247 NA
ATOM     11  C11 PRL d           8.687  20.823  50.831  0.00  0.00     0.070 A 
ATOM     12  C12 PRL d           9.951  18.319  51.219  0.00  0.00    -0.006 A 
ATOM     13  C13 PRL d           9.890  20.476  50.115  0.00  0.00    -0.006 A 
ATOM     14  C14 PRL d           8.749  18.647  51.944  0.00  0.00     0.070 A 
ATOM     15  N16 PRL d           8.223  15.688  54.008  0.00  0.00    -0.399 N 
ATOM     16  H1  PRL d          11.310  21.295  48.667  0.00  0.00     0.085 H 
ATOM     17  H2  PRL d          10.255  23.427  48.463  0.00  0.00     0.086 H 
ATOM     18  H3  PRL d           7.179  22.273  51.248  0.00  0.00     0.090 H 
ATOM     19  H4  PRL d           7.281  18.065  53.377  0.00  0.00     0.090 H 
ATOM     20  H5  PRL d          10.426  15.228  52.570  0.00  0.00     0.086 H 
ATOM     21  H6  PRL d          11.426  16.713  50.986  0.00  0.00     0.085 H 
ATOM     22  H7  PRL d          11.381  18.987  49.784  0.00  0.00     0.086 H 
ATOM     23  H10 PRL d           7.364  15.946  54.515  0.00  0.00     0.156 HD
ATOM     24  H11 PRL d           8.676  14.781  54.189  0.00  0.00     0.156 HD
ENDROOT
BRANCH   3  25
ATOM     25  N15 PRL d           8.110  24.269  49.795  0.00  0.00    -0.399 N 
ATOM     26  H8  PRL d           8.229  24.828  48.937  0.00  0.00     0.156 HD
ATOM     27  H9  PRL d           7.599  24.662  50.598  0.00  0.00     0.156 HD
ENDBRANCH   3  25
TORSDOF 1
ENDMDL
MODEL 5
REMARK VINA RESULT:      -4.6      1.826      2.736
REMARK  1 active torsions:
REMARK  status: ('A' for Active; 'I' for Inactive)
REMARK    1  A    between atoms: C3_3  and  N15_15 
ROOT
ATOM      1  C1  PRL d          10.101  21.093  49.131  0.00  0.00    -0.069 A 
ATOM      2  C2  PRL d          10.089  22.413  49.309  0.00  0.00    -0.057 A 
ATOM      3  C3  PRL d           9.439  23.028  50.445  0.00  0.00     0.028 A 
ATOM      4  C4  PRL d           8.806  22.201  51.354  0.00  0.00    -0.029 A 
ATOM      5  C5  PRL d           7.652  17.877  53.069  0.00  0.00    -0.029 A 
ATOM      6  C6  PRL d           7.669  16.494  53.024  0.00  0.00     0.028 A 
ATOM      7  C7  PRL d           8.323  15.857  51.901  0.00  0.00    -0.057 A 
ATOM      8  C8  PRL d           8.899  16.565  50.927  0.00  0.00    -0.069 A 
ATOM      9  C9  PRL d           9.487  18.817  49.984  0.00  0.00    -0.059 A 
ATOM     10  N10 PRL d           8.237  20.001  52.126  0.00  0.00    -0.247 NA
ATOM     11  C11 PRL d           8.813  20.832  51.190  0.00  0.00     0.070 A 
ATOM     12  C12 PRL d           8.900  18.012  50.947  0.00  0.00    -0.006 A 
ATOM     13  C13 PRL d           9.467  20.200  50.071  0.00  0.00    -0.006 A 
ATOM     14  C14 PRL d           8.241  18.626  52.074  0.00  0.00     0.070 A 
ATOM     15  N16 PRL d           7.110  15.749  54.006  0.00  0.00    -0.399 N 
ATOM     16  H1  PRL d          10.599  20.680  48.262  0.00  0.00     0.085 H 
ATOM     17  H2  PRL d          10.581  23.046  48.579  0.00  0.00     0.086 H 
ATOM     18  H3  PRL d           8.297  22.635  52.207  0.00  0.00     0.090 H 
ATOM     19  H4  PRL d           7.168  18.379  53.899  0.00  0.00     0.090 H 
ATOM     20  H5  PRL d           8.347  14.774  51.849  0.00  0.00     0.086 H 
ATOM     21  H6  PRL d           9.375  16.045  50.104  0.00  0.00     0.085 H 
ATOM     22  H7  PRL d           9.977  18.351  49.137  0.00  0.00     0.086 H 
ATOM     23  H10 PRL d           6.646  16.210  54.802  0.00  0.00     0.156 HD
ATOM     24  H11 PRL d           7.149  14.720  53.957  0.00  0.00     0.156 HD
ENDROOT
BRANCH   3  25
ATOM     25  N15 PRL d           9.530  24.363  50.639  0.00  0.00    -0.399 N 
ATOM     26  H8  PRL d           9.543  24.744  51.596  0.00  0.00     0.156 HD
ATOM     27  H9  PRL d           9.586  24.999  49.831  0.00  0.00     0.156 HD
ENDBRANCH   3  25
TORSDOF 1
ENDMDL
