MODEL 1
REMARK VINA RESULT:      -7.7      0.000      0.000
REMARK  5 active torsions:
REMARK  status: ('A' for Active; 'I' for Inactive)
REMARK    1  A    between atoms: C22_2  and  C31_3 
REMARK       I    between atoms: C22_2  and  N21_12 
REMARK    2  A    between atoms: C34_6  and  C41_9 
REMARK    3  A    between atoms: C41_9  and  C42_10 
REMARK    4  A    between atoms: C41_9  and  N43_11 
REMARK    5  A    between atoms: N21_12  and  C14_13 
ROOT
ATOM      1  C31 Y27 d           8.493   9.028   4.060  0.00  0.00     0.024 C 
ATOM      2  C36 Y27 d           7.867  10.040   5.023  0.00  0.00    -0.053 C 
ATOM      3  C35 Y27 d           6.389   9.707   5.247  0.00  0.00    -0.059 C 
ATOM      4  C34 Y27 d           5.674   9.934   3.910  0.00  0.00    -0.027 C 
ATOM      5  C33 Y27 d           6.212   8.927   2.859  0.00  0.00    -0.059 C 
ATOM      6  C32 Y27 d           7.771   9.012   2.698  0.00  0.00    -0.053 C 
ATOM      7  H1  Y27 d           8.370   8.027   4.500  0.00  0.00     0.054 H 
ATOM      8  H2  Y27 d           7.952  11.050   4.596  0.00  0.00     0.034 H 
ATOM      9  H3  Y27 d           8.398  10.004   5.986  0.00  0.00     0.034 H 
ATOM     10  H4  Y27 d           5.965  10.366   6.019  0.00  0.00     0.033 H 
ATOM     11  H5  Y27 d           6.281   8.658   5.561  0.00  0.00     0.033 H 
ATOM     12  H6  Y27 d           5.933  10.940   3.550  0.00  0.00     0.043 H 
ATOM     13  H7  Y27 d           5.744   9.145   1.887  0.00  0.00     0.033 H 
ATOM     14  H8  Y27 d           5.944   7.908   3.175  0.00  0.00     0.033 H 
ATOM     15  H9  Y27 d           8.116   8.140   2.123  0.00  0.00     0.034 H 
ATOM     16  H10 Y27 d           8.022   9.934   2.153  0.00  0.00     0.034 H 
ENDROOT
BRANCH   1  17
ATOM     17  C22 Y27 d           9.974   9.291   3.947  0.00  0.00     0.226 C 
ATOM     18  O23 Y27 d          10.505  10.345   4.305  0.00  0.00    -0.273 OA
ATOM     19  N21 Y27 d          10.708   8.195   3.412  0.00  0.00    -0.327 N 
ATOM     20  H18 Y27 d          10.180   7.500   2.923  0.00  0.00     0.169 HD
BRANCH  19  21
ATOM     21  C14 Y27 d          12.132   7.980   3.498  0.00  0.00     0.037 A 
ATOM     22  C15 Y27 d          12.871   8.336   2.357  0.00  0.00    -0.040 A 
ATOM     23  C16 Y27 d          14.249   8.114   2.425  0.00  0.00     0.004 A 
ATOM     24  H19 Y27 d          12.400   8.756   1.477  0.00  0.00     0.089 H 
ATOM     25  N11 Y27 d          14.843   7.604   3.524  0.00  0.00    -0.273 NA
ATOM     26  H20 Y27 d          14.861   8.361   1.565  0.00  0.00     0.114 H 
ATOM     27  C12 Y27 d          14.149   7.260   4.620  0.00  0.00     0.004 A 
ATOM     28  C13 Y27 d          12.772   7.432   4.647  0.00  0.00    -0.040 A 
ATOM     29  H21 Y27 d          14.662   6.849   5.482  0.00  0.00     0.114 H 
ATOM     30  H22 Y27 d          12.196   7.154   5.522  0.00  0.00     0.089 H 
ENDBRANCH  19  21
ENDBRANCH   1  17
BRANCH   4  31
ATOM     31  C41 Y27 d           4.132   9.918   4.142  0.00  0.00     0.100 C 
ATOM     32  H11 Y27 d           3.757  10.945   4.022  0.00  0.00     0.083 H 
BRANCH  31  33
ATOM     33  C42 Y27 d           3.437   9.016   3.106  0.00  0.00    -0.049 C 
ATOM     34  H12 Y27 d           3.755   7.973   3.255  0.00  0.00     0.030 H 
ATOM     35  H13 Y27 d           3.713   9.341   2.092  0.00  0.00     0.030 H 
ATOM     36  H14 Y27 d           2.346   9.088   3.230  0.00  0.00     0.030 H 
ENDBRANCH  31  33
BRANCH  31  37
ATOM     37  N43 Y27 d           3.784   9.440   5.527  0.00  0.00    -0.075 N 
ATOM     38  H15 Y27 d           4.109   8.493   5.647  0.00  0.00     0.274 HD
ATOM     39  H16 Y27 d           2.784   9.471   5.652  0.00  0.00     0.274 HD
ATOM     40  H17 Y27 d           4.226  10.036   6.210  0.00  0.00     0.274 HD
ENDBRANCH  31  37
ENDBRANCH   4  31
TORSDOF 5
ENDMDL
MODEL 2
REMARK VINA RESULT:      -7.7      1.374      1.717
REMARK  5 active torsions:
REMARK  status: ('A' for Active; 'I' for Inactive)
REMARK    1  A    between atoms: C22_2  and  C31_3 
REMARK       I    between atoms: C22_2  and  N21_12 
REMARK    2  A    between atoms: C34_6  and  C41_9 
REMARK    3  A    between atoms: C41_9  and  C42_10 
REMARK    4  A    between atoms: C41_9  and  N43_11 
REMARK    5  A    between atoms: N21_12  and  C14_13 
ROOT
ATOM      1  C31 Y27 d           8.493   9.330   3.816  0.00  0.00     0.024 C 
ATOM      2  C36 Y27 d           7.817  10.224   4.860  0.00  0.00    -0.053 C 
ATOM      3  C35 Y27 d           6.379   9.754   5.101  0.00  0.00    -0.059 C 
ATOM      4  C34 Y27 d           5.605  10.003   3.801  0.00  0.00    -0.027 C 
ATOM      5  C33 Y27 d           6.190   9.113   2.672  0.00  0.00    -0.059 C 
ATOM      6  C32 Y27 d           7.731   9.339   2.476  0.00  0.00    -0.053 C 
ATOM      7  H1  Y27 d           8.466   8.298   4.193  0.00  0.00     0.054 H 
ATOM      8  H2  Y27 d           7.804  11.262   4.496  0.00  0.00     0.034 H 
ATOM      9  H3  Y27 d           8.380  10.173   5.803  0.00  0.00     0.034 H 
ATOM     10  H4  Y27 d           5.928  10.326   5.925  0.00  0.00     0.033 H 
ATOM     11  H5  Y27 d           6.368   8.683   5.348  0.00  0.00     0.033 H 
ATOM     12  H6  Y27 d           5.768  11.048   3.500  0.00  0.00     0.043 H 
ATOM     13  H7  Y27 d           5.675   9.352   1.730  0.00  0.00     0.033 H 
ATOM     14  H8  Y27 d           6.017   8.057   2.929  0.00  0.00     0.033 H 
ATOM     15  H9  Y27 d           8.128   8.537   1.836  0.00  0.00     0.034 H 
ATOM     16  H10 Y27 d           7.888  10.311   1.986  0.00  0.00     0.034 H 
ENDROOT
BRANCH   1  17
ATOM     17  C22 Y27 d           9.942   9.724   3.681  0.00  0.00     0.226 C 
ATOM     18  O23 Y27 d          10.642  10.075   4.634  0.00  0.00    -0.273 OA
ATOM     19  N21 Y27 d          10.437   9.624   2.350  0.00  0.00    -0.327 N 
ATOM     20  H18 Y27 d           9.754   9.581   1.621  0.00  0.00     0.169 HD
BRANCH  19  21
ATOM     21  C14 Y27 d          11.820   9.579   1.940  0.00  0.00     0.037 A 
ATOM     22  C15 Y27 d          12.285  10.707   1.244  0.00  0.00    -0.040 A 
ATOM     23  C16 Y27 d          13.617  10.665   0.826  0.00  0.00     0.004 A 
ATOM     24  H19 Y27 d          11.646  11.560   1.041  0.00  0.00     0.089 H 
ATOM     25  N11 Y27 d          14.420   9.613   1.088  0.00  0.00    -0.273 NA
ATOM     26  H20 Y27 d          14.020  11.507   0.274  0.00  0.00     0.114 H 
ATOM     27  C12 Y27 d          13.989   8.528   1.751  0.00  0.00     0.004 A 
ATOM     28  C13 Y27 d          12.677   8.470   2.198  0.00  0.00    -0.040 A 
ATOM     29  H21 Y27 d          14.664   7.701   1.937  0.00  0.00     0.114 H 
ATOM     30  H22 Y27 d          12.312   7.600   2.731  0.00  0.00     0.089 H 
ENDBRANCH  19  21
ENDBRANCH   1  17
BRANCH   4  31
ATOM     31  C41 Y27 d           4.078   9.844   4.072  0.00  0.00     0.100 C 
ATOM     32  H11 Y27 d           3.601  10.826   3.936  0.00  0.00     0.083 H 
BRANCH  31  33
ATOM     33  C42 Y27 d           3.452   8.849   3.078  0.00  0.00    -0.049 C 
ATOM     34  H12 Y27 d           2.360   8.832   3.214  0.00  0.00     0.030 H 
ATOM     35  H13 Y27 d           3.859   7.844   3.259  0.00  0.00     0.030 H 
ATOM     36  H14 Y27 d           3.687   9.161   2.049  0.00  0.00     0.030 H 
ENDBRANCH  31  33
BRANCH  31  37
ATOM     37  N43 Y27 d           3.810   9.374   5.478  0.00  0.00    -0.075 N 
ATOM     38  H15 Y27 d           2.816   9.376   5.649  0.00  0.00     0.274 HD
ATOM     39  H16 Y27 d           4.265   9.991   6.131  0.00  0.00     0.274 HD
ATOM     40  H17 Y27 d           4.169   8.439   5.594  0.00  0.00     0.274 HD
ENDBRANCH  31  37
ENDBRANCH   4  31
TORSDOF 5
ENDMDL
MODEL 3
REMARK VINA RESULT:      -7.6      1.099      1.791
REMARK  5 active torsions:
REMARK  status: ('A' for Active; 'I' for Inactive)
REMARK    1  A    between atoms: C22_2  and  C31_3 
REMARK       I    between atoms: C22_2  and  N21_12 
REMARK    2  A    between atoms: C34_6  and  C41_9 
REMARK    3  A    between atoms: C41_9  and  C42_10 
REMARK    4  A    between atoms: C41_9  and  N43_11 
REMARK    5  A    between atoms: N21_12  and  C14_13 
ROOT
ATOM      1  C31 Y27 d           8.677   9.861   3.486  0.00  0.00     0.024 C 
ATOM      2  C36 Y27 d           7.727   9.376   2.387  0.00  0.00    -0.053 C 
ATOM      3  C35 Y27 d           6.326   9.953   2.613  0.00  0.00    -0.059 C 
ATOM      4  C34 Y27 d           5.791   9.328   3.908  0.00  0.00    -0.027 C 
ATOM      5  C33 Y27 d           6.669   9.784   5.103  0.00  0.00    -0.059 C 
ATOM      6  C32 Y27 d           8.187   9.450   4.888  0.00  0.00    -0.053 C 
ATOM      7  H1  Y27 d           8.687  10.960   3.458  0.00  0.00     0.054 H 
ATOM      8  H2  Y27 d           7.676   8.278   2.408  0.00  0.00     0.034 H 
ATOM      9  H3  Y27 d           8.103   9.707   1.408  0.00  0.00     0.034 H 
ATOM     10  H4  Y27 d           5.670   9.694   1.770  0.00  0.00     0.033 H 
ATOM     11  H5  Y27 d           6.379  11.046   2.715  0.00  0.00     0.033 H 
ATOM     12  H6  Y27 d           5.899   8.236   3.831  0.00  0.00     0.043 H 
ATOM     13  H7  Y27 d           6.320   9.275   6.014  0.00  0.00     0.033 H 
ATOM     14  H8  Y27 d           6.560  10.873   5.226  0.00  0.00     0.033 H 
ATOM     15  H9  Y27 d           8.779   9.988   5.643  0.00  0.00     0.034 H 
ATOM     16  H10 Y27 d           8.332   8.366   5.011  0.00  0.00     0.034 H 
ENDROOT
BRANCH   1  17
ATOM     17  C22 Y27 d          10.078   9.390   3.182  0.00  0.00     0.226 C 
ATOM     18  O23 Y27 d          10.665   9.643   2.127  0.00  0.00    -0.273 OA
ATOM     19  N21 Y27 d          10.671   8.648   4.242  0.00  0.00    -0.327 N 
ATOM     20  H18 Y27 d          10.049   8.282   4.934  0.00  0.00     0.169 HD
BRANCH  19  21
ATOM     21  C14 Y27 d          12.074   8.368   4.425  0.00  0.00     0.037 A 
ATOM     22  C15 Y27 d          12.754   9.216   5.314  0.00  0.00    -0.040 A 
ATOM     23  C16 Y27 d          14.117   8.964   5.484  0.00  0.00     0.004 A 
ATOM     24  H19 Y27 d          12.249  10.021   5.838  0.00  0.00     0.089 H 
ATOM     25  N11 Y27 d          14.747   7.955   4.846  0.00  0.00    -0.273 NA
ATOM     26  H20 Y27 d          14.688   9.600   6.151  0.00  0.00     0.114 H 
ATOM     27  C12 Y27 d          14.111   7.137   3.993  0.00  0.00     0.004 A 
ATOM     28  C13 Y27 d          12.756   7.314   3.749  0.00  0.00    -0.040 A 
ATOM     29  H21 Y27 d          14.653   6.341   3.496  0.00  0.00     0.114 H 
ATOM     30  H22 Y27 d          12.228   6.665   3.060  0.00  0.00     0.089 H 
ENDBRANCH  19  21
ENDBRANCH   1  17
BRANCH   4  31
ATOM     31  C41 Y27 d           4.265   9.623   4.030  0.00  0.00     0.100 C 
ATOM     32  H11 Y27 d           4.106  10.695   3.839  0.00  0.00     0.083 H 
BRANCH  31  33
ATOM     33  C42 Y27 d           3.471   8.814   2.988  0.00  0.00    -0.049 C 
ATOM     34  H12 Y27 d           4.077   8.695   2.077  0.00  0.00     0.030 H 
ATOM     35  H13 Y27 d           2.540   9.346   2.742  0.00  0.00     0.030 H 
ATOM     36  H14 Y27 d           3.229   7.823   3.400  0.00  0.00     0.030 H 
ENDBRANCH  31  33
BRANCH  31  37
ATOM     37  N43 Y27 d           3.746   9.301   5.407  0.00  0.00    -0.075 N 
ATOM     38  H15 Y27 d           2.786   8.999   5.342  0.00  0.00     0.274 HD
ATOM     39  H16 Y27 d           3.801  10.123   5.987  0.00  0.00     0.274 HD
ATOM     40  H17 Y27 d           4.303   8.565   5.813  0.00  0.00     0.274 HD
ENDBRANCH  31  37
ENDBRANCH   4  31
TORSDOF 5
ENDMDL
MODEL 4
REMARK VINA RESULT:      -7.4      2.308      7.456
REMARK  5 active torsions:
REMARK  status: ('A' for Active; 'I' for Inactive)
REMARK    1  A    between atoms: C22_2  and  C31_3 
REMARK       I    between atoms: C22_2  and  N21_12 
REMARK    2  A    between atoms: C34_6  and  C41_9 
REMARK    3  A    between atoms: C41_9  and  C42_10 
REMARK    4  A    between atoms: C41_9  and  N43_11 
REMARK    5  A    between atoms: N21_12  and  C14_13 
ROOT
ATOM      1  C31 Y27 d           9.879   8.909   3.801  0.00  0.00     0.024 C 
ATOM      2  C36 Y27 d          10.159   8.388   2.388  0.00  0.00    -0.053 C 
ATOM      3  C35 Y27 d          11.621   8.651   2.012  0.00  0.00    -0.059 C 
ATOM      4  C34 Y27 d          11.790  10.172   1.917  0.00  0.00    -0.027 C 
ATOM      5  C33 Y27 d          11.559  10.806   3.315  0.00  0.00    -0.059 C 
ATOM      6  C32 Y27 d          10.164  10.419   3.920  0.00  0.00    -0.053 C 
ATOM      7  H1  Y27 d          10.568   8.397   4.488  0.00  0.00     0.054 H 
ATOM      8  H2  Y27 d           9.501   8.903   1.673  0.00  0.00     0.034 H 
ATOM      9  H3  Y27 d           9.963   7.306   2.353  0.00  0.00     0.034 H 
ATOM     10  H4  Y27 d          11.852   8.183   1.044  0.00  0.00     0.033 H 
ATOM     11  H5  Y27 d          12.289   8.244   2.785  0.00  0.00     0.033 H 
ATOM     12  H6  Y27 d          11.003  10.563   1.256  0.00  0.00     0.043 H 
ATOM     13  H7  Y27 d          11.613  11.900   3.221  0.00  0.00     0.033 H 
ATOM     14  H8  Y27 d          12.349  10.456   3.997  0.00  0.00     0.033 H 
ATOM     15  H9  Y27 d          10.147  10.701   4.983  0.00  0.00     0.034 H 
ATOM     16  H10 Y27 d           9.378  10.971   3.382  0.00  0.00     0.034 H 
ENDROOT
BRANCH   1  17
ATOM     17  C22 Y27 d           8.475   8.533   4.206  0.00  0.00     0.226 C 
ATOM     18  O23 Y27 d           8.222   7.722   5.101  0.00  0.00    -0.273 OA
ATOM     19  N21 Y27 d           7.468   9.224   3.476  0.00  0.00    -0.327 N 
ATOM     20  H18 Y27 d           7.753   9.657   2.621  0.00  0.00     0.169 HD
BRANCH  19  21
ATOM     21  C14 Y27 d           6.079   9.368   3.839  0.00  0.00     0.037 A 
ATOM     22  C15 Y27 d           5.151   8.959   2.867  0.00  0.00    -0.040 A 
ATOM     23  C16 Y27 d           3.803   9.112   3.202  0.00  0.00     0.004 A 
ATOM     24  H19 Y27 d           5.462   8.550   1.913  0.00  0.00     0.089 H 
ATOM     25  N11 Y27 d           3.410   9.607   4.394  0.00  0.00    -0.273 NA
ATOM     26  H20 Y27 d           3.048   8.822   2.480  0.00  0.00     0.114 H 
ATOM     27  C12 Y27 d           4.285  10.002   5.332  0.00  0.00     0.004 A 
ATOM     28  C13 Y27 d           5.647   9.900   5.089  0.00  0.00    -0.040 A 
ATOM     29  H21 Y27 d           3.929  10.399   6.275  0.00  0.00     0.114 H 
ATOM     30  H22 Y27 d           6.368  10.219   5.833  0.00  0.00     0.089 H 
ENDBRANCH  19  21
ENDBRANCH   1  17
BRANCH   4  31
ATOM     31  C41 Y27 d          13.155  10.497   1.238  0.00  0.00     0.100 C 
ATOM     32  H11 Y27 d          13.589  11.373   1.741  0.00  0.00     0.083 H 
BRANCH  31  33
ATOM     33  C42 Y27 d          14.128   9.312   1.382  0.00  0.00    -0.049 C 
ATOM     34  H12 Y27 d          13.566   8.408   1.664  0.00  0.00     0.030 H 
ATOM     35  H13 Y27 d          14.870   9.540   2.162  0.00  0.00     0.030 H 
ATOM     36  H14 Y27 d          14.642   9.141   0.425  0.00  0.00     0.030 H 
ENDBRANCH  31  33
BRANCH  31  37
ATOM     37  N43 Y27 d          12.984  10.821  -0.223  0.00  0.00    -0.075 N 
ATOM     38  H15 Y27 d          12.195  11.438  -0.340  0.00  0.00     0.274 HD
ATOM     39  H16 Y27 d          12.826   9.971  -0.740  0.00  0.00     0.274 HD
ATOM     40  H17 Y27 d          13.817  11.273  -0.567  0.00  0.00     0.274 HD
ENDBRANCH  31  37
ENDBRANCH   4  31
TORSDOF 5
ENDMDL
MODEL 5
REMARK VINA RESULT:      -7.4      1.730      7.671
REMARK  5 active torsions:
REMARK  status: ('A' for Active; 'I' for Inactive)
REMARK    1  A    between atoms: C22_2  and  C31_3 
REMARK       I    between atoms: C22_2  and  N21_12 
REMARK    2  A    between atoms: C34_6  and  C41_9 
REMARK    3  A    between atoms: C41_9  and  C42_10 
REMARK    4  A    between atoms: C41_9  and  N43_11 
REMARK    5  A    between atoms: N21_12  and  C14_13 
ROOT
ATOM      1  C31 Y27 d           9.697   9.319   2.813  0.00  0.00     0.024 C 
ATOM      2  C36 Y27 d          10.077   7.928   3.330  0.00  0.00    -0.053 C 
ATOM      3  C35 Y27 d          11.559   7.899   3.716  0.00  0.00    -0.059 C 
ATOM      4  C34 Y27 d          12.361   8.076   2.421  0.00  0.00    -0.027 C 
ATOM      5  C33 Y27 d          12.075   9.479   1.823  0.00  0.00    -0.059 C 
ATOM      6  C32 Y27 d          10.543   9.725   1.589  0.00  0.00    -0.053 C 
ATOM      7  H1  Y27 d           9.918  10.044   3.610  0.00  0.00     0.054 H 
ATOM      8  H2  Y27 d           9.891   7.184   2.542  0.00  0.00     0.034 H 
ATOM      9  H3  Y27 d           9.466   7.688   4.212  0.00  0.00     0.034 H 
ATOM     10  H4  Y27 d          11.808   6.937   4.187  0.00  0.00     0.033 H 
ATOM     11  H5  Y27 d          11.784   8.718   4.415  0.00  0.00     0.033 H 
ATOM     12  H6  Y27 d          11.998   7.338   1.691  0.00  0.00     0.043 H 
ATOM     13  H7  Y27 d          12.599   9.567   0.860  0.00  0.00     0.033 H 
ATOM     14  H8  Y27 d          12.453  10.244   2.519  0.00  0.00     0.033 H 
ATOM     15  H9  Y27 d          10.382  10.794   1.385  0.00  0.00     0.034 H 
ATOM     16  H10 Y27 d          10.217   9.132   0.721  0.00  0.00     0.034 H 
ENDROOT
BRANCH   1  17
ATOM     17  C22 Y27 d           8.212   9.371   2.555  0.00  0.00     0.226 C 
ATOM     18  O23 Y27 d           7.699   9.053   1.479  0.00  0.00    -0.273 OA
ATOM     19  N21 Y27 d           7.453   9.796   3.681  0.00  0.00    -0.327 N 
ATOM     20  H18 Y27 d           7.956  10.266   4.407  0.00  0.00     0.169 HD
BRANCH  19  21
ATOM     21  C14 Y27 d           6.036   9.621   3.889  0.00  0.00     0.037 A 
ATOM     22  C15 Y27 d           5.538  10.093   5.115  0.00  0.00    -0.040 A 
ATOM     23  C16 Y27 d           4.170   9.912   5.332  0.00  0.00     0.004 A 
ATOM     24  H19 Y27 d           6.178  10.568   5.849  0.00  0.00     0.089 H 
ATOM     25  N11 Y27 d           3.366   9.333   4.415  0.00  0.00    -0.273 NA
ATOM     26  H20 Y27 d           3.740  10.248   6.269  0.00  0.00     0.114 H 
ATOM     27  C12 Y27 d           3.829   8.878   3.240  0.00  0.00     0.004 A 
ATOM     28  C13 Y27 d           5.176   9.002   2.936  0.00  0.00    -0.040 A 
ATOM     29  H21 Y27 d           3.151   8.415   2.532  0.00  0.00     0.114 H 
ATOM     30  H22 Y27 d           5.567   8.635   1.994  0.00  0.00     0.089 H 
ENDBRANCH  19  21
ENDBRANCH   1  17
BRANCH   4  31
ATOM     31  C41 Y27 d          13.859   7.743   2.693  0.00  0.00     0.100 C 
ATOM     32  H11 Y27 d          14.437   8.676   2.625  0.00  0.00     0.083 H 
BRANCH  31  33
ATOM     33  C42 Y27 d          14.036   7.156   4.106  0.00  0.00    -0.049 C 
ATOM     34  H12 Y27 d          15.006   7.475   4.517  0.00  0.00     0.030 H 
ATOM     35  H13 Y27 d          14.004   6.058   4.054  0.00  0.00     0.030 H 
ATOM     36  H14 Y27 d          13.226   7.516   4.757  0.00  0.00     0.030 H 
ENDBRANCH  31  33
BRANCH  31  37
ATOM     37  N43 Y27 d          14.404   6.769   1.681  0.00  0.00    -0.075 N 
ATOM     38  H15 Y27 d          14.124   5.833   1.931  0.00  0.00     0.274 HD
ATOM     39  H16 Y27 d          15.410   6.826   1.668  0.00  0.00     0.274 HD
ATOM     40  H17 Y27 d          14.043   6.996   0.768  0.00  0.00     0.274 HD
ENDBRANCH  31  37
ENDBRANCH   4  31
TORSDOF 5
ENDMDL
MODEL 6
REMARK VINA RESULT:      -7.3      1.529      7.472
REMARK  5 active torsions:
REMARK  status: ('A' for Active; 'I' for Inactive)
REMARK    1  A    between atoms: C22_2  and  C31_3 
REMARK       I    between atoms: C22_2  and  N21_12 
REMARK    2  A    between atoms: C34_6  and  C41_9 
REMARK    3  A    between atoms: C41_9  and  C42_10 
REMARK    4  A    between atoms: C41_9  and  N43_11 
REMARK    5  A    between atoms: N21_12  and  C14_13 
ROOT
ATOM      1  C31 Y27 d           9.849   9.886   3.494  0.00  0.00     0.024 C 
ATOM      2  C36 Y27 d          10.932   9.657   4.553  0.00  0.00    -0.053 C 
ATOM      3  C35 Y27 d          12.313   9.620   3.891  0.00  0.00    -0.059 C 
ATOM      4  C34 Y27 d          12.349   8.368   3.006  0.00  0.00    -0.027 C 
ATOM      5  C33 Y27 d          11.304   8.509   1.868  0.00  0.00    -0.059 C 
ATOM      6  C32 Y27 d           9.860   8.783   2.418  0.00  0.00    -0.053 C 
ATOM      7  H1  Y27 d          10.076  10.834   2.984  0.00  0.00     0.054 H 
ATOM      8  H2  Y27 d          10.746   8.700   5.062  0.00  0.00     0.034 H 
ATOM      9  H3  Y27 d          10.903  10.475   5.287  0.00  0.00     0.034 H 
ATOM     10  H4  Y27 d          13.099   9.563   4.658  0.00  0.00     0.033 H 
ATOM     11  H5  Y27 d          12.463  10.520   3.278  0.00  0.00     0.033 H 
ATOM     12  H6  Y27 d          12.040   7.508   3.617  0.00  0.00     0.043 H 
ATOM     13  H7  Y27 d          11.289   7.577   1.283  0.00  0.00     0.033 H 
ATOM     14  H8  Y27 d          11.599   9.346   1.218  0.00  0.00     0.033 H 
ATOM     15  H9  Y27 d           9.215   9.095   1.582  0.00  0.00     0.034 H 
ATOM     16  H10 Y27 d           9.465   7.855   2.858  0.00  0.00     0.034 H 
ENDROOT
BRANCH   1  17
ATOM     17  C22 Y27 d           8.511  10.047   4.171  0.00  0.00     0.226 C 
ATOM     18  O23 Y27 d           8.287  10.895   5.038  0.00  0.00    -0.273 OA
ATOM     19  N21 Y27 d           7.520   9.144   3.693  0.00  0.00    -0.327 N 
ATOM     20  H18 Y27 d           7.848   8.345   3.189  0.00  0.00     0.169 HD
BRANCH  19  21
ATOM     21  C14 Y27 d           6.091   9.258   3.858  0.00  0.00     0.037 A 
ATOM     22  C15 Y27 d           5.321   8.933   2.729  0.00  0.00    -0.040 A 
ATOM     23  C16 Y27 d           3.937   9.057   2.873  0.00  0.00     0.004 A 
ATOM     24  H19 Y27 d           5.774   8.605   1.801  0.00  0.00     0.089 H 
ATOM     25  N11 Y27 d           3.367   9.451   4.031  0.00  0.00    -0.273 NA
ATOM     26  H20 Y27 d           3.300   8.830   2.026  0.00  0.00     0.114 H 
ATOM     27  C12 Y27 d           4.090   9.766   5.117  0.00  0.00     0.004 A 
ATOM     28  C13 Y27 d           5.474   9.684   5.070  0.00  0.00    -0.040 A 
ATOM     29  H21 Y27 d           3.595  10.083   6.027  0.00  0.00     0.114 H 
ATOM     30  H22 Y27 d           6.074   9.939   5.936  0.00  0.00     0.089 H 
ENDBRANCH  19  21
ENDBRANCH   1  17
BRANCH   4  31
ATOM     31  C41 Y27 d          13.817   8.098   2.554  0.00  0.00     0.100 C 
ATOM     32  H11 Y27 d          14.307   9.068   2.384  0.00  0.00     0.083 H 
BRANCH  31  33
ATOM     33  C42 Y27 d          14.590   7.340   3.649  0.00  0.00    -0.049 C 
ATOM     34  H12 Y27 d          15.657   7.607   3.597  0.00  0.00     0.030 H 
ATOM     35  H13 Y27 d          14.476   6.257   3.495  0.00  0.00     0.030 H 
ATOM     36  H14 Y27 d          14.191   7.614   4.637  0.00  0.00     0.030 H 
ENDBRANCH  31  33
BRANCH  31  37
ATOM     37  N43 Y27 d          13.867   7.306   1.274  0.00  0.00    -0.075 N 
ATOM     38  H15 Y27 d          12.933   7.027   1.015  0.00  0.00     0.274 HD
ATOM     39  H16 Y27 d          14.438   6.486   1.408  0.00  0.00     0.274 HD
ATOM     40  H17 Y27 d          14.263   7.875   0.542  0.00  0.00     0.274 HD
ENDBRANCH  31  37
ENDBRANCH   4  31
TORSDOF 5
ENDMDL
MODEL 7
REMARK VINA RESULT:      -7.0      1.723      2.510
REMARK  5 active torsions:
REMARK  status: ('A' for Active; 'I' for Inactive)
REMARK    1  A    between atoms: C22_2  and  C31_3 
REMARK       I    between atoms: C22_2  and  N21_12 
REMARK    2  A    between atoms: C34_6  and  C41_9 
REMARK    3  A    between atoms: C41_9  and  C42_10 
REMARK    4  A    between atoms: C41_9  and  N43_11 
REMARK    5  A    between atoms: N21_12  and  C14_13 
ROOT
ATOM      1  C31 Y27 d           9.950   8.165   2.437  0.00  0.00     0.024 C 
ATOM      2  C36 Y27 d           9.613   8.277   3.927  0.00  0.00    -0.053 C 
ATOM      3  C35 Y27 d           8.099   8.173   4.132  0.00  0.00    -0.059 C 
ATOM      4  C34 Y27 d           7.476   9.418   3.488  0.00  0.00    -0.027 C 
ATOM      5  C33 Y27 d           7.730   9.390   1.958  0.00  0.00    -0.059 C 
ATOM      6  C32 Y27 d           9.256   9.266   1.611  0.00  0.00    -0.053 C 
ATOM      7  H1  Y27 d           9.562   7.201   2.078  0.00  0.00     0.054 H 
ATOM      8  H2  Y27 d           9.967   9.246   4.309  0.00  0.00     0.034 H 
ATOM      9  H3  Y27 d          10.111   7.464   4.475  0.00  0.00     0.034 H 
ATOM     10  H4  Y27 d           7.863   8.145   5.206  0.00  0.00     0.033 H 
ATOM     11  H5  Y27 d           7.713   7.264   3.648  0.00  0.00     0.033 H 
ATOM     12  H6  Y27 d           7.995  10.303   3.882  0.00  0.00     0.043 H 
ATOM     13  H7  Y27 d           7.342  10.320   1.517  0.00  0.00     0.033 H 
ATOM     14  H8  Y27 d           7.198   8.529   1.526  0.00  0.00     0.033 H 
ATOM     15  H9  Y27 d           9.358   9.025   0.542  0.00  0.00     0.034 H 
ATOM     16  H10 Y27 d           9.746  10.228   1.818  0.00  0.00     0.034 H 
ENDROOT
BRANCH   1  17
ATOM     17  C22 Y27 d          11.448   8.143   2.261  0.00  0.00     0.226 C 
ATOM     18  O23 Y27 d          12.065   8.978   1.594  0.00  0.00    -0.273 OA
ATOM     19  N21 Y27 d          12.088   7.083   2.962  0.00  0.00    -0.327 N 
ATOM     20  H18 Y27 d          11.505   6.326   3.257  0.00  0.00     0.169 HD
BRANCH  19  21
ATOM     21  C14 Y27 d          13.489   6.982   3.292  0.00  0.00     0.037 A 
ATOM     22  C15 Y27 d          13.806   7.139   4.652  0.00  0.00    -0.040 A 
ATOM     23  C16 Y27 d          15.162   7.061   4.979  0.00  0.00     0.004 A 
ATOM     24  H19 Y27 d          13.043   7.310   5.402  0.00  0.00     0.089 H 
ATOM     25  N11 Y27 d          16.114   6.834   4.050  0.00  0.00    -0.273 NA
ATOM     26  H20 Y27 d          15.458   7.188   6.014  0.00  0.00     0.114 H 
ATOM     27  C12 Y27 d          15.826   6.683   2.748  0.00  0.00     0.004 A 
ATOM     28  C13 Y27 d          14.507   6.755   2.322  0.00  0.00    -0.040 A 
ATOM     29  H21 Y27 d          16.620   6.507   2.032  0.00  0.00     0.114 H 
ATOM     30  H22 Y27 d          14.257   6.640   1.273  0.00  0.00     0.089 H 
ENDBRANCH  19  21
ENDBRANCH   1  17
BRANCH   4  31
ATOM     31  C41 Y27 d           5.985   9.534   3.930  0.00  0.00     0.100 C 
ATOM     32  H11 Y27 d           5.589   8.519   4.074  0.00  0.00     0.083 H 
BRANCH  31  33
ATOM     33  C42 Y27 d           5.872  10.302   5.260  0.00  0.00    -0.049 C 
ATOM     34  H12 Y27 d           5.613  11.352   5.057  0.00  0.00     0.030 H 
ATOM     35  H13 Y27 d           6.834  10.258   5.792  0.00  0.00     0.030 H 
ATOM     36  H14 Y27 d           5.088   9.844   5.882  0.00  0.00     0.030 H 
ENDBRANCH  31  33
BRANCH  31  37
ATOM     37  N43 Y27 d           5.150  10.229   2.886  0.00  0.00    -0.075 N 
ATOM     38  H15 Y27 d           4.176  10.012   3.035  0.00  0.00     0.274 HD
ATOM     39  H16 Y27 d           5.427   9.914   1.970  0.00  0.00     0.274 HD
ATOM     40  H17 Y27 d           5.286  11.226   2.954  0.00  0.00     0.274 HD
ENDBRANCH  31  37
ENDBRANCH   4  31
TORSDOF 5
ENDMDL
MODEL 8
REMARK VINA RESULT:      -6.2      1.487      7.671
REMARK  5 active torsions:
REMARK  status: ('A' for Active; 'I' for Inactive)
REMARK    1  A    between atoms: C22_2  and  C31_3 
REMARK       I    between atoms: C22_2  and  N21_12 
REMARK    2  A    between atoms: C34_6  and  C41_9 
REMARK    3  A    between atoms: C41_9  and  C42_10 
REMARK    4  A    between atoms: C41_9  and  N43_11 
REMARK    5  A    between atoms: N21_12  and  C14_13 
ROOT
ATOM      1  C31 Y27 d          10.472   8.661   2.913  0.00  0.00     0.024 C 
ATOM      2  C36 Y27 d          11.461   9.327   1.951  0.00  0.00    -0.053 C 
ATOM      3  C35 Y27 d          12.737   8.486   1.846  0.00  0.00    -0.059 C 
ATOM      4  C34 Y27 d          13.419   8.538   3.219  0.00  0.00    -0.027 C 
ATOM      5  C33 Y27 d          12.510   7.853   4.274  0.00  0.00    -0.059 C 
ATOM      6  C32 Y27 d          11.074   8.485   4.321  0.00  0.00    -0.053 C 
ATOM      7  H1  Y27 d          10.258   7.654   2.527  0.00  0.00     0.054 H 
ATOM      8  H2  Y27 d          11.715  10.329   2.327  0.00  0.00     0.034 H 
ATOM      9  H3  Y27 d          11.000   9.414   0.957  0.00  0.00     0.034 H 
ATOM     10  H4  Y27 d          13.403   8.904   1.077  0.00  0.00     0.033 H 
ATOM     11  H5  Y27 d          12.485   7.447   1.588  0.00  0.00     0.033 H 
ATOM     12  H6  Y27 d          13.512   9.592   3.515  0.00  0.00     0.043 H 
ATOM     13  H7  Y27 d          12.975   7.958   5.265  0.00  0.00     0.033 H 
ATOM     14  H8  Y27 d          12.418   6.785   4.022  0.00  0.00     0.033 H 
ATOM     15  H9  Y27 d          10.416   7.828   4.909  0.00  0.00     0.034 H 
ATOM     16  H10 Y27 d          11.136   9.471   4.806  0.00  0.00     0.034 H 
ENDROOT
BRANCH   1  17
ATOM     17  C22 Y27 d           9.174   9.430   2.911  0.00  0.00     0.226 C 
ATOM     18  O23 Y27 d           8.916  10.322   2.099  0.00  0.00    -0.273 OA
ATOM     19  N21 Y27 d           8.262   9.009   3.918  0.00  0.00    -0.327 N 
ATOM     20  H18 Y27 d           8.643   8.473   4.672  0.00  0.00     0.169 HD
BRANCH  19  21
ATOM     21  C14 Y27 d           6.844   9.273   3.970  0.00  0.00     0.037 A 
ATOM     22  C15 Y27 d           6.108   8.861   2.846  0.00  0.00    -0.040 A 
ATOM     23  C16 Y27 d           4.737   9.129   2.879  0.00  0.00     0.004 A 
ATOM     24  H19 Y27 d           6.576   8.366   2.003  0.00  0.00     0.089 H 
ATOM     25  N11 Y27 d           4.147   9.732   3.932  0.00  0.00    -0.273 NA
ATOM     26  H20 Y27 d           4.127   8.841   2.030  0.00  0.00     0.114 H 
ATOM     27  C12 Y27 d           4.838  10.131   5.012  0.00  0.00     0.004 A 
ATOM     28  C13 Y27 d           6.208   9.919   5.069  0.00  0.00    -0.040 A 
ATOM     29  H21 Y27 d           4.327  10.616   5.835  0.00  0.00     0.114 H 
ATOM     30  H22 Y27 d           6.782  10.239   5.931  0.00  0.00     0.089 H 
ENDBRANCH  19  21
ENDBRANCH   1  17
BRANCH   4  31
ATOM     31  C41 Y27 d          14.867   7.972   3.096  0.00  0.00     0.100 C 
ATOM     32  H11 Y27 d          15.228   7.732   4.107  0.00  0.00     0.083 H 
BRANCH  31  33
ATOM     33  C42 Y27 d          14.876   6.685   2.250  0.00  0.00    -0.049 C 
ATOM     34  H12 Y27 d          15.493   6.841   1.352  0.00  0.00     0.030 H 
ATOM     35  H13 Y27 d          13.848   6.436   1.950  0.00  0.00     0.030 H 
ATOM     36  H14 Y27 d          15.295   5.859   2.844  0.00  0.00     0.030 H 
ENDBRANCH  31  33
BRANCH  31  37
ATOM     37  N43 Y27 d          15.804   8.977   2.479  0.00  0.00    -0.075 N 
ATOM     38  H15 Y27 d          15.276   9.765   2.138  0.00  0.00     0.274 HD
ATOM     39  H16 Y27 d          16.300   8.548   1.713  0.00  0.00     0.274 HD
ATOM     40  H17 Y27 d          16.465   9.290   3.173  0.00  0.00     0.274 HD
ENDBRANCH  31  37
ENDBRANCH   4  31
TORSDOF 5
ENDMDL
MODEL 9
REMARK VINA RESULT:      -5.1      1.792      7.595
REMARK  5 active torsions:
REMARK  status: ('A' for Active; 'I' for Inactive)
REMARK    1  A    between atoms: C22_2  and  C31_3 
REMARK       I    between atoms: C22_2  and  N21_12 
REMARK    2  A    between atoms: C34_6  and  C41_9 
REMARK    3  A    between atoms: C41_9  and  C42_10 
REMARK    4  A    between atoms: C41_9  and  N43_11 
REMARK    5  A    between atoms: N21_12  and  C14_13 
ROOT
ATOM      1  C31 Y27 d          10.477   7.709   3.697  0.00  0.00     0.024 C 
ATOM      2  C36 Y27 d          10.802   7.848   2.206  0.00  0.00    -0.053 C 
ATOM      3  C35 Y27 d          12.257   7.443   1.946  0.00  0.00    -0.059 C 
ATOM      4  C34 Y27 d          13.140   8.483   2.646  0.00  0.00    -0.027 C 
ATOM      5  C33 Y27 d          12.915   8.406   4.179  0.00  0.00    -0.059 C 
ATOM      6  C32 Y27 d          11.404   8.581   4.567  0.00  0.00    -0.053 C 
ATOM      7  H1  Y27 d          10.660   6.663   3.982  0.00  0.00     0.054 H 
ATOM      8  H2  Y27 d          10.655   8.893   1.897  0.00  0.00     0.034 H 
ATOM      9  H3  Y27 d          10.133   7.196   1.625  0.00  0.00     0.034 H 
ATOM     10  H4  Y27 d          12.461   7.439   0.866  0.00  0.00     0.033 H 
ATOM     11  H5  Y27 d          12.450   6.442   2.360  0.00  0.00     0.033 H 
ATOM     12  H6  Y27 d          12.812   9.482   2.325  0.00  0.00     0.043 H 
ATOM     13  H7  Y27 d          13.499   9.202   4.664  0.00  0.00     0.033 H 
ATOM     14  H8  Y27 d          13.261   7.425   4.539  0.00  0.00     0.033 H 
ATOM     15  H9  Y27 d          11.273   8.295   5.621  0.00  0.00     0.034 H 
ATOM     16  H10 Y27 d          11.124   9.637   4.436  0.00  0.00     0.034 H 
ENDROOT
BRANCH   1  17
ATOM     17  C22 Y27 d           9.013   7.989   3.920  0.00  0.00     0.226 C 
ATOM     18  O23 Y27 d           8.441   7.795   4.996  0.00  0.00    -0.273 OA
ATOM     19  N21 Y27 d           8.355   8.528   2.779  0.00  0.00    -0.327 N 
ATOM     20  H18 Y27 d           8.820   8.415   1.900  0.00  0.00     0.169 HD
BRANCH  19  21
ATOM     21  C14 Y27 d           7.090   9.221   2.753  0.00  0.00     0.037 A 
ATOM     22  C15 Y27 d           6.634   9.701   3.992  0.00  0.00    -0.040 A 
ATOM     23  C16 Y27 d           5.401  10.358   3.980  0.00  0.00     0.004 A 
ATOM     24  H19 Y27 d           7.205   9.569   4.904  0.00  0.00     0.089 H 
ATOM     25  N11 Y27 d           4.692  10.537   2.845  0.00  0.00    -0.273 NA
ATOM     26  H20 Y27 d           5.000  10.736   4.914  0.00  0.00     0.114 H 
ATOM     27  C12 Y27 d           5.116  10.083   1.655  0.00  0.00     0.004 A 
ATOM     28  C13 Y27 d           6.324   9.408   1.566  0.00  0.00    -0.040 A 
ATOM     29  H21 Y27 d           4.515  10.244   0.767  0.00  0.00     0.114 H 
ATOM     30  H22 Y27 d           6.679   9.031   0.613  0.00  0.00     0.089 H 
ENDBRANCH  19  21
ENDBRANCH   1  17
BRANCH   4  31
ATOM     31  C41 Y27 d          14.614   8.314   2.164  0.00  0.00     0.100 C 
ATOM     32  H11 Y27 d          15.211   7.942   3.009  0.00  0.00     0.083 H 
BRANCH  31  33
ATOM     33  C42 Y27 d          14.695   7.292   1.015  0.00  0.00    -0.049 C 
ATOM     34  H12 Y27 d          15.747   7.024   0.836  0.00  0.00     0.030 H 
ATOM     35  H13 Y27 d          14.268   7.732   0.102  0.00  0.00     0.030 H 
ATOM     36  H14 Y27 d          14.128   6.389   1.287  0.00  0.00     0.030 H 
ENDBRANCH  31  33
BRANCH  31  37
ATOM     37  N43 Y27 d          15.200   9.623   1.704  0.00  0.00    -0.075 N 
ATOM     38  H15 Y27 d          14.733   9.923   0.861  0.00  0.00     0.274 HD
ATOM     39  H16 Y27 d          16.184   9.504   1.519  0.00  0.00     0.274 HD
ATOM     40  H17 Y27 d          15.076  10.319   2.422  0.00  0.00     0.274 HD
ENDBRANCH  31  37
ENDBRANCH   4  31
TORSDOF 5
ENDMDL
