MODEL 1
REMARK VINA RESULT:      -7.9      0.000      0.000
REMARK  3 active torsions:
REMARK  status: ('A' for Active; 'I' for Inactive)
REMARK    1  A    between atoms: C1'_19  and  C2_1 
REMARK    2  A    between atoms: C6_5  and  O5_12 
REMARK    3  A    between atoms: C8_7  and  O7_13 
ROOT
ATOM      1  C2  MOL d          21.451  -0.257  -5.905  0.00  0.00     0.090 A 
ATOM      2  C3  MOL d          21.833  -1.424  -6.558  0.00  0.00    -0.000 A 
ATOM      3  C4  MOL d          21.852  -1.463  -7.941  0.00  0.00     0.190 A 
ATOM      4  C5  MOL d          21.485  -0.326  -8.642  0.00  0.00     0.081 A 
ATOM      5  C6  MOL d          21.495  -0.338 -10.032  0.00  0.00     0.085 A 
ATOM      6  C7  MOL d          21.127   0.800 -10.740  0.00  0.00    -0.018 A 
ATOM      7  C8  MOL d          20.751   1.948 -10.054  0.00  0.00     0.071 A 
ATOM      8  C9  MOL d          20.742   1.956  -8.665  0.00  0.00    -0.017 A 
ATOM      9  C10 MOL d          21.108   0.821  -7.951  0.00  0.00     0.095 A 
ATOM     10  O1  MOL d          21.087   0.871  -6.586  0.00  0.00    -0.309 OA
ATOM     11  O4  MOL d          22.187  -2.486  -8.535  0.00  0.00    -0.287 OA
ATOM     12  H1  MOL d          22.117  -2.303  -5.982  0.00  0.00     0.094 H 
ATOM     13  H2  MOL d          21.133   0.791 -11.824  0.00  0.00     0.092 H 
ATOM     14  H3  MOL d          20.448   2.854  -8.134  0.00  0.00     0.092 H 
ENDROOT
BRANCH   1  15
ATOM     15  C1' MOL d          21.439  -0.237  -4.515  0.00  0.00    -0.002 A 
ATOM     16  C2' MOL d          22.284  -1.079  -3.801  0.00  0.00    -0.070 A 
ATOM     17  C3' MOL d          22.272  -1.058  -2.411  0.00  0.00    -0.082 A 
ATOM     18  H6  MOL d          22.952  -1.751  -4.328  0.00  0.00     0.084 H 
ATOM     19  C4' MOL d          21.414  -0.197  -1.735  0.00  0.00    -0.083 A 
ATOM     20  H7  MOL d          22.930  -1.714  -1.854  0.00  0.00     0.083 H 
ATOM     21  C5' MOL d          20.570   0.644  -2.451  0.00  0.00    -0.082 A 
ATOM     22  H8  MOL d          21.404  -0.182  -0.652  0.00  0.00     0.083 H 
ATOM     23  C6' MOL d          20.582   0.624  -3.841  0.00  0.00    -0.070 A 
ATOM     24  H9  MOL d          19.901   1.316  -1.925  0.00  0.00     0.083 H 
ATOM     25  H10 MOL d          19.923   1.279  -4.398  0.00  0.00     0.084 H 
ENDBRANCH   1  15
BRANCH   5  26
ATOM     26  O5  MOL d          21.863  -1.464 -10.700  0.00  0.00    -0.360 OA
ATOM     27  H4  MOL d          21.853  -1.295 -11.634  0.00  0.00     0.217 HD
ENDBRANCH   5  26
BRANCH   7  28
ATOM     28  O7  MOL d          20.390   3.064 -10.744  0.00  0.00    -0.361 OA
ATOM     29  H5  MOL d          20.834   3.820 -10.375  0.00  0.00     0.217 HD
ENDBRANCH   7  28
TORSDOF 3
ENDMDL
MODEL 2
REMARK VINA RESULT:      -7.8      1.128      2.729
REMARK  3 active torsions:
REMARK  status: ('A' for Active; 'I' for Inactive)
REMARK    1  A    between atoms: C1'_19  and  C2_1 
REMARK    2  A    between atoms: C6_5  and  O5_12 
REMARK    3  A    between atoms: C8_7  and  O7_13 
ROOT
ATOM      1  C2  MOL d          21.066   0.288  -5.869  0.00  0.00     0.090 A 
ATOM      2  C3  MOL d          20.671   1.464  -6.497  0.00  0.00    -0.000 A 
ATOM      3  C4  MOL d          20.645   1.529  -7.879  0.00  0.00     0.190 A 
ATOM      4  C5  MOL d          21.016   0.409  -8.604  0.00  0.00     0.081 A 
ATOM      5  C6  MOL d          20.998   0.448  -9.994  0.00  0.00     0.085 A 
ATOM      6  C7  MOL d          21.371  -0.673 -10.726  0.00  0.00    -0.018 A 
ATOM      7  C8  MOL d          21.759  -1.832 -10.064  0.00  0.00     0.071 A 
ATOM      8  C9  MOL d          21.776  -1.867  -8.675  0.00  0.00    -0.017 A 
ATOM      9  C10 MOL d          21.405  -0.748  -7.937  0.00  0.00     0.095 A 
ATOM     10  O1  MOL d          21.435  -0.824  -6.573  0.00  0.00    -0.309 OA
ATOM     11  O4  MOL d          20.298   2.561  -8.452  0.00  0.00    -0.287 OA
ATOM     12  H1  MOL d          20.384   2.330  -5.904  0.00  0.00     0.094 H 
ATOM     13  H2  MOL d          21.358  -0.644 -11.809  0.00  0.00     0.092 H 
ATOM     14  H3  MOL d          22.080  -2.772  -8.163  0.00  0.00     0.092 H 
ENDROOT
BRANCH   1  15
ATOM     15  C1' MOL d          21.086   0.242  -4.480  0.00  0.00    -0.002 A 
ATOM     16  C2' MOL d          21.909  -0.669  -3.828  0.00  0.00    -0.070 A 
ATOM     17  C3' MOL d          21.929  -0.716  -2.439  0.00  0.00    -0.082 A 
ATOM     18  H6  MOL d          22.535  -1.343  -4.403  0.00  0.00     0.084 H 
ATOM     19  C4' MOL d          21.126   0.147  -1.702  0.00  0.00    -0.083 A 
ATOM     20  H7  MOL d          22.571  -1.426  -1.930  0.00  0.00     0.083 H 
ATOM     21  C5' MOL d          20.303   1.058  -2.355  0.00  0.00    -0.082 A 
ATOM     22  H8  MOL d          21.141   0.110  -0.619  0.00  0.00     0.083 H 
ATOM     23  C6' MOL d          20.283   1.104  -3.744  0.00  0.00    -0.070 A 
ATOM     24  H9  MOL d          19.677   1.731  -1.781  0.00  0.00     0.083 H 
ATOM     25  H10 MOL d          19.641   1.814  -4.253  0.00  0.00     0.084 H 
ENDBRANCH   1  15
BRANCH   5  26
ATOM     26  O5  MOL d          20.618   1.584 -10.637  0.00  0.00    -0.360 OA
ATOM     27  H4  MOL d          21.171   1.715 -11.398  0.00  0.00     0.217 HD
ENDBRANCH   5  26
BRANCH   7  28
ATOM     28  O7  MOL d          22.124  -2.932 -10.777  0.00  0.00    -0.361 OA
ATOM     29  H5  MOL d          21.640  -3.687 -10.462  0.00  0.00     0.217 HD
ENDBRANCH   7  28
TORSDOF 3
ENDMDL
MODEL 3
REMARK VINA RESULT:      -7.7      2.492      6.877
REMARK  3 active torsions:
REMARK  status: ('A' for Active; 'I' for Inactive)
REMARK    1  A    between atoms: C1'_19  and  C2_1 
REMARK    2  A    between atoms: C6_5  and  O5_12 
REMARK    3  A    between atoms: C8_7  and  O7_13 
ROOT
ATOM      1  C2  MOL d          21.224   0.024  -5.760  0.00  0.00     0.090 A 
ATOM      2  C3  MOL d          20.380   0.932  -5.131  0.00  0.00    -0.000 A 
ATOM      3  C4  MOL d          20.320   0.970  -3.749  0.00  0.00     0.190 A 
ATOM      4  C5  MOL d          21.110   0.093  -3.025  0.00  0.00     0.081 A 
ATOM      5  C6  MOL d          21.070   0.111  -1.636  0.00  0.00     0.085 A 
ATOM      6  C7  MOL d          21.861  -0.768  -0.905  0.00  0.00    -0.018 A 
ATOM      7  C8  MOL d          22.693  -1.661  -1.568  0.00  0.00     0.071 A 
ATOM      8  C9  MOL d          22.731  -1.676  -2.957  0.00  0.00    -0.017 A 
ATOM      9  C10 MOL d          21.942  -0.800  -3.693  0.00  0.00     0.095 A 
ATOM     10  O1  MOL d          22.009  -0.847  -5.057  0.00  0.00    -0.309 OA
ATOM     11  O4  MOL d          19.579   1.767  -3.175  0.00  0.00    -0.287 OA
ATOM     12  H1  MOL d          19.768   1.611  -5.723  0.00  0.00     0.094 H 
ATOM     13  H2  MOL d          21.828  -0.756   0.178  0.00  0.00     0.092 H 
ATOM     14  H3  MOL d          23.381  -2.375  -3.470  0.00  0.00     0.092 H 
ENDROOT
BRANCH   1  15
ATOM     15  C1' MOL d          21.271   0.000  -7.149  0.00  0.00    -0.002 A 
ATOM     16  C2' MOL d          22.258  -0.732  -7.798  0.00  0.00    -0.070 A 
ATOM     17  C3' MOL d          22.306  -0.755  -9.187  0.00  0.00    -0.082 A 
ATOM     18  H6  MOL d          22.991  -1.284  -7.221  0.00  0.00     0.084 H 
ATOM     19  C4' MOL d          21.366  -0.046  -9.927  0.00  0.00    -0.083 A 
ATOM     20  H7  MOL d          23.075  -1.327  -9.693  0.00  0.00     0.083 H 
ATOM     21  C5' MOL d          20.379   0.686  -9.277  0.00  0.00    -0.082 A 
ATOM     22  H8  MOL d          21.404  -0.064 -11.010  0.00  0.00     0.083 H 
ATOM     23  C6' MOL d          20.332   0.710  -7.888  0.00  0.00    -0.070 A 
ATOM     24  H9  MOL d          19.647   1.239  -9.854  0.00  0.00     0.083 H 
ATOM     25  H10 MOL d          19.562   1.281  -7.382  0.00  0.00     0.084 H 
ENDBRANCH   1  15
BRANCH   5  26
ATOM     26  O5  MOL d          20.253   0.987  -0.991  0.00  0.00    -0.360 OA
ATOM     27  H4  MOL d          20.552   1.874  -1.152  0.00  0.00     0.217 HD
ENDBRANCH   5  26
BRANCH   7  28
ATOM     28  O7  MOL d          23.470  -2.522  -0.856  0.00  0.00    -0.361 OA
ATOM     29  H5  MOL d          24.376  -2.427  -1.127  0.00  0.00     0.217 HD
ENDBRANCH   7  28
TORSDOF 3
ENDMDL
MODEL 4
REMARK VINA RESULT:      -7.5      2.531      6.472
REMARK  3 active torsions:
REMARK  status: ('A' for Active; 'I' for Inactive)
REMARK    1  A    between atoms: C1'_19  and  C2_1 
REMARK    2  A    between atoms: C6_5  and  O5_12 
REMARK    3  A    between atoms: C8_7  and  O7_13 
ROOT
ATOM      1  C2  MOL d          21.354  -0.078  -5.715  0.00  0.00     0.090 A 
ATOM      2  C3  MOL d          22.058  -1.121  -5.125  0.00  0.00    -0.000 A 
ATOM      3  C4  MOL d          22.128  -1.208  -3.745  0.00  0.00     0.190 A 
ATOM      4  C5  MOL d          21.488  -0.243  -2.986  0.00  0.00     0.081 A 
ATOM      5  C6  MOL d          21.543  -0.307  -1.598  0.00  0.00     0.085 A 
ATOM      6  C7  MOL d          20.902   0.659  -0.831  0.00  0.00    -0.018 A 
ATOM      7  C8  MOL d          20.207   1.687  -1.456  0.00  0.00     0.071 A 
ATOM      8  C9  MOL d          20.155   1.748  -2.843  0.00  0.00    -0.017 A 
ATOM      9  C10 MOL d          20.794   0.785  -3.616  0.00  0.00     0.095 A 
ATOM     10  O1  MOL d          20.718   0.881  -4.976  0.00  0.00    -0.309 OA
ATOM     11  O4  MOL d          22.747  -2.123  -3.205  0.00  0.00    -0.287 OA
ATOM     12  H1  MOL d          22.553  -1.866  -5.745  0.00  0.00     0.094 H 
ATOM     13  H2  MOL d          20.946   0.611   0.251  0.00  0.00     0.092 H 
ATOM     14  H3  MOL d          19.612   2.551  -3.326  0.00  0.00     0.092 H 
ENDROOT
BRANCH   1  15
ATOM     15  C1' MOL d          21.294  -0.007  -7.102  0.00  0.00    -0.002 A 
ATOM     16  C2' MOL d          20.301   0.747  -7.717  0.00  0.00    -0.070 A 
ATOM     17  C3' MOL d          20.241   0.818  -9.104  0.00  0.00    -0.082 A 
ATOM     18  H6  MOL d          19.574   1.280  -7.114  0.00  0.00     0.084 H 
ATOM     19  C4' MOL d          21.174   0.135  -9.876  0.00  0.00    -0.083 A 
ATOM     20  H7  MOL d          19.468   1.407  -9.583  0.00  0.00     0.083 H 
ATOM     21  C5' MOL d          22.166  -0.619  -9.261  0.00  0.00    -0.082 A 
ATOM     22  H8  MOL d          21.126   0.190 -10.957  0.00  0.00     0.083 H 
ATOM     23  C6' MOL d          22.226  -0.690  -7.874  0.00  0.00    -0.070 A 
ATOM     24  H9  MOL d          22.893  -1.152  -9.862  0.00  0.00     0.083 H 
ATOM     25  H10 MOL d          23.000  -1.279  -7.394  0.00  0.00     0.084 H 
ENDBRANCH   1  15
BRANCH   5  26
ATOM     26  O5  MOL d          22.225  -1.315  -0.990  0.00  0.00    -0.360 OA
ATOM     27  H4  MOL d          22.564  -1.909  -1.650  0.00  0.00     0.217 HD
ENDBRANCH   5  26
BRANCH   7  28
ATOM     28  O7  MOL d          19.578   2.634  -0.709  0.00  0.00    -0.361 OA
ATOM     29  H5  MOL d          18.721   2.811  -1.080  0.00  0.00     0.217 HD
ENDBRANCH   7  28
TORSDOF 3
ENDMDL
MODEL 5
REMARK VINA RESULT:      -6.9      2.344      6.297
REMARK  3 active torsions:
REMARK  status: ('A' for Active; 'I' for Inactive)
REMARK    1  A    between atoms: C1'_19  and  C2_1 
REMARK    2  A    between atoms: C6_5  and  O5_12 
REMARK    3  A    between atoms: C8_7  and  O7_13 
ROOT
ATOM      1  C2  MOL d          21.620  -0.364  -6.126  0.00  0.00     0.090 A 
ATOM      2  C3  MOL d          22.598  -1.219  -5.632  0.00  0.00    -0.000 A 
ATOM      3  C4  MOL d          22.783  -1.336  -4.265  0.00  0.00     0.190 A 
ATOM      4  C5  MOL d          21.978  -0.589  -3.421  0.00  0.00     0.081 A 
ATOM      5  C6  MOL d          22.142  -0.687  -2.044  0.00  0.00     0.085 A 
ATOM      6  C7  MOL d          21.337   0.060  -1.193  0.00  0.00    -0.018 A 
ATOM      7  C8  MOL d          20.369   0.904  -1.722  0.00  0.00     0.071 A 
ATOM      8  C9  MOL d          20.208   1.000  -3.099  0.00  0.00    -0.017 A 
ATOM      9  C10 MOL d          21.010   0.255  -3.956  0.00  0.00     0.095 A 
ATOM     10  O1  MOL d          20.820   0.378  -5.303  0.00  0.00    -0.309 OA
ATOM     11  O4  MOL d          23.643  -2.087  -3.810  0.00  0.00    -0.287 OA
ATOM     12  H1  MOL d          23.218  -1.795  -6.318  0.00  0.00     0.094 H 
ATOM     13  H2  MOL d          21.465  -0.015  -0.119  0.00  0.00     0.092 H 
ATOM     14  H3  MOL d          19.452   1.660  -3.508  0.00  0.00     0.092 H 
ENDROOT
BRANCH   1  15
ATOM     15  C1' MOL d          21.450  -0.261  -7.502  0.00  0.00    -0.002 A 
ATOM     16  C2' MOL d          21.787  -1.328  -8.326  0.00  0.00    -0.070 A 
ATOM     17  C3' MOL d          21.617  -1.224  -9.702  0.00  0.00    -0.082 A 
ATOM     18  H6  MOL d          22.184  -2.241  -7.896  0.00  0.00     0.084 H 
ATOM     19  C4' MOL d          21.109  -0.053 -10.253  0.00  0.00    -0.083 A 
ATOM     20  H7  MOL d          21.880  -2.056 -10.344  0.00  0.00     0.083 H 
ATOM     21  C5' MOL d          20.772   1.014  -9.428  0.00  0.00    -0.082 A 
ATOM     22  H8  MOL d          20.978   0.028 -11.326  0.00  0.00     0.083 H 
ATOM     23  C6' MOL d          20.943   0.910  -8.053  0.00  0.00    -0.070 A 
ATOM     24  H9  MOL d          20.377   1.927  -9.858  0.00  0.00     0.083 H 
ATOM     25  H10 MOL d          20.680   1.742  -7.410  0.00  0.00     0.084 H 
ENDBRANCH   1  15
BRANCH   5  26
ATOM     26  O5  MOL d          23.091  -1.514  -1.530  0.00  0.00    -0.360 OA
ATOM     27  H4  MOL d          23.849  -1.003  -1.272  0.00  0.00     0.217 HD
ENDBRANCH   5  26
BRANCH   7  28
ATOM     28  O7  MOL d          19.578   1.638  -0.892  0.00  0.00    -0.361 OA
ATOM     29  H5  MOL d          20.052   2.412  -0.608  0.00  0.00     0.217 HD
ENDBRANCH   7  28
TORSDOF 3
ENDMDL
