MODEL 1
REMARK VINA RESULT:      -6.1      0.000      0.000
REMARK  4 active torsions:
REMARK  status: ('A' for Active; 'I' for Inactive)
REMARK    1  A    between atoms: S1_4  and  N1_2 
REMARK    2  A    between atoms: C3_7  and  O1_3 
REMARK    3  A    between atoms: O1_3  and  C6_11 
REMARK    4  A    between atoms: C5_10  and  S1_4 
ROOT
ATOM      1  C1  M4S d           2.997  -6.424   8.476  0.00  0.00    -0.058 A 
ATOM      2  C2  M4S d           4.079  -6.867   9.221  0.00  0.00    -0.049 A 
ATOM      3  C3  M4S d           5.346  -6.973   8.661  0.00  0.00     0.068 A 
ATOM      4  C4  M4S d           5.554  -6.598   7.330  0.00  0.00    -0.049 A 
ATOM      5  C5  M4S d           3.176  -6.069   7.140  0.00  0.00     0.079 A 
ATOM      6  C7  M4S d           4.458  -6.158   6.571  0.00  0.00    -0.058 A 
ATOM      7  H1  M4S d           2.016  -6.355   8.931  0.00  0.00     0.086 H 
ATOM      8  H4  M4S d           3.934  -7.136  10.262  0.00  0.00     0.087 H 
ATOM      9  H5  M4S d           6.544  -6.646   6.892  0.00  0.00     0.087 H 
ATOM     10  H9  M4S d           4.602  -5.883   5.532  0.00  0.00     0.086 H 
ENDROOT
BRANCH   5  11
ATOM     11  S1  M4S d           1.915  -5.563   6.268  0.00  0.00     0.256 S 
ATOM     12  O2  M4S d           2.515  -4.730   5.186  0.00  0.00    -0.201 OA
ATOM     13  O3  M4S d           1.074  -6.606   5.613  0.00  0.00    -0.201 OA
BRANCH  11  14
ATOM     14  N1  M4S d           1.110  -4.694   7.166  0.00  0.00    -0.324 N 
ATOM     15  H2  M4S d           1.487  -3.827   7.493  0.00  0.00     0.169 HD
ATOM     16  H3  M4S d           0.192  -4.977   7.445  0.00  0.00     0.169 HD
ENDBRANCH  11  14
ENDBRANCH   5  11
BRANCH   3  17
ATOM     17  O1  M4S d           6.366  -7.439   9.453  0.00  0.00    -0.356 OA
BRANCH  17  18
ATOM     18  C6  M4S d           7.498  -8.087   8.881  0.00  0.00     0.010 C 
ATOM     19  H6  M4S d           7.455  -8.000   7.785  0.00  0.00     0.066 H 
ATOM     20  H7  M4S d           7.495  -9.149   9.165  0.00  0.00     0.066 H 
ATOM     21  H8  M4S d           8.418  -7.611   9.250  0.00  0.00     0.066 H 
ENDBRANCH  17  18
ENDBRANCH   3  17
TORSDOF 4
ENDMDL
MODEL 2
REMARK VINA RESULT:      -5.8      1.104      1.989
REMARK  4 active torsions:
REMARK  status: ('A' for Active; 'I' for Inactive)
REMARK    1  A    between atoms: S1_4  and  N1_2 
REMARK    2  A    between atoms: C3_7  and  O1_3 
REMARK    3  A    between atoms: O1_3  and  C6_11 
REMARK    4  A    between atoms: C5_10  and  S1_4 
ROOT
ATOM      1  C1  M4S d           4.627  -6.393   6.555  0.00  0.00    -0.058 A 
ATOM      2  C2  M4S d           5.550  -6.777   7.515  0.00  0.00    -0.049 A 
ATOM      3  C3  M4S d           5.201  -6.866   8.857  0.00  0.00     0.068 A 
ATOM      4  C4  M4S d           3.888  -6.597   9.255  0.00  0.00    -0.049 A 
ATOM      5  C5  M4S d           3.318  -6.096   6.933  0.00  0.00     0.079 A 
ATOM      6  C7  M4S d           2.954  -6.199   8.286  0.00  0.00    -0.058 A 
ATOM      7  H1  M4S d           4.923  -6.323   5.515  0.00  0.00     0.086 H 
ATOM      8  H4  M4S d           6.565  -7.012   7.214  0.00  0.00     0.087 H 
ATOM      9  H5  M4S d           3.596  -6.694  10.295  0.00  0.00     0.087 H 
ATOM     10  H9  M4S d           1.937  -5.969   8.585  0.00  0.00     0.086 H 
ENDROOT
BRANCH   5  11
ATOM     11  S1  M4S d           2.245  -5.639   5.817  0.00  0.00     0.256 S 
ATOM     12  O2  M4S d           0.957  -5.519   6.560  0.00  0.00    -0.201 OA
ATOM     13  O3  M4S d           2.486  -4.337   5.129  0.00  0.00    -0.201 OA
BRANCH  11  14
ATOM     14  N1  M4S d           2.150  -6.761   4.847  0.00  0.00    -0.324 N 
ATOM     15  H2  M4S d           2.933  -7.365   4.704  0.00  0.00     0.169 HD
ATOM     16  H3  M4S d           1.302  -6.911   4.338  0.00  0.00     0.169 HD
ENDBRANCH  11  14
ENDBRANCH   5  11
BRANCH   3  17
ATOM     17  O1  M4S d           6.173  -7.232   9.755  0.00  0.00    -0.356 OA
BRANCH  17  18
ATOM     18  C6  M4S d           7.525  -7.400   9.339  0.00  0.00     0.010 C 
ATOM     19  H6  M4S d           7.552  -7.984   8.408  0.00  0.00     0.066 H 
ATOM     20  H7  M4S d           8.086  -7.931  10.122  0.00  0.00     0.066 H 
ATOM     21  H8  M4S d           7.981  -6.414   9.167  0.00  0.00     0.066 H 
ENDBRANCH  17  18
ENDBRANCH   3  17
TORSDOF 4
ENDMDL
MODEL 3
REMARK VINA RESULT:      -5.5      2.954      5.021
REMARK  4 active torsions:
REMARK  status: ('A' for Active; 'I' for Inactive)
REMARK    1  A    between atoms: S1_4  and  N1_2 
REMARK    2  A    between atoms: C3_7  and  O1_3 
REMARK    3  A    between atoms: O1_3  and  C6_11 
REMARK    4  A    between atoms: C5_10  and  S1_4 
ROOT
ATOM      1  C1  M4S d           4.178  -6.592   9.265  0.00  0.00    -0.058 A 
ATOM      2  C2  M4S d           3.082  -6.161   8.534  0.00  0.00    -0.049 A 
ATOM      3  C3  M4S d           3.167  -5.948   7.164  0.00  0.00     0.068 A 
ATOM      4  C4  M4S d           4.367  -6.202   6.492  0.00  0.00    -0.049 A 
ATOM      5  C5  M4S d           5.391  -6.827   8.621  0.00  0.00     0.079 A 
ATOM      6  C7  M4S d           5.481  -6.630   7.232  0.00  0.00    -0.058 A 
ATOM      7  H1  M4S d           4.091  -6.745  10.335  0.00  0.00     0.086 H 
ATOM      8  H4  M4S d           2.140  -5.986   9.041  0.00  0.00     0.087 H 
ATOM      9  H5  M4S d           4.436  -6.071   5.418  0.00  0.00     0.087 H 
ATOM     10  H9  M4S d           6.422  -6.811   6.725  0.00  0.00     0.086 H 
ENDROOT
BRANCH   5  11
ATOM     11  S1  M4S d           6.671  -7.319   9.473  0.00  0.00     0.256 S 
ATOM     12  O2  M4S d           7.371  -6.061   9.862  0.00  0.00    -0.201 OA
ATOM     13  O3  M4S d           6.405  -8.087  10.724  0.00  0.00    -0.201 OA
BRANCH  11  14
ATOM     14  N1  M4S d           7.527  -8.086   8.531  0.00  0.00    -0.324 N 
ATOM     15  H2  M4S d           7.998  -8.912   8.843  0.00  0.00     0.169 HD
ATOM     16  H3  M4S d           7.634  -7.777   7.586  0.00  0.00     0.169 HD
ENDBRANCH  11  14
ENDBRANCH   5  11
BRANCH   3  17
ATOM     17  O1  M4S d           2.047  -5.501   6.508  0.00  0.00    -0.356 OA
BRANCH  17  18
ATOM     18  C6  M4S d           2.121  -4.410   5.596  0.00  0.00     0.010 C 
ATOM     19  H6  M4S d           1.964  -4.777   4.571  0.00  0.00     0.066 H 
ATOM     20  H7  M4S d           3.112  -3.939   5.668  0.00  0.00     0.066 H 
ATOM     21  H8  M4S d           1.345  -3.671   5.844  0.00  0.00     0.066 H 
ENDBRANCH  17  18
ENDBRANCH   3  17
TORSDOF 4
ENDMDL
MODEL 4
REMARK VINA RESULT:      -4.6      2.805      4.983
REMARK  4 active torsions:
REMARK  status: ('A' for Active; 'I' for Inactive)
REMARK    1  A    between atoms: S1_4  and  N1_2 
REMARK    2  A    between atoms: C3_7  and  O1_3 
REMARK    3  A    between atoms: O1_3  and  C6_11 
REMARK    4  A    between atoms: C5_10  and  S1_4 
ROOT
ATOM      1  C1  M4S d           2.148  -5.417   7.713  0.00  0.00    -0.058 A 
ATOM      2  C2  M4S d           1.231  -5.329   6.678  0.00  0.00    -0.049 A 
ATOM      3  C3  M4S d           1.340  -6.129   5.547  0.00  0.00     0.068 A 
ATOM      4  C4  M4S d           2.371  -7.068   5.455  0.00  0.00    -0.049 A 
ATOM      5  C5  M4S d           3.199  -6.329   7.631  0.00  0.00     0.079 A 
ATOM      6  C7  M4S d           3.307  -7.153   6.498  0.00  0.00    -0.058 A 
ATOM      7  H1  M4S d           2.048  -4.779   8.584  0.00  0.00     0.086 H 
ATOM      8  H4  M4S d           0.412  -4.622   6.752  0.00  0.00     0.087 H 
ATOM      9  H5  M4S d           2.447  -7.720   4.592  0.00  0.00     0.087 H 
ATOM     10  H9  M4S d           4.122  -7.864   6.429  0.00  0.00     0.086 H 
ENDROOT
BRANCH   5  11
ATOM     11  S1  M4S d           4.274  -6.426   8.832  0.00  0.00     0.256 S 
ATOM     12  O2  M4S d           4.120  -5.144   9.580  0.00  0.00    -0.201 OA
ATOM     13  O3  M4S d           4.105  -7.537   9.813  0.00  0.00    -0.201 OA
BRANCH  11  14
ATOM     14  N1  M4S d           5.613  -6.461   8.190  0.00  0.00    -0.324 N 
ATOM     15  H2  M4S d           6.421  -6.693   8.732  0.00  0.00     0.169 HD
ATOM     16  H3  M4S d           5.707  -6.253   7.216  0.00  0.00     0.169 HD
ENDBRANCH  11  14
ENDBRANCH   5  11
BRANCH   3  17
ATOM     17  O1  M4S d           0.406  -5.972   4.553  0.00  0.00    -0.356 OA
BRANCH  17  18
ATOM     18  C6  M4S d           0.481  -4.875   3.648  0.00  0.00     0.010 C 
ATOM     19  H6  M4S d           0.789  -5.237   2.656  0.00  0.00     0.066 H 
ATOM     20  H7  M4S d           1.217  -4.145   4.016  0.00  0.00     0.066 H 
ATOM     21  H8  M4S d          -0.505  -4.394   3.573  0.00  0.00     0.066 H 
ENDBRANCH  17  18
ENDBRANCH   3  17
TORSDOF 4
ENDMDL
