MODEL 1
REMARK VINA RESULT:     -10.1      0.000      0.000
REMARK  15 active torsions:
REMARK  status: ('A' for Active; 'I' for Inactive)
REMARK    1  A    between atoms: C10_11  and  N17_7 
REMARK    2  A    between atoms: N17_7  and  C24_8 
REMARK    3  A    between atoms: C24_8  and  C63_13 
REMARK    4  A    between atoms: C63_13  and  C64_28 
REMARK    5  A    between atoms: N40_26  and  C37_23 
REMARK    6  A    between atoms: C41_27  and  N40_26 
REMARK    7  A    between atoms: C72_36  and  C41_27 
REMARK    8  A    between atoms: C64_28  and  C65_29 
REMARK    9  A    between atoms: C65_29  and  C66_30 
REMARK   10  A    between atoms: C66_30  and  C67_31 
REMARK   11  A    between atoms: C67_31  and  C68_32 
REMARK   12  A    between atoms: C68_32  and  C69_33 
REMARK   13  A    between atoms: C69_33  and  C70_34 
REMARK   14  A    between atoms: C70_34  and  C71_35 
REMARK   15  A    between atoms: C71_35  and  C72_36 
ROOT
ATOM      1  C67 E12 d           2.746  62.531  70.013  0.00  0.00    -0.065 C 
ATOM      2  H37 E12 d           2.969  62.315  68.957  0.00  0.00     0.033 H 
ATOM      3  H38 E12 d           3.260  61.800  70.653  0.00  0.00     0.033 H 
ENDROOT
BRANCH   1   4
ATOM      4  C66 E12 d           1.255  62.396  70.228  0.00  0.00    -0.065 C 
ATOM      5  H35 E12 d           0.743  63.244  69.750  0.00  0.00     0.033 H 
ATOM      6  H36 E12 d           0.909  61.456  69.774  0.00  0.00     0.033 H 
BRANCH   4   7
ATOM      7  C65 E12 d           0.927  62.385  71.700  0.00  0.00    -0.065 C 
ATOM      8  H33 E12 d           1.427  61.525  72.170  0.00  0.00     0.033 H 
ATOM      9  H34 E12 d           1.295  63.317  72.153  0.00  0.00     0.033 H 
BRANCH   7  10
ATOM     10  C64 E12 d          -0.572  62.276  71.944  0.00  0.00    -0.064 C 
ATOM     11  H31 E12 d          -1.021  63.280  71.903  0.00  0.00     0.033 H 
ATOM     12  H32 E12 d          -1.021  61.643  71.166  0.00  0.00     0.033 H 
BRANCH  10  13
ATOM     13  C63 E12 d          -0.837  61.666  73.299  0.00  0.00    -0.043 C 
ATOM     14  H15 E12 d          -0.234  62.191  74.054  0.00  0.00     0.035 H 
ATOM     15  H16 E12 d          -1.904  61.776  73.540  0.00  0.00     0.035 H 
BRANCH  13  16
ATOM     16  C24 E12 d          -0.470  60.170  73.313  0.00  0.00     0.083 C 
ATOM     17  H7  E12 d          -1.377  59.548  73.327  0.00  0.00     0.075 H 
ATOM     18  H8  E12 d           0.139  59.912  72.434  0.00  0.00     0.075 H 
BRANCH  16  19
ATOM     19  N17 E12 d           0.338  59.978  74.606  0.00  0.00    -0.067 N 
ATOM     20  H5  E12 d           0.742  60.875  74.825  0.00  0.00     0.277 HD
ATOM     21  H6  E12 d          -0.325  59.725  75.321  0.00  0.00     0.277 HD
BRANCH  19  22
ATOM     22  C10 E12 d           1.462  58.973  74.690  0.00  0.00     0.129 C 
ATOM     23  C4  E12 d           2.520  59.264  73.605  0.00  0.00    -0.005 A 
ATOM     24  C3  E12 d           2.879  58.312  72.667  0.00  0.00     0.020 A 
ATOM     25  C5  E12 d           3.268  60.554  73.592  0.00  0.00    -0.068 A 
ATOM     26  N2  E12 d           3.851  58.596  71.750  0.00  0.00    -0.327 N 
ATOM     27  C9  E12 d           2.236  56.922  72.588  0.00  0.00    -0.026 C 
ATOM     28  C1  E12 d           4.595  59.759  71.640  0.00  0.00     0.245 A 
ATOM     29  H1  E12 d           4.048  57.880  71.079  0.00  0.00     0.169 HD
ATOM     30  C6  E12 d           4.253  60.816  72.666  0.00  0.00    -0.017 A 
ATOM     31  O7  E12 d           5.437  59.897  70.731  0.00  0.00    -0.268 OA
ATOM     32  H9  E12 d           4.777  61.770  72.672  0.00  0.00     0.092 H 
ATOM     33  C14 E12 d           0.831  56.922  73.218  0.00  0.00    -0.058 C 
ATOM     34  H10 E12 d           2.871  56.202  73.125  0.00  0.00     0.042 H 
ATOM     35  H11 E12 d           2.156  56.623  71.532  0.00  0.00     0.042 H 
ATOM     36  C13 E12 d           0.874  57.536  74.654  0.00  0.00    -0.034 C 
ATOM     37  H3  E12 d           0.153  57.518  72.589  0.00  0.00     0.033 H 
ATOM     38  H4  E12 d           0.461  55.888  73.276  0.00  0.00     0.033 H 
ATOM     39  H13 E12 d          -0.152  57.568  75.051  0.00  0.00     0.036 H 
ATOM     40  H14 E12 d           1.493  56.889  75.292  0.00  0.00     0.036 H 
ATOM     41  H2  E12 d           3.029  61.312  74.337  0.00  0.00     0.084 H 
ATOM     42  H12 E12 d           1.957  59.096  75.665  0.00  0.00     0.092 H 
ENDBRANCH  19  22
ENDBRANCH  16  19
ENDBRANCH  13  16
ENDBRANCH  10  13
ENDBRANCH   7  10
ENDBRANCH   4   7
ENDBRANCH   1   4
BRANCH   1  43
ATOM     43  C68 E12 d           3.269  63.914  70.342  0.00  0.00    -0.065 C 
ATOM     44  H39 E12 d           3.415  63.980  71.430  0.00  0.00     0.033 H 
ATOM     45  H40 E12 d           2.520  64.654  70.026  0.00  0.00     0.033 H 
BRANCH  43  46
ATOM     46  C69 E12 d           4.587  64.241  69.660  0.00  0.00    -0.065 C 
ATOM     47  H41 E12 d           4.605  63.771  68.665  0.00  0.00     0.033 H 
ATOM     48  H42 E12 d           5.415  63.846  70.266  0.00  0.00     0.033 H 
BRANCH  46  49
ATOM     49  C70 E12 d           4.755  65.742  69.504  0.00  0.00    -0.065 C 
ATOM     50  H43 E12 d           5.822  65.956  69.340  0.00  0.00     0.033 H 
ATOM     51  H44 E12 d           4.422  66.227  70.435  0.00  0.00     0.033 H 
BRANCH  49  52
ATOM     52  C71 E12 d           3.962  66.335  68.343  0.00  0.00    -0.064 C 
ATOM     53  H45 E12 d           4.195  67.408  68.274  0.00  0.00     0.033 H 
ATOM     54  H46 E12 d           2.889  66.205  68.550  0.00  0.00     0.033 H 
BRANCH  52  55
ATOM     55  C72 E12 d           4.282  65.676  66.988  0.00  0.00    -0.043 C 
ATOM     56  H47 E12 d           4.231  64.585  67.109  0.00  0.00     0.035 H 
ATOM     57  H48 E12 d           5.301  65.965  66.690  0.00  0.00     0.035 H 
BRANCH  55  58
ATOM     58  C41 E12 d           3.313  66.088  65.873  0.00  0.00     0.083 C 
ATOM     59  H29 E12 d           2.374  65.522  65.956  0.00  0.00     0.075 H 
ATOM     60  H30 E12 d           3.767  65.903  64.888  0.00  0.00     0.075 H 
BRANCH  58  61
ATOM     61  N40 E12 d           3.056  67.539  66.055  0.00  0.00    -0.067 N 
ATOM     62  H27 E12 d           3.524  67.816  66.904  0.00  0.00     0.277 HD
ATOM     63  H28 E12 d           2.061  67.649  66.169  0.00  0.00     0.277 HD
BRANCH  61  64
ATOM     64  C37 E12 d           3.489  68.511  64.975  0.00  0.00     0.129 C 
ATOM     65  C38 E12 d           5.008  68.334  64.773  0.00  0.00    -0.034 C 
ATOM     66  C39 E12 d           5.497  69.149  63.570  0.00  0.00    -0.058 C 
ATOM     67  H23 E12 d           5.228  67.269  64.600  0.00  0.00     0.036 H 
ATOM     68  H24 E12 d           5.534  68.675  65.677  0.00  0.00     0.036 H 
ATOM     69  C36 E12 d           4.828  68.643  62.278  0.00  0.00    -0.026 C 
ATOM     70  H25 E12 d           5.242  70.208  63.721  0.00  0.00     0.033 H 
ATOM     71  H26 E12 d           6.588  69.044  63.479  0.00  0.00     0.033 H 
ATOM     72  C31 E12 d           3.298  68.545  62.451  0.00  0.00     0.020 A 
ATOM     73  H20 E12 d           5.053  69.341  61.459  0.00  0.00     0.042 H 
ATOM     74  H21 E12 d           5.227  67.648  62.031  0.00  0.00     0.042 H 
ATOM     75  C32 E12 d           2.664  68.460  63.691  0.00  0.00    -0.005 A 
ATOM     76  N30 E12 d           2.539  68.535  61.318  0.00  0.00    -0.327 N 
ATOM     77  C33 E12 d           1.183  68.364  63.718  0.00  0.00    -0.068 A 
ATOM     78  C34 E12 d           0.441  68.358  62.576  0.00  0.00    -0.017 A 
ATOM     79  H18 E12 d           0.676  68.297  64.680  0.00  0.00     0.084 H 
ATOM     80  C29 E12 d           1.152  68.470  61.243  0.00  0.00     0.245 A 
ATOM     81  H19 E12 d          -0.644  68.273  62.620  0.00  0.00     0.092 H 
ATOM     82  O35 E12 d           0.581  68.589  60.151  0.00  0.00    -0.268 OA
ATOM     83  H17 E12 d           3.033  68.579  60.449  0.00  0.00     0.169 HD
ATOM     84  H22 E12 d           3.336  69.522  65.378  0.00  0.00     0.092 H 
ENDBRANCH  61  64
ENDBRANCH  58  61
ENDBRANCH  55  58
ENDBRANCH  52  55
ENDBRANCH  49  52
ENDBRANCH  46  49
ENDBRANCH  43  46
ENDBRANCH   1  43
TORSDOF 15
ENDMDL
