MODEL 1
REMARK VINA RESULT:     -10.5      0.000      0.000
REMARK  15 active torsions:
REMARK  status: ('A' for Active; 'I' for Inactive)
REMARK    1  A    between atoms: C10_11  and  N17_7 
REMARK    2  A    between atoms: N17_7  and  C24_8 
REMARK    3  A    between atoms: C24_8  and  C63_13 
REMARK    4  A    between atoms: C63_13  and  C64_28 
REMARK    5  A    between atoms: N40_26  and  C37_23 
REMARK    6  A    between atoms: C41_27  and  N40_26 
REMARK    7  A    between atoms: C72_36  and  C41_27 
REMARK    8  A    between atoms: C64_28  and  C65_29 
REMARK    9  A    between atoms: C65_29  and  C66_30 
REMARK   10  A    between atoms: C66_30  and  C67_31 
REMARK   11  A    between atoms: C67_31  and  C68_32 
REMARK   12  A    between atoms: C68_32  and  C69_33 
REMARK   13  A    between atoms: C69_33  and  C70_34 
REMARK   14  A    between atoms: C70_34  and  C71_35 
REMARK   15  A    between atoms: C71_35  and  C72_36 
ROOT
ATOM      1  C67 E12 d           4.469  63.451  70.065  0.00  0.00    -0.065 C 
ATOM      2  H37 E12 d           5.254  62.691  70.194  0.00  0.00     0.033 H 
ATOM      3  H38 E12 d           3.971  63.632  71.029  0.00  0.00     0.033 H 
ENDROOT
BRANCH   1   4
ATOM      4  C66 E12 d           3.445  62.926  69.084  0.00  0.00    -0.065 C 
ATOM      5  H35 E12 d           2.854  63.768  68.694  0.00  0.00     0.033 H 
ATOM      6  H36 E12 d           3.965  62.427  68.253  0.00  0.00     0.033 H 
BRANCH   4   7
ATOM      7  C65 E12 d           2.521  61.940  69.753  0.00  0.00    -0.065 C 
ATOM      8  H33 E12 d           2.168  61.216  69.003  0.00  0.00     0.033 H 
ATOM      9  H34 E12 d           3.075  61.411  70.542  0.00  0.00     0.033 H 
BRANCH   7  10
ATOM     10  C64 E12 d           1.315  62.629  70.376  0.00  0.00    -0.064 C 
ATOM     11  H31 E12 d           0.902  63.356  69.661  0.00  0.00     0.033 H 
ATOM     12  H32 E12 d           0.550  61.876  70.616  0.00  0.00     0.033 H 
BRANCH  10  13
ATOM     13  C63 E12 d           1.720  63.348  71.641  0.00  0.00    -0.043 C 
ATOM     14  H15 E12 d           2.773  63.121  71.862  0.00  0.00     0.035 H 
ATOM     15  H16 E12 d           1.601  64.431  71.493  0.00  0.00     0.035 H 
BRANCH  13  16
ATOM     16  C24 E12 d           0.850  62.904  72.832  0.00  0.00     0.083 C 
ATOM     17  H7  E12 d           0.203  63.728  73.167  0.00  0.00     0.075 H 
ATOM     18  H8  E12 d           0.229  62.038  72.558  0.00  0.00     0.075 H 
BRANCH  16  19
ATOM     19  N17 E12 d           1.855  62.524  73.930  0.00  0.00    -0.067 N 
ATOM     20  H5  E12 d           2.764  62.801  73.593  0.00  0.00     0.277 HD
ATOM     21  H6  E12 d           1.614  63.074  74.740  0.00  0.00     0.277 HD
BRANCH  19  22
ATOM     22  C10 E12 d           1.995  61.099  74.410  0.00  0.00     0.129 C 
ATOM     23  C4  E12 d           2.565  60.211  73.282  0.00  0.00    -0.005 A 
ATOM     24  C3  E12 d           1.889  59.093  72.828  0.00  0.00     0.020 A 
ATOM     25  C5  E12 d           3.917  60.473  72.711  0.00  0.00    -0.068 A 
ATOM     26  N2  E12 d           2.447  58.309  71.858  0.00  0.00    -0.327 N 
ATOM     27  C9  E12 d           0.514  58.665  73.356  0.00  0.00    -0.026 C 
ATOM     28  C1  E12 d           3.683  58.468  71.252  0.00  0.00     0.245 A 
ATOM     29  H1  E12 d           1.900  57.531  71.548  0.00  0.00     0.169 HD
ATOM     30  C6  E12 d           4.467  59.665  71.742  0.00  0.00    -0.017 A 
ATOM     31  O7  E12 d           4.060  57.690  70.353  0.00  0.00    -0.268 OA
ATOM     32  H9  E12 d           5.453  59.884  71.333  0.00  0.00     0.092 H 
ATOM     33  C14 E12 d          -0.248  59.862  73.954  0.00  0.00    -0.058 C 
ATOM     34  H10 E12 d           0.650  57.901  74.135  0.00  0.00     0.042 H 
ATOM     35  H11 E12 d          -0.074  58.244  72.528  0.00  0.00     0.042 H 
ATOM     36  C13 E12 d           0.641  60.615  74.996  0.00  0.00    -0.034 C 
ATOM     37  H3  E12 d          -0.525  60.555  73.146  0.00  0.00     0.033 H 
ATOM     38  H4  E12 d          -1.159  59.498  74.452  0.00  0.00     0.033 H 
ATOM     39  H13 E12 d           0.086  61.491  75.362  0.00  0.00     0.036 H 
ATOM     40  H14 E12 d           0.848  59.935  75.835  0.00  0.00     0.036 H 
ATOM     41  H2  E12 d           4.486  61.329  73.070  0.00  0.00     0.084 H 
ATOM     42  H12 E12 d           2.728  61.086  75.231  0.00  0.00     0.092 H 
ENDBRANCH  19  22
ENDBRANCH  16  19
ENDBRANCH  13  16
ENDBRANCH  10  13
ENDBRANCH   7  10
ENDBRANCH   4   7
ENDBRANCH   1   4
BRANCH   1  43
ATOM     43  C68 E12 d           5.119  64.741  69.610  0.00  0.00    -0.065 C 
ATOM     44  H39 E12 d           5.915  64.495  68.891  0.00  0.00     0.033 H 
ATOM     45  H40 E12 d           5.558  65.239  70.487  0.00  0.00     0.033 H 
BRANCH  43  46
ATOM     46  C69 E12 d           4.151  65.705  68.944  0.00  0.00    -0.065 C 
ATOM     47  H41 E12 d           3.538  65.154  68.215  0.00  0.00     0.033 H 
ATOM     48  H42 E12 d           4.722  66.488  68.425  0.00  0.00     0.033 H 
BRANCH  46  49
ATOM     49  C70 E12 d           3.241  66.351  69.973  0.00  0.00    -0.065 C 
ATOM     50  H43 E12 d           3.852  66.649  70.838  0.00  0.00     0.033 H 
ATOM     51  H44 E12 d           2.493  65.608  70.290  0.00  0.00     0.033 H 
BRANCH  49  52
ATOM     52  C71 E12 d           2.504  67.584  69.457  0.00  0.00    -0.064 C 
ATOM     53  H45 E12 d           3.211  68.427  69.430  0.00  0.00     0.033 H 
ATOM     54  H46 E12 d           1.683  67.816  70.151  0.00  0.00     0.033 H 
BRANCH  52  55
ATOM     55  C72 E12 d           1.914  67.396  68.047  0.00  0.00    -0.043 C 
ATOM     56  H47 E12 d           0.821  67.313  68.133  0.00  0.00     0.035 H 
ATOM     57  H48 E12 d           2.319  66.466  67.620  0.00  0.00     0.035 H 
BRANCH  55  58
ATOM     58  C41 E12 d           2.242  68.552  67.095  0.00  0.00     0.083 C 
ATOM     59  H29 E12 d           2.411  69.477  67.665  0.00  0.00     0.075 H 
ATOM     60  H30 E12 d           1.416  68.705  66.385  0.00  0.00     0.075 H 
BRANCH  58  61
ATOM     61  N40 E12 d           3.477  68.162  66.371  0.00  0.00    -0.067 N 
ATOM     62  H27 E12 d           3.861  67.365  66.853  0.00  0.00     0.277 HD
ATOM     63  H28 E12 d           4.117  68.938  66.442  0.00  0.00     0.277 HD
BRANCH  61  64
ATOM     64  C37 E12 d           3.391  67.792  64.903  0.00  0.00     0.129 C 
ATOM     65  C38 E12 d           4.151  68.873  64.106  0.00  0.00    -0.034 C 
ATOM     66  C39 E12 d           4.270  68.480  62.629  0.00  0.00    -0.058 C 
ATOM     67  H23 E12 d           5.160  68.991  64.530  0.00  0.00     0.036 H 
ATOM     68  H24 E12 d           3.608  69.827  64.183  0.00  0.00     0.036 H 
ATOM     69  C36 E12 d           5.089  67.184  62.488  0.00  0.00    -0.026 C 
ATOM     70  H25 E12 d           3.264  68.321  62.214  0.00  0.00     0.033 H 
ATOM     71  H26 E12 d           4.771  69.289  62.077  0.00  0.00     0.033 H 
ATOM     72  C31 E12 d           4.558  66.090  63.439  0.00  0.00     0.020 A 
ATOM     73  H20 E12 d           5.019  66.824  61.452  0.00  0.00     0.042 H 
ATOM     74  H21 E12 d           6.141  67.394  62.733  0.00  0.00     0.042 H 
ATOM     75  C32 E12 d           3.790  66.357  64.572  0.00  0.00    -0.005 A 
ATOM     76  N30 E12 d           4.873  64.796  63.141  0.00  0.00    -0.327 N 
ATOM     77  C33 E12 d           3.348  65.212  65.407  0.00  0.00    -0.068 A 
ATOM     78  C34 E12 d           3.669  63.926  65.094  0.00  0.00    -0.017 A 
ATOM     79  H18 E12 d           2.748  65.406  66.295  0.00  0.00     0.084 H 
ATOM     80  C29 E12 d           4.489  63.661  63.847  0.00  0.00     0.245 A 
ATOM     81  H19 E12 d           3.344  63.102  65.729  0.00  0.00     0.092 H 
ATOM     82  O35 E12 d           4.744  62.534  63.401  0.00  0.00    -0.268 OA
ATOM     83  H17 E12 d           5.440  64.649  62.331  0.00  0.00     0.169 HD
ATOM     84  H22 E12 d           2.332  67.872  64.618  0.00  0.00     0.092 H 
ENDBRANCH  61  64
ENDBRANCH  58  61
ENDBRANCH  55  58
ENDBRANCH  52  55
ENDBRANCH  49  52
ENDBRANCH  46  49
ENDBRANCH  43  46
ENDBRANCH   1  43
TORSDOF 15
ENDMDL
MODEL 2
REMARK VINA RESULT:     -10.4      0.924      9.719
REMARK  15 active torsions:
REMARK  status: ('A' for Active; 'I' for Inactive)
REMARK    1  A    between atoms: C10_11  and  N17_7 
REMARK    2  A    between atoms: N17_7  and  C24_8 
REMARK    3  A    between atoms: C24_8  and  C63_13 
REMARK    4  A    between atoms: C63_13  and  C64_28 
REMARK    5  A    between atoms: N40_26  and  C37_23 
REMARK    6  A    between atoms: C41_27  and  N40_26 
REMARK    7  A    between atoms: C72_36  and  C41_27 
REMARK    8  A    between atoms: C64_28  and  C65_29 
REMARK    9  A    between atoms: C65_29  and  C66_30 
REMARK   10  A    between atoms: C66_30  and  C67_31 
REMARK   11  A    between atoms: C67_31  and  C68_32 
REMARK   12  A    between atoms: C68_32  and  C69_33 
REMARK   13  A    between atoms: C69_33  and  C70_34 
REMARK   14  A    between atoms: C70_34  and  C71_35 
REMARK   15  A    between atoms: C71_35  and  C72_36 
ROOT
ATOM      1  C67 E12 d           3.465  62.635  69.253  0.00  0.00    -0.065 C 
ATOM      2  H37 E12 d           4.273  61.972  68.909  0.00  0.00     0.033 H 
ATOM      3  H38 E12 d           3.212  63.350  68.456  0.00  0.00     0.033 H 
ENDROOT
BRANCH   1   4
ATOM      4  C66 E12 d           3.956  63.409  70.456  0.00  0.00    -0.065 C 
ATOM      5  H35 E12 d           3.123  63.991  70.876  0.00  0.00     0.033 H 
ATOM      6  H36 E12 d           4.328  62.703  71.212  0.00  0.00     0.033 H 
BRANCH   4   7
ATOM      7  C65 E12 d           5.069  64.350  70.068  0.00  0.00    -0.065 C 
ATOM      8  H33 E12 d           5.432  64.865  70.971  0.00  0.00     0.033 H 
ATOM      9  H34 E12 d           5.889  63.767  69.624  0.00  0.00     0.033 H 
BRANCH   7  10
ATOM     10  C64 E12 d           4.604  65.392  69.061  0.00  0.00    -0.064 C 
ATOM     11  H31 E12 d           5.471  65.972  68.711  0.00  0.00     0.033 H 
ATOM     12  H32 E12 d           4.133  64.886  68.206  0.00  0.00     0.033 H 
BRANCH  10  13
ATOM     13  C63 E12 d           3.604  66.326  69.700  0.00  0.00    -0.043 C 
ATOM     14  H15 E12 d           2.863  65.733  70.257  0.00  0.00     0.035 H 
ATOM     15  H16 E12 d           4.131  66.997  70.393  0.00  0.00     0.035 H 
BRANCH  13  16
ATOM     16  C24 E12 d           2.876  67.169  68.637  0.00  0.00     0.083 C 
ATOM     17  H7  E12 d           1.918  66.704  68.363  0.00  0.00     0.075 H 
ATOM     18  H8  E12 d           2.696  68.189  69.008  0.00  0.00     0.075 H 
BRANCH  16  19
ATOM     19  N17 E12 d           3.832  67.191  67.434  0.00  0.00    -0.067 N 
ATOM     20  H5  E12 d           4.402  68.016  67.539  0.00  0.00     0.277 HD
ATOM     21  H6  E12 d           4.411  66.370  67.515  0.00  0.00     0.277 HD
BRANCH  19  22
ATOM     22  C10 E12 d           3.312  67.209  66.017  0.00  0.00     0.129 C 
ATOM     23  C4  E12 d           3.768  65.940  65.266  0.00  0.00    -0.005 A 
ATOM     24  C3  E12 d           4.501  66.013  64.095  0.00  0.00     0.020 A 
ATOM     25  C5  E12 d           3.345  64.585  65.726  0.00  0.00    -0.068 A 
ATOM     26  N2  E12 d           4.848  64.865  63.439  0.00  0.00    -0.327 N 
ATOM     27  C9  E12 d           4.964  67.335  63.470  0.00  0.00    -0.026 C 
ATOM     28  C1  E12 d           4.522  63.564  63.784  0.00  0.00     0.245 A 
ATOM     29  H1  E12 d           5.402  64.978  62.614  0.00  0.00     0.169 HD
ATOM     30  C6  E12 d           3.696  63.442  65.044  0.00  0.00    -0.017 A 
ATOM     31  O7  E12 d           4.931  62.600  63.106  0.00  0.00    -0.268 OA
ATOM     32  H9  E12 d           3.383  62.464  65.407  0.00  0.00     0.092 H 
ATOM     33  C14 E12 d           5.051  68.449  64.529  0.00  0.00    -0.058 C 
ATOM     34  H10 E12 d           4.248  67.634  62.691  0.00  0.00     0.042 H 
ATOM     35  H11 E12 d           5.956  67.190  63.019  0.00  0.00     0.042 H 
ATOM     36  C13 E12 d           3.715  68.545  65.335  0.00  0.00    -0.034 C 
ATOM     37  H3  E12 d           5.876  68.227  65.221  0.00  0.00     0.033 H 
ATOM     38  H4  E12 d           5.241  69.410  64.028  0.00  0.00     0.033 H 
ATOM     39  H13 E12 d           3.832  69.314  66.114  0.00  0.00     0.036 H 
ATOM     40  H14 E12 d           2.911  68.842  64.646  0.00  0.00     0.036 H 
ATOM     41  H2  E12 d           2.742  64.498  66.629  0.00  0.00     0.084 H 
ATOM     42  H12 E12 d           2.213  67.184  66.056  0.00  0.00     0.092 H 
ENDBRANCH  19  22
ENDBRANCH  16  19
ENDBRANCH  13  16
ENDBRANCH  10  13
ENDBRANCH   7  10
ENDBRANCH   4   7
ENDBRANCH   1   4
BRANCH   1  43
ATOM     43  C68 E12 d           2.243  61.791  69.550  0.00  0.00    -0.065 C 
ATOM     44  H39 E12 d           2.555  60.927  70.154  0.00  0.00     0.033 H 
ATOM     45  H40 E12 d           1.822  61.440  68.596  0.00  0.00     0.033 H 
BRANCH  43  46
ATOM     46  C69 E12 d           1.160  62.541  70.307  0.00  0.00    -0.065 C 
ATOM     47  H41 E12 d           0.306  62.718  69.635  0.00  0.00     0.033 H 
ATOM     48  H42 E12 d           1.561  63.506  70.650  0.00  0.00     0.033 H 
BRANCH  46  49
ATOM     49  C70 E12 d           0.690  61.741  71.509  0.00  0.00    -0.065 C 
ATOM     50  H43 E12 d           1.573  61.432  72.087  0.00  0.00     0.033 H 
ATOM     51  H44 E12 d           0.157  60.849  71.146  0.00  0.00     0.033 H 
BRANCH  49  52
ATOM     52  C71 E12 d          -0.245  62.514  72.436  0.00  0.00    -0.064 C 
ATOM     53  H45 E12 d          -1.166  61.928  72.570  0.00  0.00     0.033 H 
ATOM     54  H46 E12 d          -0.487  63.477  71.965  0.00  0.00     0.033 H 
BRANCH  52  55
ATOM     55  C72 E12 d           0.365  62.789  73.824  0.00  0.00    -0.043 C 
ATOM     56  H47 E12 d          -0.128  62.136  74.559  0.00  0.00     0.035 H 
ATOM     57  H48 E12 d           0.178  63.841  74.086  0.00  0.00     0.035 H 
BRANCH  55  58
ATOM     58  C41 E12 d           1.875  62.533  73.882  0.00  0.00     0.083 C 
ATOM     59  H29 E12 d           2.419  63.485  73.973  0.00  0.00     0.075 H 
ATOM     60  H30 E12 d           2.207  62.006  72.975  0.00  0.00     0.075 H 
BRANCH  58  61
ATOM     61  N40 E12 d           2.112  61.690  75.081  0.00  0.00    -0.067 N 
ATOM     62  H27 E12 d           1.384  61.908  75.742  0.00  0.00     0.277 HD
ATOM     63  H28 E12 d           3.004  61.964  75.461  0.00  0.00     0.277 HD
BRANCH  61  64
ATOM     64  C37 E12 d           2.139  60.181  74.933  0.00  0.00     0.129 C 
ATOM     65  C38 E12 d           0.743  59.652  75.325  0.00  0.00    -0.034 C 
ATOM     66  C39 E12 d           0.625  58.152  75.029  0.00  0.00    -0.058 C 
ATOM     67  H23 E12 d          -0.022  60.194  74.749  0.00  0.00     0.036 H 
ATOM     68  H24 E12 d           0.582  59.821  76.400  0.00  0.00     0.036 H 
ATOM     69  C36 E12 d           0.777  57.895  73.518  0.00  0.00    -0.026 C 
ATOM     70  H25 E12 d           1.416  57.612  75.571  0.00  0.00     0.033 H 
ATOM     71  H26 E12 d          -0.359  57.793  75.362  0.00  0.00     0.033 H 
ATOM     72  C31 E12 d           2.033  58.598  72.962  0.00  0.00     0.020 A 
ATOM     73  H20 E12 d           0.863  56.813  73.344  0.00  0.00     0.042 H 
ATOM     74  H21 E12 d          -0.111  58.280  72.996  0.00  0.00     0.042 H 
ATOM     75  C32 E12 d           2.662  59.671  73.593  0.00  0.00    -0.005 A 
ATOM     76  N30 E12 d           2.539  58.134  71.784  0.00  0.00    -0.327 N 
ATOM     77  C33 E12 d           3.862  60.261  72.949  0.00  0.00    -0.068 A 
ATOM     78  C34 E12 d           4.355  59.783  71.772  0.00  0.00    -0.017 A 
ATOM     79  H18 E12 d           4.362  61.100  73.431  0.00  0.00     0.084 H 
ATOM     80  C29 E12 d           3.665  58.604  71.116  0.00  0.00     0.245 A 
ATOM     81  H19 E12 d           5.229  60.241  71.311  0.00  0.00     0.092 H 
ATOM     82  O35 E12 d           4.086  58.015  70.112  0.00  0.00    -0.268 OA
ATOM     83  H17 E12 d           2.049  57.375  71.354  0.00  0.00     0.169 HD
ATOM     84  H22 E12 d           2.846  59.802  75.685  0.00  0.00     0.092 H 
ENDBRANCH  61  64
ENDBRANCH  58  61
ENDBRANCH  55  58
ENDBRANCH  52  55
ENDBRANCH  49  52
ENDBRANCH  46  49
ENDBRANCH  43  46
ENDBRANCH   1  43
TORSDOF 15
ENDMDL
MODEL 3
REMARK VINA RESULT:     -10.3      1.871     10.046
REMARK  15 active torsions:
REMARK  status: ('A' for Active; 'I' for Inactive)
REMARK    1  A    between atoms: C10_11  and  N17_7 
REMARK    2  A    between atoms: N17_7  and  C24_8 
REMARK    3  A    between atoms: C24_8  and  C63_13 
REMARK    4  A    between atoms: C63_13  and  C64_28 
REMARK    5  A    between atoms: N40_26  and  C37_23 
REMARK    6  A    between atoms: C41_27  and  N40_26 
REMARK    7  A    between atoms: C72_36  and  C41_27 
REMARK    8  A    between atoms: C64_28  and  C65_29 
REMARK    9  A    between atoms: C65_29  and  C66_30 
REMARK   10  A    between atoms: C66_30  and  C67_31 
REMARK   11  A    between atoms: C67_31  and  C68_32 
REMARK   12  A    between atoms: C68_32  and  C69_33 
REMARK   13  A    between atoms: C69_33  and  C70_34 
REMARK   14  A    between atoms: C70_34  and  C71_35 
REMARK   15  A    between atoms: C71_35  and  C72_36 
ROOT
ATOM      1  C67 E12 d           4.448  62.775  70.384  0.00  0.00    -0.065 C 
ATOM      2  H37 E12 d           4.645  62.282  69.421  0.00  0.00     0.033 H 
ATOM      3  H38 E12 d           3.363  62.887  70.524  0.00  0.00     0.033 H 
ENDROOT
BRANCH   1   4
ATOM      4  C66 E12 d           5.075  64.151  70.357  0.00  0.00    -0.065 C 
ATOM      5  H35 E12 d           4.908  64.643  71.327  0.00  0.00     0.033 H 
ATOM      6  H36 E12 d           6.156  64.052  70.178  0.00  0.00     0.033 H 
BRANCH   4   7
ATOM      7  C65 E12 d           4.468  64.994  69.264  0.00  0.00    -0.065 C 
ATOM      8  H33 E12 d           5.197  65.759  68.956  0.00  0.00     0.033 H 
ATOM      9  H34 E12 d           4.230  64.348  68.407  0.00  0.00     0.033 H 
BRANCH   7  10
ATOM     10  C64 E12 d           3.194  65.687  69.726  0.00  0.00    -0.064 C 
ATOM     11  H31 E12 d           2.325  65.201  69.258  0.00  0.00     0.033 H 
ATOM     12  H32 E12 d           3.113  65.607  70.820  0.00  0.00     0.033 H 
BRANCH  10  13
ATOM     13  C63 E12 d           3.221  67.145  69.334  0.00  0.00    -0.043 C 
ATOM     14  H15 E12 d           2.787  67.745  70.148  0.00  0.00     0.035 H 
ATOM     15  H16 E12 d           4.263  67.453  69.167  0.00  0.00     0.035 H 
BRANCH  13  16
ATOM     16  C24 E12 d           2.412  67.386  68.046  0.00  0.00     0.083 C 
ATOM     17  H7  E12 d           1.766  66.523  67.826  0.00  0.00     0.075 H 
ATOM     18  H8  E12 d           1.795  68.292  68.139  0.00  0.00     0.075 H 
BRANCH  16  19
ATOM     19  N17 E12 d           3.471  67.564  66.947  0.00  0.00    -0.067 N 
ATOM     20  H5  E12 d           3.853  68.489  67.066  0.00  0.00     0.277 HD
ATOM     21  H6  E12 d           4.188  66.879  67.129  0.00  0.00     0.277 HD
BRANCH  19  22
ATOM     22  C10 E12 d           3.118  67.433  65.485  0.00  0.00     0.129 C 
ATOM     23  C4  E12 d           3.635  66.089  64.929  0.00  0.00    -0.005 A 
ATOM     24  C3  E12 d           4.498  66.033  63.850  0.00  0.00     0.020 A 
ATOM     25  C5  E12 d           3.139  64.793  65.477  0.00  0.00    -0.068 A 
ATOM     26  N2  E12 d           4.898  64.820  63.362  0.00  0.00    -0.327 N 
ATOM     27  C9  E12 d           5.052  67.278  63.147  0.00  0.00    -0.026 C 
ATOM     28  C1  E12 d           4.512  63.565  63.802  0.00  0.00     0.245 A 
ATOM     29  H1  E12 d           5.545  64.842  62.600  0.00  0.00     0.169 HD
ATOM     30  C6  E12 d           3.545  63.582  64.964  0.00  0.00    -0.017 A 
ATOM     31  O7  E12 d           4.980  62.533  63.281  0.00  0.00    -0.268 OA
ATOM     32  H9  E12 d           3.176  62.650  65.390  0.00  0.00     0.092 H 
ATOM     33  C14 E12 d           5.036  68.499  64.086  0.00  0.00    -0.058 C 
ATOM     34  H10 E12 d           4.435  67.497  62.263  0.00  0.00     0.042 H 
ATOM     35  H11 E12 d           6.087  67.082  62.832  0.00  0.00     0.042 H 
ATOM     36  C13 E12 d           3.619  68.687  64.718  0.00  0.00    -0.034 C 
ATOM     37  H3  E12 d           5.773  68.348  64.888  0.00  0.00     0.033 H 
ATOM     38  H4  E12 d           5.299  69.400  63.512  0.00  0.00     0.033 H 
ATOM     39  H13 E12 d           3.659  69.534  65.420  0.00  0.00     0.036 H 
ATOM     40  H14 E12 d           2.905  68.912  63.913  0.00  0.00     0.036 H 
ATOM     41  H2  E12 d           2.435  64.805  66.308  0.00  0.00     0.084 H 
ATOM     42  H12 E12 d           2.021  67.417  65.399  0.00  0.00     0.092 H 
ENDBRANCH  19  22
ENDBRANCH  16  19
ENDBRANCH  13  16
ENDBRANCH  10  13
ENDBRANCH   7  10
ENDBRANCH   4   7
ENDBRANCH   1   4
BRANCH   1  43
ATOM     43  C68 E12 d           4.990  61.899  71.494  0.00  0.00    -0.065 C 
ATOM     44  H39 E12 d           4.335  62.004  72.371  0.00  0.00     0.033 H 
ATOM     45  H40 E12 d           6.003  62.245  71.749  0.00  0.00     0.033 H 
BRANCH  43  46
ATOM     46  C69 E12 d           5.064  60.428  71.122  0.00  0.00    -0.065 C 
ATOM     47  H41 E12 d           4.657  59.826  71.948  0.00  0.00     0.033 H 
ATOM     48  H42 E12 d           6.114  60.151  70.950  0.00  0.00     0.033 H 
BRANCH  46  49
ATOM     49  C70 E12 d           4.263  60.149  69.862  0.00  0.00    -0.065 C 
ATOM     50  H43 E12 d           4.962  59.848  69.067  0.00  0.00     0.033 H 
ATOM     51  H44 E12 d           3.747  61.075  69.566  0.00  0.00     0.033 H 
BRANCH  49  52
ATOM     52  C71 E12 d           3.219  59.049  70.025  0.00  0.00    -0.064 C 
ATOM     53  H45 E12 d           3.097  58.537  69.059  0.00  0.00     0.033 H 
ATOM     54  H46 E12 d           2.265  59.513  70.318  0.00  0.00     0.033 H 
BRANCH  52  55
ATOM     55  C72 E12 d           3.599  58.001  71.089  0.00  0.00    -0.043 C 
ATOM     56  H47 E12 d           4.425  58.401  71.695  0.00  0.00     0.035 H 
ATOM     57  H48 E12 d           3.930  57.086  70.575  0.00  0.00     0.035 H 
BRANCH  55  58
ATOM     58  C41 E12 d           2.438  57.641  72.024  0.00  0.00     0.083 C 
ATOM     59  H29 E12 d           2.732  56.822  72.696  0.00  0.00     0.075 H 
ATOM     60  H30 E12 d           1.558  57.338  71.438  0.00  0.00     0.075 H 
BRANCH  58  61
ATOM     61  N40 E12 d           2.137  58.865  72.808  0.00  0.00    -0.067 N 
ATOM     62  H27 E12 d           2.673  59.615  72.401  0.00  0.00     0.277 HD
ATOM     63  H28 E12 d           2.454  58.697  73.750  0.00  0.00     0.277 HD
BRANCH  61  64
ATOM     64  C37 E12 d           0.703  59.350  72.904  0.00  0.00     0.129 C 
ATOM     65  C38 E12 d           0.072  58.688  74.147  0.00  0.00    -0.034 C 
ATOM     66  C39 E12 d          -1.322  59.264  74.423  0.00  0.00    -0.058 C 
ATOM     67  H23 E12 d           0.717  58.870  75.019  0.00  0.00     0.036 H 
ATOM     68  H24 E12 d          -0.015  57.605  73.974  0.00  0.00     0.036 H 
ATOM     69  C36 E12 d          -1.222  60.768  74.739  0.00  0.00    -0.026 C 
ATOM     70  H25 E12 d          -1.957  59.120  73.537  0.00  0.00     0.033 H 
ATOM     71  H26 E12 d          -1.767  58.741  75.282  0.00  0.00     0.033 H 
ATOM     72  C31 E12 d          -0.386  61.502  73.669  0.00  0.00     0.020 A 
ATOM     73  H20 E12 d          -2.233  61.199  74.763  0.00  0.00     0.042 H 
ATOM     74  H21 E12 d          -0.744  60.899  75.721  0.00  0.00     0.042 H 
ATOM     75  C32 E12 d           0.524  60.864  72.827  0.00  0.00    -0.005 A 
ATOM     76  N30 E12 d          -0.558  62.851  73.559  0.00  0.00    -0.327 N 
ATOM     77  C33 E12 d           1.270  61.688  71.844  0.00  0.00    -0.068 A 
ATOM     78  C34 E12 d           1.085  63.034  71.746  0.00  0.00    -0.017 A 
ATOM     79  H18 E12 d           1.985  61.202  71.181  0.00  0.00     0.084 H 
ATOM     80  C29 E12 d           0.076  63.701  72.658  0.00  0.00     0.245 A 
ATOM     81  H19 E12 d           1.653  63.621  71.025  0.00  0.00     0.092 H 
ATOM     82  O35 E12 d          -0.259  64.891  72.584  0.00  0.00    -0.268 OA
ATOM     83  H17 E12 d          -1.207  63.273  74.192  0.00  0.00     0.169 HD
ATOM     84  H22 E12 d           0.174  58.950  72.027  0.00  0.00     0.092 H 
ENDBRANCH  61  64
ENDBRANCH  58  61
ENDBRANCH  55  58
ENDBRANCH  52  55
ENDBRANCH  49  52
ENDBRANCH  46  49
ENDBRANCH  43  46
ENDBRANCH   1  43
TORSDOF 15
ENDMDL
MODEL 4
REMARK VINA RESULT:     -10.2      1.594      9.263
REMARK  15 active torsions:
REMARK  status: ('A' for Active; 'I' for Inactive)
REMARK    1  A    between atoms: C10_11  and  N17_7 
REMARK    2  A    between atoms: N17_7  and  C24_8 
REMARK    3  A    between atoms: C24_8  and  C63_13 
REMARK    4  A    between atoms: C63_13  and  C64_28 
REMARK    5  A    between atoms: N40_26  and  C37_23 
REMARK    6  A    between atoms: C41_27  and  N40_26 
REMARK    7  A    between atoms: C72_36  and  C41_27 
REMARK    8  A    between atoms: C64_28  and  C65_29 
REMARK    9  A    between atoms: C65_29  and  C66_30 
REMARK   10  A    between atoms: C66_30  and  C67_31 
REMARK   11  A    between atoms: C67_31  and  C68_32 
REMARK   12  A    between atoms: C68_32  and  C69_33 
REMARK   13  A    between atoms: C69_33  and  C70_34 
REMARK   14  A    between atoms: C70_34  and  C71_35 
REMARK   15  A    between atoms: C71_35  and  C72_36 
ROOT
ATOM      1  C67 E12 d           0.512  64.785  71.027  0.00  0.00    -0.065 C 
ATOM      2  H37 E12 d           0.131  65.104  72.008  0.00  0.00     0.033 H 
ATOM      3  H38 E12 d           1.611  64.817  71.031  0.00  0.00     0.033 H 
ENDROOT
BRANCH   1   4
ATOM      4  C66 E12 d           0.006  65.748  69.977  0.00  0.00    -0.065 C 
ATOM      5  H35 E12 d          -0.276  65.184  69.075  0.00  0.00     0.033 H 
ATOM      6  H36 E12 d          -0.875  66.278  70.368  0.00  0.00     0.033 H 
BRANCH   4   7
ATOM      7  C65 E12 d           1.069  66.755  69.618  0.00  0.00    -0.065 C 
ATOM      8  H33 E12 d           0.964  67.023  68.556  0.00  0.00     0.033 H 
ATOM      9  H34 E12 d           0.933  67.654  70.238  0.00  0.00     0.033 H 
BRANCH   7  10
ATOM     10  C64 E12 d           2.470  66.206  69.850  0.00  0.00    -0.064 C 
ATOM     11  H31 E12 d           2.838  66.550  70.828  0.00  0.00     0.033 H 
ATOM     12  H32 E12 d           2.435  65.107  69.838  0.00  0.00     0.033 H 
BRANCH  10  13
ATOM     13  C63 E12 d           3.405  66.687  68.766  0.00  0.00    -0.043 C 
ATOM     14  H15 E12 d           4.231  67.249  69.227  0.00  0.00     0.035 H 
ATOM     15  H16 E12 d           3.810  65.817  68.228  0.00  0.00     0.035 H 
BRANCH  13  16
ATOM     16  C24 E12 d           2.671  67.600  67.767  0.00  0.00     0.083 C 
ATOM     17  H7  E12 d           1.744  67.123  67.415  0.00  0.00     0.075 H 
ATOM     18  H8  E12 d           2.432  68.569  68.230  0.00  0.00     0.075 H 
BRANCH  16  19
ATOM     19  N17 E12 d           3.660  67.784  66.606  0.00  0.00    -0.067 N 
ATOM     20  H5  E12 d           3.990  68.735  66.660  0.00  0.00     0.277 HD
ATOM     21  H6  E12 d           4.426  67.152  66.782  0.00  0.00     0.277 HD
BRANCH  19  22
ATOM     22  C10 E12 d           3.243  67.559  65.173  0.00  0.00     0.129 C 
ATOM     23  C4  E12 d           3.721  66.174  64.689  0.00  0.00    -0.005 A 
ATOM     24  C3  E12 d           4.536  66.034  63.580  0.00  0.00     0.020 A 
ATOM     25  C5  E12 d           3.236  64.925  65.344  0.00  0.00    -0.068 A 
ATOM     26  N2  E12 d           4.902  64.786  63.159  0.00  0.00    -0.327 N 
ATOM     27  C9  E12 d           5.071  67.222  62.770  0.00  0.00    -0.026 C 
ATOM     28  C1  E12 d           4.523  63.568  63.699  0.00  0.00     0.245 A 
ATOM     29  H1  E12 d           5.515  64.748  62.370  0.00  0.00     0.169 HD
ATOM     30  C6  E12 d           3.608  63.677  64.898  0.00  0.00    -0.017 A 
ATOM     31  O7  E12 d           4.958  62.497  63.231  0.00  0.00    -0.268 OA
ATOM     32  H9  E12 d           3.248  62.780  65.401  0.00  0.00     0.092 H 
ATOM     33  C14 E12 d           5.108  68.503  63.623  0.00  0.00    -0.058 C 
ATOM     34  H10 E12 d           4.418  67.388  61.901  0.00  0.00     0.042 H 
ATOM     35  H11 E12 d           6.089  66.991  62.425  0.00  0.00     0.042 H 
ATOM     36  C13 E12 d           3.722  68.752  64.301  0.00  0.00    -0.034 C 
ATOM     37  H3  E12 d           5.878  68.397  64.402  0.00  0.00     0.033 H 
ATOM     38  H4  E12 d           5.355  69.360  62.979  0.00  0.00     0.033 H 
ATOM     39  H13 E12 d           3.801  69.643  64.941  0.00  0.00     0.036 H 
ATOM     40  H14 E12 d           2.975  68.931  63.514  0.00  0.00     0.036 H 
ATOM     41  H2  E12 d           2.570  65.002  66.202  0.00  0.00     0.084 H 
ATOM     42  H12 E12 d           2.143  67.552  65.135  0.00  0.00     0.092 H 
ENDBRANCH  19  22
ENDBRANCH  16  19
ENDBRANCH  13  16
ENDBRANCH  10  13
ENDBRANCH   7  10
ENDBRANCH   4   7
ENDBRANCH   1   4
BRANCH   1  43
ATOM     43  C68 E12 d           0.073  63.356  70.781  0.00  0.00    -0.065 C 
ATOM     44  H39 E12 d           0.566  62.993  69.868  0.00  0.00     0.033 H 
ATOM     45  H40 E12 d          -1.018  63.347  70.638  0.00  0.00     0.033 H 
BRANCH  43  46
ATOM     46  C69 E12 d           0.417  62.413  71.922  0.00  0.00    -0.065 C 
ATOM     47  H41 E12 d           1.288  61.805  71.637  0.00  0.00     0.033 H 
ATOM     48  H42 E12 d          -0.442  61.754  72.116  0.00  0.00     0.033 H 
BRANCH  46  49
ATOM     49  C70 E12 d           0.744  63.190  73.185  0.00  0.00    -0.065 C 
ATOM     50  H43 E12 d          -0.187  63.634  73.569  0.00  0.00     0.033 H 
ATOM     51  H44 E12 d           1.453  63.991  72.926  0.00  0.00     0.033 H 
BRANCH  49  52
ATOM     52  C71 E12 d           1.363  62.340  74.290  0.00  0.00    -0.064 C 
ATOM     53  H45 E12 d           0.948  62.665  75.255  0.00  0.00     0.033 H 
ATOM     54  H46 E12 d           2.451  62.499  74.286  0.00  0.00     0.033 H 
BRANCH  52  55
ATOM     55  C72 E12 d           1.090  60.832  74.124  0.00  0.00    -0.043 C 
ATOM     56  H47 E12 d           0.967  60.615  73.053  0.00  0.00     0.035 H 
ATOM     57  H48 E12 d           0.160  60.585  74.657  0.00  0.00     0.035 H 
BRANCH  55  58
ATOM     58  C41 E12 d           2.216  59.950  74.674  0.00  0.00     0.083 C 
ATOM     59  H29 E12 d           2.064  58.905  74.370  0.00  0.00     0.075 H 
ATOM     60  H30 E12 d           2.246  60.012  75.772  0.00  0.00     0.075 H 
BRANCH  58  61
ATOM     61  N40 E12 d           3.480  60.474  74.097  0.00  0.00    -0.067 N 
ATOM     62  H27 E12 d           4.206  60.299  74.772  0.00  0.00     0.277 HD
ATOM     63  H28 E12 d           3.360  61.468  73.980  0.00  0.00     0.277 HD
BRANCH  61  64
ATOM     64  C37 E12 d           3.970  59.929  72.769  0.00  0.00     0.129 C 
ATOM     65  C38 E12 d           3.392  58.507  72.610  0.00  0.00    -0.034 C 
ATOM     66  C39 E12 d           3.688  57.951  71.212  0.00  0.00    -0.058 C 
ATOM     67  H23 E12 d           2.302  58.541  72.760  0.00  0.00     0.036 H 
ATOM     68  H24 E12 d           3.846  57.846  73.364  0.00  0.00     0.036 H 
ATOM     69  C36 E12 d           3.004  58.818  70.139  0.00  0.00    -0.026 C 
ATOM     70  H25 E12 d           4.775  57.954  71.043  0.00  0.00     0.033 H 
ATOM     71  H26 E12 d           3.309  56.920  71.143  0.00  0.00     0.033 H 
ATOM     72  C31 E12 d           3.320  60.313  70.354  0.00  0.00     0.020 A 
ATOM     73  H20 E12 d           3.364  58.513  69.146  0.00  0.00     0.042 H 
ATOM     74  H21 E12 d           1.916  58.669  70.196  0.00  0.00     0.042 H 
ATOM     75  C32 E12 d           3.747  60.846  71.570  0.00  0.00    -0.005 A 
ATOM     76  N30 E12 d           3.163  61.145  69.285  0.00  0.00    -0.327 N 
ATOM     77  C33 E12 d           4.012  62.305  71.644  0.00  0.00    -0.068 A 
ATOM     78  C34 E12 d           3.852  63.121  70.565  0.00  0.00    -0.017 A 
ATOM     79  H18 E12 d           4.345  62.734  72.588  0.00  0.00     0.084 H 
ATOM     80  C29 E12 d           3.406  62.514  69.250  0.00  0.00     0.245 A 
ATOM     81  H19 E12 d           4.040  64.191  70.647  0.00  0.00     0.092 H 
ATOM     82  O35 E12 d           3.336  63.133  68.180  0.00  0.00    -0.268 OA
ATOM     83  H17 E12 d           2.839  60.727  68.436  0.00  0.00     0.169 HD
ATOM     84  H22 E12 d           5.061  59.821  72.855  0.00  0.00     0.092 H 
ENDBRANCH  61  64
ENDBRANCH  58  61
ENDBRANCH  55  58
ENDBRANCH  52  55
ENDBRANCH  49  52
ENDBRANCH  46  49
ENDBRANCH  43  46
ENDBRANCH   1  43
TORSDOF 15
ENDMDL
MODEL 5
REMARK VINA RESULT:     -10.2      1.849      9.598
REMARK  15 active torsions:
REMARK  status: ('A' for Active; 'I' for Inactive)
REMARK    1  A    between atoms: C10_11  and  N17_7 
REMARK    2  A    between atoms: N17_7  and  C24_8 
REMARK    3  A    between atoms: C24_8  and  C63_13 
REMARK    4  A    between atoms: C63_13  and  C64_28 
REMARK    5  A    between atoms: N40_26  and  C37_23 
REMARK    6  A    between atoms: C41_27  and  N40_26 
REMARK    7  A    between atoms: C72_36  and  C41_27 
REMARK    8  A    between atoms: C64_28  and  C65_29 
REMARK    9  A    between atoms: C65_29  and  C66_30 
REMARK   10  A    between atoms: C66_30  and  C67_31 
REMARK   11  A    between atoms: C67_31  and  C68_32 
REMARK   12  A    between atoms: C68_32  and  C69_33 
REMARK   13  A    between atoms: C69_33  and  C70_34 
REMARK   14  A    between atoms: C70_34  and  C71_35 
REMARK   15  A    between atoms: C71_35  and  C72_36 
ROOT
ATOM      1  C67 E12 d           1.767  65.539  70.261  0.00  0.00    -0.065 C 
ATOM      2  H37 E12 d           1.910  64.582  69.737  0.00  0.00     0.033 H 
ATOM      3  H38 E12 d           1.716  65.360  71.345  0.00  0.00     0.033 H 
ENDROOT
BRANCH   1   4
ATOM      4  C66 E12 d           0.456  66.144  69.811  0.00  0.00    -0.065 C 
ATOM      5  H35 E12 d          -0.119  65.389  69.255  0.00  0.00     0.033 H 
ATOM      6  H36 E12 d          -0.115  66.464  70.694  0.00  0.00     0.033 H 
BRANCH   4   7
ATOM      7  C65 E12 d           0.697  67.337  68.919  0.00  0.00    -0.065 C 
ATOM      8  H33 E12 d           0.114  68.190  69.300  0.00  0.00     0.033 H 
ATOM      9  H34 E12 d           1.768  67.586  68.939  0.00  0.00     0.033 H 
BRANCH   7  10
ATOM     10  C64 E12 d           0.282  67.060  67.481  0.00  0.00    -0.064 C 
ATOM     11  H31 E12 d           0.569  66.033  67.211  0.00  0.00     0.033 H 
ATOM     12  H32 E12 d          -0.808  67.172  67.390  0.00  0.00     0.033 H 
BRANCH  10  13
ATOM     13  C63 E12 d           0.962  68.031  66.546  0.00  0.00    -0.043 C 
ATOM     14  H15 E12 d           1.174  67.524  65.593  0.00  0.00     0.035 H 
ATOM     15  H16 E12 d           0.293  68.885  66.365  0.00  0.00     0.035 H 
BRANCH  13  16
ATOM     16  C24 E12 d           2.284  68.545  67.147  0.00  0.00     0.083 C 
ATOM     17  H7  E12 d           2.292  69.644  67.182  0.00  0.00     0.075 H 
ATOM     18  H8  E12 d           2.430  68.144  68.161  0.00  0.00     0.075 H 
BRANCH  16  19
ATOM     19  N17 E12 d           3.374  68.025  66.197  0.00  0.00    -0.067 N 
ATOM     20  H5  E12 d           4.081  68.741  66.156  0.00  0.00     0.277 HD
ATOM     21  H6  E12 d           3.757  67.198  66.629  0.00  0.00     0.277 HD
BRANCH  19  22
ATOM     22  C10 E12 d           3.061  67.654  64.767  0.00  0.00     0.129 C 
ATOM     23  C4  E12 d           3.584  66.235  64.458  0.00  0.00    -0.005 A 
ATOM     24  C3  E12 d           4.477  65.999  63.428  0.00  0.00     0.020 A 
ATOM     25  C5  E12 d           3.066  65.049  65.199  0.00  0.00    -0.068 A 
ATOM     26  N2  E12 d           4.883  64.722  63.160  0.00  0.00    -0.327 N 
ATOM     27  C9  E12 d           5.058  67.110  62.544  0.00  0.00    -0.026 C 
ATOM     28  C1  E12 d           4.478  63.558  63.791  0.00  0.00     0.245 A 
ATOM     29  H1  E12 d           5.551  64.616  62.423  0.00  0.00     0.169 HD
ATOM     30  C6  E12 d           3.479  63.769  64.906  0.00  0.00    -0.017 A 
ATOM     31  O7  E12 d           4.954  62.453  63.462  0.00  0.00    -0.268 OA
ATOM     32  H9  E12 d           3.093  62.921  65.470  0.00  0.00     0.092 H 
ATOM     33  C14 E12 d           5.023  68.470  63.266  0.00  0.00    -0.058 C 
ATOM     34  H10 E12 d           4.467  67.179  61.619  0.00  0.00     0.042 H 
ATOM     35  H11 E12 d           6.100  66.863  62.295  0.00  0.00     0.042 H 
ATOM     36  C13 E12 d           3.590  68.762  63.817  0.00  0.00    -0.034 C 
ATOM     37  H3  E12 d           5.737  68.453  64.103  0.00  0.00     0.033 H 
ATOM     38  H4  E12 d           5.307  69.262  62.558  0.00  0.00     0.033 H 
ATOM     39  H13 E12 d           3.616  69.713  64.370  0.00  0.00     0.036 H 
ATOM     40  H14 E12 d           2.900  68.851  62.966  0.00  0.00     0.036 H 
ATOM     41  H2  E12 d           2.339  65.200  65.996  0.00  0.00     0.084 H 
ATOM     42  H12 E12 d           1.966  67.625  64.654  0.00  0.00     0.092 H 
ENDBRANCH  19  22
ENDBRANCH  16  19
ENDBRANCH  13  16
ENDBRANCH  10  13
ENDBRANCH   7  10
ENDBRANCH   4   7
ENDBRANCH   1   4
BRANCH   1  43
ATOM     43  C68 E12 d           2.959  66.427  69.974  0.00  0.00    -0.065 C 
ATOM     44  H39 E12 d           3.196  66.997  70.885  0.00  0.00     0.033 H 
ATOM     45  H40 E12 d           2.689  67.123  69.166  0.00  0.00     0.033 H 
BRANCH  43  46
ATOM     46  C69 E12 d           4.200  65.658  69.552  0.00  0.00    -0.065 C 
ATOM     47  H41 E12 d           4.682  65.232  70.444  0.00  0.00     0.033 H 
ATOM     48  H42 E12 d           4.898  66.345  69.052  0.00  0.00     0.033 H 
BRANCH  46  49
ATOM     49  C70 E12 d           3.838  64.534  68.596  0.00  0.00    -0.065 C 
ATOM     50  H43 E12 d           4.538  64.563  67.747  0.00  0.00     0.033 H 
ATOM     51  H44 E12 d           2.813  64.703  68.234  0.00  0.00     0.033 H 
BRANCH  49  52
ATOM     52  C71 E12 d           3.903  63.145  69.225  0.00  0.00    -0.064 C 
ATOM     53  H45 E12 d           4.456  62.480  68.545  0.00  0.00     0.033 H 
ATOM     54  H46 E12 d           2.876  62.770  69.350  0.00  0.00     0.033 H 
BRANCH  52  55
ATOM     55  C72 E12 d           4.600  63.130  70.599  0.00  0.00    -0.043 C 
ATOM     56  H47 E12 d           4.036  63.779  71.284  0.00  0.00     0.035 H 
ATOM     57  H48 E12 d           5.620  63.524  70.478  0.00  0.00     0.035 H 
BRANCH  55  58
ATOM     58  C41 E12 d           4.688  61.729  71.216  0.00  0.00     0.083 C 
ATOM     59  H29 E12 d           4.133  61.696  72.164  0.00  0.00     0.075 H 
ATOM     60  H30 E12 d           5.739  61.460  71.396  0.00  0.00     0.075 H 
BRANCH  58  61
ATOM     61  N40 E12 d           4.081  60.799  70.232  0.00  0.00    -0.067 N 
ATOM     62  H27 E12 d           4.829  60.238  69.856  0.00  0.00     0.277 HD
ATOM     63  H28 E12 d           3.683  61.364  69.499  0.00  0.00     0.277 HD
BRANCH  61  64
ATOM     64  C37 E12 d           2.997  59.841  70.688  0.00  0.00     0.129 C 
ATOM     65  C38 E12 d           3.686  58.693  71.456  0.00  0.00    -0.034 C 
ATOM     66  C39 E12 d           2.648  57.774  72.111  0.00  0.00    -0.058 C 
ATOM     67  H23 E12 d           4.333  59.120  72.238  0.00  0.00     0.036 H 
ATOM     68  H24 E12 d           4.297  58.105  70.755  0.00  0.00     0.036 H 
ATOM     69  C36 E12 d           1.826  58.557  73.151  0.00  0.00    -0.026 C 
ATOM     70  H25 E12 d           1.974  57.379  71.337  0.00  0.00     0.033 H 
ATOM     71  H26 E12 d           3.164  56.940  72.609  0.00  0.00     0.033 H 
ATOM     72  C31 E12 d           1.283  59.871  72.549  0.00  0.00     0.020 A 
ATOM     73  H20 E12 d           0.980  57.937  73.482  0.00  0.00     0.042 H 
ATOM     74  H21 E12 d           2.466  58.794  74.013  0.00  0.00     0.042 H 
ATOM     75  C32 E12 d           1.827  60.488  71.424  0.00  0.00    -0.005 A 
ATOM     76  N30 E12 d           0.214  60.448  73.170  0.00  0.00    -0.327 N 
ATOM     77  C33 E12 d           1.213  61.754  70.950  0.00  0.00    -0.068 A 
ATOM     78  C34 E12 d           0.145  62.316  71.581  0.00  0.00    -0.017 A 
ATOM     79  H18 E12 d           1.630  62.248  70.073  0.00  0.00     0.084 H 
ATOM     80  C29 E12 d          -0.441  61.615  72.790  0.00  0.00     0.245 A 
ATOM     81  H19 E12 d          -0.281  63.253  71.223  0.00  0.00     0.092 H 
ATOM     82  O35 E12 d          -1.475  61.967  73.373  0.00  0.00    -0.268 OA
ATOM     83  H17 E12 d          -0.136  59.983  73.983  0.00  0.00     0.169 HD
ATOM     84  H22 E12 d           2.562  59.400  69.780  0.00  0.00     0.092 H 
ENDBRANCH  61  64
ENDBRANCH  58  61
ENDBRANCH  55  58
ENDBRANCH  52  55
ENDBRANCH  49  52
ENDBRANCH  46  49
ENDBRANCH  43  46
ENDBRANCH   1  43
TORSDOF 15
ENDMDL
MODEL 6
REMARK VINA RESULT:     -10.0      2.108     10.253
REMARK  15 active torsions:
REMARK  status: ('A' for Active; 'I' for Inactive)
REMARK    1  A    between atoms: C10_11  and  N17_7 
REMARK    2  A    between atoms: N17_7  and  C24_8 
REMARK    3  A    between atoms: C24_8  and  C63_13 
REMARK    4  A    between atoms: C63_13  and  C64_28 
REMARK    5  A    between atoms: N40_26  and  C37_23 
REMARK    6  A    between atoms: C41_27  and  N40_26 
REMARK    7  A    between atoms: C72_36  and  C41_27 
REMARK    8  A    between atoms: C64_28  and  C65_29 
REMARK    9  A    between atoms: C65_29  and  C66_30 
REMARK   10  A    between atoms: C66_30  and  C67_31 
REMARK   11  A    between atoms: C67_31  and  C68_32 
REMARK   12  A    between atoms: C68_32  and  C69_33 
REMARK   13  A    between atoms: C69_33  and  C70_34 
REMARK   14  A    between atoms: C70_34  and  C71_35 
REMARK   15  A    between atoms: C71_35  and  C72_36 
ROOT
ATOM      1  C67 E12 d           3.377  63.604  69.178  0.00  0.00    -0.065 C 
ATOM      2  H37 E12 d           3.478  63.982  68.150  0.00  0.00     0.033 H 
ATOM      3  H38 E12 d           2.525  64.096  69.668  0.00  0.00     0.033 H 
ENDROOT
BRANCH   1   4
ATOM      4  C66 E12 d           4.636  63.947  69.943  0.00  0.00    -0.065 C 
ATOM      5  H35 E12 d           4.367  64.239  70.969  0.00  0.00     0.033 H 
ATOM      6  H36 E12 d           5.291  63.064  69.974  0.00  0.00     0.033 H 
BRANCH   4   7
ATOM      7  C65 E12 d           5.370  65.085  69.281  0.00  0.00    -0.065 C 
ATOM      8  H33 E12 d           5.507  65.895  70.013  0.00  0.00     0.033 H 
ATOM      9  H34 E12 d           6.354  64.726  68.943  0.00  0.00     0.033 H 
BRANCH   7  10
ATOM     10  C64 E12 d           4.607  65.630  68.082  0.00  0.00    -0.064 C 
ATOM     11  H31 E12 d           3.861  64.888  67.758  0.00  0.00     0.033 H 
ATOM     12  H32 E12 d           4.096  66.560  68.369  0.00  0.00     0.033 H 
BRANCH  10  13
ATOM     13  C63 E12 d           5.556  65.913  66.943  0.00  0.00    -0.043 C 
ATOM     14  H15 E12 d           6.163  66.796  67.192  0.00  0.00     0.035 H 
ATOM     15  H16 E12 d           6.215  65.044  66.799  0.00  0.00     0.035 H 
BRANCH  13  16
ATOM     16  C24 E12 d           4.787  66.184  65.636  0.00  0.00     0.083 C 
ATOM     17  H7  E12 d           5.007  65.406  64.889  0.00  0.00     0.075 H 
ATOM     18  H8  E12 d           3.703  66.217  65.823  0.00  0.00     0.075 H 
BRANCH  16  19
ATOM     19  N17 E12 d           5.297  67.553  65.159  0.00  0.00    -0.067 N 
ATOM     20  H5  E12 d           5.814  67.948  65.928  0.00  0.00     0.277 HD
ATOM     21  H6  E12 d           5.923  67.371  64.391  0.00  0.00     0.277 HD
BRANCH  19  22
ATOM     22  C10 E12 d           4.345  68.626  64.689  0.00  0.00     0.129 C 
ATOM     23  C4  E12 d           2.910  68.313  65.165  0.00  0.00    -0.005 A 
ATOM     24  C3  E12 d           1.861  68.185  64.273  0.00  0.00     0.020 A 
ATOM     25  C5  E12 d           2.587  68.237  66.619  0.00  0.00    -0.068 A 
ATOM     26  N2  E12 d           0.598  67.950  64.740  0.00  0.00    -0.327 N 
ATOM     27  C9  E12 d           2.028  68.291  62.752  0.00  0.00    -0.026 C 
ATOM     28  C1  E12 d           0.191  67.848  66.060  0.00  0.00     0.245 A 
ATOM     29  H1  E12 d          -0.115  67.838  64.048  0.00  0.00     0.169 HD
ATOM     30  C6  E12 d           1.305  68.010  67.069  0.00  0.00    -0.017 A 
ATOM     31  O7  E12 d          -0.997  67.600  66.346  0.00  0.00    -0.268 OA
ATOM     32  H9  E12 d           1.097  67.949  68.137  0.00  0.00     0.092 H 
ATOM     33  C14 E12 d           3.472  67.964  62.328  0.00  0.00    -0.058 C 
ATOM     34  H10 E12 d           1.784  69.315  62.435  0.00  0.00     0.042 H 
ATOM     35  H11 E12 d           1.342  67.583  62.266  0.00  0.00     0.042 H 
ATOM     36  C13 E12 d           4.492  68.812  63.154  0.00  0.00    -0.034 C 
ATOM     37  H3  E12 d           3.666  66.895  62.501  0.00  0.00     0.033 H 
ATOM     38  H4  E12 d           3.595  68.190  61.259  0.00  0.00     0.033 H 
ATOM     39  H13 E12 d           5.511  68.516  62.862  0.00  0.00     0.036 H 
ATOM     40  H14 E12 d           4.338  69.875  62.915  0.00  0.00     0.036 H 
ATOM     41  H2  E12 d           3.387  68.364  67.347  0.00  0.00     0.084 H 
ATOM     42  H12 E12 d           4.641  69.575  65.161  0.00  0.00     0.092 H 
ENDBRANCH  19  22
ENDBRANCH  16  19
ENDBRANCH  13  16
ENDBRANCH  10  13
ENDBRANCH   7  10
ENDBRANCH   4   7
ENDBRANCH   1   4
BRANCH   1  43
ATOM     43  C68 E12 d           3.106  62.115  69.120  0.00  0.00    -0.065 C 
ATOM     44  H39 E12 d           3.987  61.586  69.511  0.00  0.00     0.033 H 
ATOM     45  H40 E12 d           2.943  61.831  68.070  0.00  0.00     0.033 H 
BRANCH  43  46
ATOM     46  C69 E12 d           1.892  61.689  69.927  0.00  0.00    -0.065 C 
ATOM     47  H41 E12 d           2.193  60.922  70.656  0.00  0.00     0.033 H 
ATOM     48  H42 E12 d           1.135  61.271  69.248  0.00  0.00     0.033 H 
BRANCH  46  49
ATOM     49  C70 E12 d           1.294  62.872  70.668  0.00  0.00    -0.065 C 
ATOM     50  H43 E12 d           1.330  63.750  70.006  0.00  0.00     0.033 H 
ATOM     51  H44 E12 d           1.903  63.064  71.565  0.00  0.00     0.033 H 
BRANCH  49  52
ATOM     52  C71 E12 d          -0.152  62.659  71.106  0.00  0.00    -0.064 C 
ATOM     53  H45 E12 d          -0.722  62.268  70.250  0.00  0.00     0.033 H 
ATOM     54  H46 E12 d          -0.571  63.629  71.413  0.00  0.00     0.033 H 
BRANCH  52  55
ATOM     55  C72 E12 d          -0.294  61.673  72.281  0.00  0.00    -0.043 C 
ATOM     56  H47 E12 d          -0.122  60.654  71.904  0.00  0.00     0.035 H 
ATOM     57  H48 E12 d          -1.317  61.748  72.679  0.00  0.00     0.035 H 
BRANCH  55  58
ATOM     58  C41 E12 d           0.693  61.944  73.421  0.00  0.00     0.083 C 
ATOM     59  H29 E12 d           0.429  62.878  73.938  0.00  0.00     0.075 H 
ATOM     60  H30 E12 d           1.717  62.020  73.027  0.00  0.00     0.075 H 
BRANCH  58  61
ATOM     61  N40 E12 d           0.585  60.794  74.353  0.00  0.00    -0.067 N 
ATOM     62  H27 E12 d          -0.374  60.485  74.328  0.00  0.00     0.277 HD
ATOM     63  H28 E12 d           0.804  61.139  75.274  0.00  0.00     0.277 HD
BRANCH  61  64
ATOM     64  C37 E12 d           1.450  59.569  74.123  0.00  0.00     0.129 C 
ATOM     65  C38 E12 d           0.514  58.407  73.729  0.00  0.00    -0.034 C 
ATOM     66  C39 E12 d           1.322  57.177  73.301  0.00  0.00    -0.058 C 
ATOM     67  H23 E12 d          -0.126  58.727  72.893  0.00  0.00     0.036 H 
ATOM     68  H24 E12 d          -0.115  58.142  74.592  0.00  0.00     0.036 H 
ATOM     69  C36 E12 d           2.159  57.501  72.049  0.00  0.00    -0.026 C 
ATOM     70  H25 E12 d           1.994  56.880  74.120  0.00  0.00     0.033 H 
ATOM     71  H26 E12 d           0.633  56.351  73.073  0.00  0.00     0.033 H 
ATOM     72  C31 E12 d           2.963  58.804  72.244  0.00  0.00     0.020 A 
ATOM     73  H20 E12 d           2.857  56.673  71.858  0.00  0.00     0.042 H 
ATOM     74  H21 E12 d           1.487  57.619  71.186  0.00  0.00     0.042 H 
ATOM     75  C32 E12 d           2.635  59.780  73.184  0.00  0.00    -0.005 A 
ATOM     76  N30 E12 d           4.048  58.996  71.440  0.00  0.00    -0.327 N 
ATOM     77  C33 E12 d           3.489  60.992  73.266  0.00  0.00    -0.068 A 
ATOM     78  C34 E12 d           4.570  61.167  72.456  0.00  0.00    -0.017 A 
ATOM     79  H18 E12 d           3.243  61.763  73.995  0.00  0.00     0.084 H 
ATOM     80  C29 E12 d           4.916  60.082  71.456  0.00  0.00     0.245 A 
ATOM     81  H19 E12 d           5.175  62.070  72.525  0.00  0.00     0.092 H 
ATOM     82  O35 E12 d           5.934  60.077  70.751  0.00  0.00    -0.268 OA
ATOM     83  H17 E12 d           4.238  58.280  70.767  0.00  0.00     0.169 HD
ATOM     84  H22 E12 d           1.893  59.307  75.095  0.00  0.00     0.092 H 
ENDBRANCH  61  64
ENDBRANCH  58  61
ENDBRANCH  55  58
ENDBRANCH  52  55
ENDBRANCH  49  52
ENDBRANCH  46  49
ENDBRANCH  43  46
ENDBRANCH   1  43
TORSDOF 15
ENDMDL
MODEL 7
REMARK VINA RESULT:      -9.5      2.257      4.659
REMARK  15 active torsions:
REMARK  status: ('A' for Active; 'I' for Inactive)
REMARK    1  A    between atoms: C10_11  and  N17_7 
REMARK    2  A    between atoms: N17_7  and  C24_8 
REMARK    3  A    between atoms: C24_8  and  C63_13 
REMARK    4  A    between atoms: C63_13  and  C64_28 
REMARK    5  A    between atoms: N40_26  and  C37_23 
REMARK    6  A    between atoms: C41_27  and  N40_26 
REMARK    7  A    between atoms: C72_36  and  C41_27 
REMARK    8  A    between atoms: C64_28  and  C65_29 
REMARK    9  A    between atoms: C65_29  and  C66_30 
REMARK   10  A    between atoms: C66_30  and  C67_31 
REMARK   11  A    between atoms: C67_31  and  C68_32 
REMARK   12  A    between atoms: C68_32  and  C69_33 
REMARK   13  A    between atoms: C69_33  and  C70_34 
REMARK   14  A    between atoms: C70_34  and  C71_35 
REMARK   15  A    between atoms: C71_35  and  C72_36 
ROOT
ATOM      1  C67 E12 d           1.282  67.839  67.852  0.00  0.00    -0.065 C 
ATOM      2  H37 E12 d           0.345  68.372  68.075  0.00  0.00     0.033 H 
ATOM      3  H38 E12 d           1.109  66.754  67.910  0.00  0.00     0.033 H 
ENDROOT
BRANCH   1   4
ATOM      4  C66 E12 d           2.312  68.219  68.891  0.00  0.00    -0.065 C 
ATOM      5  H35 E12 d           3.260  68.460  68.388  0.00  0.00     0.033 H 
ATOM      6  H36 E12 d           1.957  69.100  69.446  0.00  0.00     0.033 H 
BRANCH   4   7
ATOM      7  C65 E12 d           2.540  67.084  69.858  0.00  0.00    -0.065 C 
ATOM      8  H33 E12 d           3.271  67.403  70.616  0.00  0.00     0.033 H 
ATOM      9  H34 E12 d           1.587  66.837  70.348  0.00  0.00     0.033 H 
BRANCH   7  10
ATOM     10  C64 E12 d           3.069  65.841  69.156  0.00  0.00    -0.064 C 
ATOM     11  H31 E12 d           2.447  64.976  69.430  0.00  0.00     0.033 H 
ATOM     12  H32 E12 d           3.027  65.993  68.068  0.00  0.00     0.033 H 
BRANCH  10  13
ATOM     13  C63 E12 d           4.498  65.578  69.568  0.00  0.00    -0.043 C 
ATOM     14  H15 E12 d           5.127  65.522  68.668  0.00  0.00     0.035 H 
ATOM     15  H16 E12 d           4.845  66.402  70.208  0.00  0.00     0.035 H 
BRANCH  13  16
ATOM     16  C24 E12 d           4.614  64.254  70.346  0.00  0.00     0.083 C 
ATOM     17  H7  E12 d           5.669  63.957  70.450  0.00  0.00     0.075 H 
ATOM     18  H8  E12 d           4.160  64.349  71.344  0.00  0.00     0.075 H 
BRANCH  16  19
ATOM     19  N17 E12 d           3.845  63.232  69.495  0.00  0.00    -0.067 N 
ATOM     20  H5  E12 d           3.129  63.748  69.008  0.00  0.00     0.277 HD
ATOM     21  H6  E12 d           4.504  62.861  68.829  0.00  0.00     0.277 HD
BRANCH  19  22
ATOM     22  C10 E12 d           3.159  62.042  70.123  0.00  0.00     0.129 C 
ATOM     23  C4  E12 d           2.201  62.508  71.241  0.00  0.00    -0.005 A 
ATOM     24  C3  E12 d           2.323  62.047  72.540  0.00  0.00     0.020 A 
ATOM     25  C5  E12 d           1.044  63.399  70.936  0.00  0.00    -0.068 A 
ATOM     26  N2  E12 d           1.428  62.451  73.490  0.00  0.00    -0.327 N 
ATOM     27  C9  E12 d           3.429  61.087  72.994  0.00  0.00    -0.026 C 
ATOM     28  C1  E12 d           0.332  63.282  73.319  0.00  0.00     0.245 A 
ATOM     29  H1  E12 d           1.583  62.109  74.417  0.00  0.00     0.169 HD
ATOM     30  C6  E12 d           0.147  63.785  71.906  0.00  0.00    -0.017 A 
ATOM     31  O7  E12 d          -0.390  63.595  74.286  0.00  0.00    -0.268 OA
ATOM     32  H9  E12 d          -0.683  64.445  71.659  0.00  0.00     0.092 H 
ATOM     33  C14 E12 d           4.655  61.172  72.067  0.00  0.00    -0.058 C 
ATOM     34  H10 E12 d           3.039  60.058  72.980  0.00  0.00     0.042 H 
ATOM     35  H11 E12 d           3.734  61.349  74.017  0.00  0.00     0.042 H 
ATOM     36  C13 E12 d           4.226  61.008  70.573  0.00  0.00    -0.034 C 
ATOM     37  H3  E12 d           5.140  62.151  72.198  0.00  0.00     0.033 H 
ATOM     38  H4  E12 d           5.364  60.374  72.330  0.00  0.00     0.033 H 
ATOM     39  H13 E12 d           5.117  61.126  69.938  0.00  0.00     0.036 H 
ATOM     40  H14 E12 d           3.812  59.998  70.437  0.00  0.00     0.036 H 
ATOM     41  H2  E12 d           0.905  63.754  69.916  0.00  0.00     0.084 H 
ATOM     42  H12 E12 d           2.542  61.558  69.352  0.00  0.00     0.092 H 
ENDBRANCH  19  22
ENDBRANCH  16  19
ENDBRANCH  13  16
ENDBRANCH  10  13
ENDBRANCH   7  10
ENDBRANCH   4   7
ENDBRANCH   1   4
BRANCH   1  43
ATOM     43  C68 E12 d           1.708  68.184  66.441  0.00  0.00    -0.065 C 
ATOM     44  H39 E12 d           2.577  67.564  66.178  0.00  0.00     0.033 H 
ATOM     45  H40 E12 d           1.993  69.247  66.413  0.00  0.00     0.033 H 
BRANCH  43  46
ATOM     46  C69 E12 d           0.620  67.951  65.405  0.00  0.00    -0.065 C 
ATOM     47  H41 E12 d           0.068  68.889  65.244  0.00  0.00     0.033 H 
ATOM     48  H42 E12 d          -0.070  67.179  65.775  0.00  0.00     0.033 H 
BRANCH  46  49
ATOM     49  C70 E12 d           1.220  67.493  64.087  0.00  0.00    -0.065 C 
ATOM     50  H43 E12 d           0.488  66.847  63.580  0.00  0.00     0.033 H 
ATOM     51  H44 E12 d           2.133  66.917  64.302  0.00  0.00     0.033 H 
BRANCH  49  52
ATOM     52  C71 E12 d           1.585  68.637  63.145  0.00  0.00    -0.064 C 
ATOM     53  H45 E12 d           2.530  69.083  63.488  0.00  0.00     0.033 H 
ATOM     54  H46 E12 d           0.786  69.393  63.187  0.00  0.00     0.033 H 
BRANCH  52  55
ATOM     55  C72 E12 d           1.757  68.190  61.681  0.00  0.00    -0.043 C 
ATOM     56  H47 E12 d           0.947  68.630  61.083  0.00  0.00     0.035 H 
ATOM     57  H48 E12 d           1.688  67.093  61.641  0.00  0.00     0.035 H 
BRANCH  55  58
ATOM     58  C41 E12 d           3.099  68.616  61.073  0.00  0.00     0.083 C 
ATOM     59  H29 E12 d           3.474  69.519  61.576  0.00  0.00     0.075 H 
ATOM     60  H30 E12 d           2.982  68.816  59.998  0.00  0.00     0.075 H 
BRANCH  58  61
ATOM     61  N40 E12 d           4.035  67.484  61.286  0.00  0.00    -0.067 N 
ATOM     62  H27 E12 d           4.643  67.450  60.484  0.00  0.00     0.277 HD
ATOM     63  H28 E12 d           3.478  66.645  61.322  0.00  0.00     0.277 HD
BRANCH  61  64
ATOM     64  C37 E12 d           4.923  67.478  62.515  0.00  0.00     0.129 C 
ATOM     65  C38 E12 d           5.032  68.933  63.016  0.00  0.00    -0.034 C 
ATOM     66  C39 E12 d           5.764  68.994  64.362  0.00  0.00    -0.058 C 
ATOM     67  H23 E12 d           4.020  69.349  63.137  0.00  0.00     0.036 H 
ATOM     68  H24 E12 d           5.588  69.529  62.277  0.00  0.00     0.036 H 
ATOM     69  C36 E12 d           4.969  68.225  65.434  0.00  0.00    -0.026 C 
ATOM     70  H25 E12 d           6.760  68.540  64.254  0.00  0.00     0.033 H 
ATOM     71  H26 E12 d           5.870  70.044  64.671  0.00  0.00     0.033 H 
ATOM     72  C31 E12 d           4.588  66.816  64.934  0.00  0.00     0.020 A 
ATOM     73  H20 E12 d           5.585  68.131  66.340  0.00  0.00     0.042 H 
ATOM     74  H21 E12 d           4.052  68.784  65.671  0.00  0.00     0.042 H 
ATOM     75  C32 E12 d           4.541  66.461  63.587  0.00  0.00    -0.005 A 
ATOM     76  N30 E12 d           4.277  65.881  65.877  0.00  0.00    -0.327 N 
ATOM     77  C33 E12 d           4.152  65.071  63.239  0.00  0.00    -0.068 A 
ATOM     78  C34 E12 d           3.847  64.148  64.194  0.00  0.00    -0.017 A 
ATOM     79  H18 E12 d           4.110  64.780  62.190  0.00  0.00     0.084 H 
ATOM     80  C29 E12 d           3.925  64.554  65.652  0.00  0.00     0.245 A 
ATOM     81  H19 E12 d           3.552  63.138  63.915  0.00  0.00     0.092 H 
ATOM     82  O35 E12 d           3.782  63.777  66.605  0.00  0.00    -0.268 OA
ATOM     83  H17 E12 d           4.306  66.181  66.831  0.00  0.00     0.169 HD
ATOM     84  H22 E12 d           5.927  67.181  62.178  0.00  0.00     0.092 H 
ENDBRANCH  61  64
ENDBRANCH  58  61
ENDBRANCH  55  58
ENDBRANCH  52  55
ENDBRANCH  49  52
ENDBRANCH  46  49
ENDBRANCH  43  46
ENDBRANCH   1  43
TORSDOF 15
ENDMDL
MODEL 8
REMARK VINA RESULT:      -9.5      2.406      4.831
REMARK  15 active torsions:
REMARK  status: ('A' for Active; 'I' for Inactive)
REMARK    1  A    between atoms: C10_11  and  N17_7 
REMARK    2  A    between atoms: N17_7  and  C24_8 
REMARK    3  A    between atoms: C24_8  and  C63_13 
REMARK    4  A    between atoms: C63_13  and  C64_28 
REMARK    5  A    between atoms: N40_26  and  C37_23 
REMARK    6  A    between atoms: C41_27  and  N40_26 
REMARK    7  A    between atoms: C72_36  and  C41_27 
REMARK    8  A    between atoms: C64_28  and  C65_29 
REMARK    9  A    between atoms: C65_29  and  C66_30 
REMARK   10  A    between atoms: C66_30  and  C67_31 
REMARK   11  A    between atoms: C67_31  and  C68_32 
REMARK   12  A    between atoms: C68_32  and  C69_33 
REMARK   13  A    between atoms: C69_33  and  C70_34 
REMARK   14  A    between atoms: C70_34  and  C71_35 
REMARK   15  A    between atoms: C71_35  and  C72_36 
ROOT
ATOM      1  C67 E12 d           0.601  67.096  65.496  0.00  0.00    -0.065 C 
ATOM      2  H37 E12 d          -0.284  66.680  64.993  0.00  0.00     0.033 H 
ATOM      3  H38 E12 d           1.373  66.317  65.582  0.00  0.00     0.033 H 
ENDROOT
BRANCH   1   4
ATOM      4  C66 E12 d           0.203  67.535  66.888  0.00  0.00    -0.065 C 
ATOM      5  H35 E12 d           0.846  67.030  67.624  0.00  0.00     0.033 H 
ATOM      6  H36 E12 d           0.333  68.623  66.973  0.00  0.00     0.033 H 
BRANCH   4   7
ATOM      7  C65 E12 d          -1.237  67.185  67.167  0.00  0.00    -0.065 C 
ATOM      8  H33 E12 d          -1.837  68.108  67.152  0.00  0.00     0.033 H 
ATOM      9  H34 E12 d          -1.596  66.502  66.383  0.00  0.00     0.033 H 
BRANCH   7  10
ATOM     10  C64 E12 d          -1.404  66.512  68.521  0.00  0.00    -0.064 C 
ATOM     11  H31 E12 d          -2.078  67.115  69.147  0.00  0.00     0.033 H 
ATOM     12  H32 E12 d          -1.835  65.510  68.378  0.00  0.00     0.033 H 
BRANCH  10  13
ATOM     13  C63 E12 d          -0.065  66.385  69.209  0.00  0.00    -0.043 C 
ATOM     14  H15 E12 d           0.638  65.872  68.536  0.00  0.00     0.035 H 
ATOM     15  H16 E12 d           0.316  67.390  69.441  0.00  0.00     0.035 H 
BRANCH  13  16
ATOM     16  C24 E12 d          -0.189  65.580  70.516  0.00  0.00     0.083 C 
ATOM     17  H7  E12 d           0.137  66.184  71.375  0.00  0.00     0.075 H 
ATOM     18  H8  E12 d          -1.228  65.251  70.672  0.00  0.00     0.075 H 
BRANCH  16  19
ATOM     19  N17 E12 d           0.738  64.370  70.320  0.00  0.00    -0.067 N 
ATOM     20  H5  E12 d           0.220  63.700  69.773  0.00  0.00     0.277 HD
ATOM     21  H6  E12 d           1.528  64.700  69.787  0.00  0.00     0.277 HD
BRANCH  19  22
ATOM     22  C10 E12 d           1.303  63.612  71.497  0.00  0.00     0.129 C 
ATOM     23  C4  E12 d           1.999  62.321  71.015  0.00  0.00    -0.005 A 
ATOM     24  C3  E12 d           1.621  61.075  71.482  0.00  0.00     0.020 A 
ATOM     25  C5  E12 d           3.176  62.382  70.101  0.00  0.00    -0.068 A 
ATOM     26  N2  E12 d           2.291  59.961  71.063  0.00  0.00    -0.327 N 
ATOM     27  C9  E12 d           0.465  60.858  72.467  0.00  0.00    -0.026 C 
ATOM     28  C1  E12 d           3.382  59.902  70.210  0.00  0.00     0.245 A 
ATOM     29  H1  E12 d           1.955  59.086  71.412  0.00  0.00     0.169 HD
ATOM     30  C6  E12 d           3.844  61.248  69.699  0.00  0.00    -0.017 A 
ATOM     31  O7  E12 d           3.882  58.807  69.886  0.00  0.00    -0.268 OA
ATOM     32  H9  E12 d           4.695  61.318  69.022  0.00  0.00     0.092 H 
ATOM     33  C14 E12 d          -0.545  62.019  72.403  0.00  0.00    -0.058 C 
ATOM     34  H10 E12 d           0.870  60.790  73.487  0.00  0.00     0.042 H 
ATOM     35  H11 E12 d          -0.050  59.921  72.213  0.00  0.00     0.042 H 
ATOM     36  C13 E12 d           0.187  63.392  72.554  0.00  0.00    -0.034 C 
ATOM     37  H3  E12 d          -1.066  61.992  71.435  0.00  0.00     0.033 H 
ATOM     38  H4  E12 d          -1.276  61.907  73.216  0.00  0.00     0.033 H 
ATOM     39  H13 E12 d          -0.555  64.197  72.452  0.00  0.00     0.036 H 
ATOM     40  H14 E12 d           0.641  63.438  73.555  0.00  0.00     0.036 H 
ATOM     41  H2  E12 d           3.515  63.351  69.739  0.00  0.00     0.084 H 
ATOM     42  H12 E12 d           2.076  64.239  71.967  0.00  0.00     0.092 H 
ENDBRANCH  19  22
ENDBRANCH  16  19
ENDBRANCH  13  16
ENDBRANCH  10  13
ENDBRANCH   7  10
ENDBRANCH   4   7
ENDBRANCH   1   4
BRANCH   1  43
ATOM     43  C68 E12 d           1.149  68.227  64.652  0.00  0.00    -0.065 C 
ATOM     44  H39 E12 d           2.227  68.064  64.508  0.00  0.00     0.033 H 
ATOM     45  H40 E12 d           0.989  69.173  65.190  0.00  0.00     0.033 H 
BRANCH  43  46
ATOM     46  C69 E12 d           0.493  68.335  63.285  0.00  0.00    -0.065 C 
ATOM     47  H41 E12 d          -0.216  69.176  63.291  0.00  0.00     0.033 H 
ATOM     48  H42 E12 d          -0.047  67.401  63.070  0.00  0.00     0.033 H 
BRANCH  46  49
ATOM     49  C70 E12 d           1.534  68.568  62.204  0.00  0.00    -0.065 C 
ATOM     50  H43 E12 d           1.327  69.537  61.727  0.00  0.00     0.033 H 
ATOM     51  H44 E12 d           1.444  67.764  61.457  0.00  0.00     0.033 H 
BRANCH  49  52
ATOM     52  C71 E12 d           2.969  68.583  62.723  0.00  0.00    -0.064 C 
ATOM     53  H45 E12 d           2.944  68.715  63.815  0.00  0.00     0.033 H 
ATOM     54  H46 E12 d           3.497  69.432  62.263  0.00  0.00     0.033 H 
BRANCH  52  55
ATOM     55  C72 E12 d           3.747  67.293  62.403  0.00  0.00    -0.043 C 
ATOM     56  H47 E12 d           3.650  67.082  61.329  0.00  0.00     0.035 H 
ATOM     57  H48 E12 d           3.304  66.467  62.980  0.00  0.00     0.035 H 
BRANCH  55  58
ATOM     58  C41 E12 d           5.238  67.384  62.749  0.00  0.00     0.083 C 
ATOM     59  H29 E12 d           5.472  68.377  63.159  0.00  0.00     0.075 H 
ATOM     60  H30 E12 d           5.847  67.204  61.852  0.00  0.00     0.075 H 
BRANCH  58  61
ATOM     61  N40 E12 d           5.498  66.335  63.766  0.00  0.00    -0.067 N 
ATOM     62  H27 E12 d           5.982  66.779  64.530  0.00  0.00     0.277 HD
ATOM     63  H28 E12 d           6.102  65.652  63.336  0.00  0.00     0.277 HD
BRANCH  61  64
ATOM     64  C37 E12 d           4.329  65.577  64.365  0.00  0.00     0.129 C 
ATOM     65  C38 E12 d           4.511  64.086  64.009  0.00  0.00    -0.034 C 
ATOM     66  C39 E12 d           3.471  63.222  64.731  0.00  0.00    -0.058 C 
ATOM     67  H23 E12 d           5.519  63.764  64.311  0.00  0.00     0.036 H 
ATOM     68  H24 E12 d           4.395  63.958  62.923  0.00  0.00     0.036 H 
ATOM     69  C36 E12 d           3.657  63.328  66.256  0.00  0.00    -0.026 C 
ATOM     70  H25 E12 d           2.462  63.569  64.463  0.00  0.00     0.033 H 
ATOM     71  H26 E12 d           3.592  62.174  64.422  0.00  0.00     0.033 H 
ATOM     72  C31 E12 d           3.737  64.804  66.701  0.00  0.00     0.020 A 
ATOM     73  H20 E12 d           2.805  62.847  66.757  0.00  0.00     0.042 H 
ATOM     74  H21 E12 d           4.587  62.815  66.541  0.00  0.00     0.042 H 
ATOM     75  C32 E12 d           4.068  65.853  65.843  0.00  0.00    -0.005 A 
ATOM     76  N30 E12 d           3.471  65.077  68.010  0.00  0.00    -0.327 N 
ATOM     77  C33 E12 d           4.115  67.228  66.400  0.00  0.00    -0.068 A 
ATOM     78  C34 E12 d           3.845  67.483  67.711  0.00  0.00    -0.017 A 
ATOM     79  H18 E12 d           4.374  68.056  65.742  0.00  0.00     0.084 H 
ATOM     80  C29 E12 d           3.469  66.329  68.617  0.00  0.00     0.245 A 
ATOM     81  H19 E12 d           3.899  68.499  68.101  0.00  0.00     0.092 H 
ATOM     82  O35 E12 d           3.093  66.452  69.791  0.00  0.00    -0.268 OA
ATOM     83  H17 E12 d           3.255  64.295  68.596  0.00  0.00     0.169 HD
ATOM     84  H22 E12 d           3.426  65.922  63.841  0.00  0.00     0.092 H 
ENDBRANCH  61  64
ENDBRANCH  58  61
ENDBRANCH  55  58
ENDBRANCH  52  55
ENDBRANCH  49  52
ENDBRANCH  46  49
ENDBRANCH  43  46
ENDBRANCH   1  43
TORSDOF 15
ENDMDL
MODEL 9
REMARK VINA RESULT:      -9.4      2.425      3.786
REMARK  15 active torsions:
REMARK  status: ('A' for Active; 'I' for Inactive)
REMARK    1  A    between atoms: C10_11  and  N17_7 
REMARK    2  A    between atoms: N17_7  and  C24_8 
REMARK    3  A    between atoms: C24_8  and  C63_13 
REMARK    4  A    between atoms: C63_13  and  C64_28 
REMARK    5  A    between atoms: N40_26  and  C37_23 
REMARK    6  A    between atoms: C41_27  and  N40_26 
REMARK    7  A    between atoms: C72_36  and  C41_27 
REMARK    8  A    between atoms: C64_28  and  C65_29 
REMARK    9  A    between atoms: C65_29  and  C66_30 
REMARK   10  A    between atoms: C66_30  and  C67_31 
REMARK   11  A    between atoms: C67_31  and  C68_32 
REMARK   12  A    between atoms: C68_32  and  C69_33 
REMARK   13  A    between atoms: C69_33  and  C70_34 
REMARK   14  A    between atoms: C70_34  and  C71_35 
REMARK   15  A    between atoms: C71_35  and  C72_36 
ROOT
ATOM      1  C67 E12 d           1.978  62.529  70.039  0.00  0.00    -0.065 C 
ATOM      2  H37 E12 d           1.304  62.201  69.234  0.00  0.00     0.033 H 
ATOM      3  H38 E12 d           2.034  61.748  70.811  0.00  0.00     0.033 H 
ENDROOT
BRANCH   1   4
ATOM      4  C66 E12 d           1.411  63.784  70.663  0.00  0.00    -0.065 C 
ATOM      5  H35 E12 d           2.231  64.488  70.868  0.00  0.00     0.033 H 
ATOM      6  H36 E12 d           0.699  64.245  69.962  0.00  0.00     0.033 H 
BRANCH   4   7
ATOM      7  C65 E12 d           0.698  63.464  71.953  0.00  0.00    -0.065 C 
ATOM      8  H33 E12 d           0.811  64.315  72.642  0.00  0.00     0.033 H 
ATOM      9  H34 E12 d          -0.369  63.303  71.740  0.00  0.00     0.033 H 
BRANCH   7  10
ATOM     10  C64 E12 d           1.262  62.216  72.616  0.00  0.00    -0.064 C 
ATOM     11  H31 E12 d           0.535  61.395  72.523  0.00  0.00     0.033 H 
ATOM     12  H32 E12 d           2.201  61.932  72.117  0.00  0.00     0.033 H 
BRANCH  10  13
ATOM     13  C63 E12 d           1.534  62.478  74.078  0.00  0.00    -0.043 C 
ATOM     14  H15 E12 d           2.607  62.681  74.213  0.00  0.00     0.035 H 
ATOM     15  H16 E12 d           0.952  63.354  74.400  0.00  0.00     0.035 H 
BRANCH  13  16
ATOM     16  C24 E12 d           1.138  61.265  74.941  0.00  0.00     0.083 C 
ATOM     17  H7  E12 d           0.509  61.581  75.786  0.00  0.00     0.075 H 
ATOM     18  H8  E12 d           0.597  60.521  74.338  0.00  0.00     0.075 H 
BRANCH  16  19
ATOM     19  N17 E12 d           2.472  60.690  75.442  0.00  0.00    -0.067 N 
ATOM     20  H5  E12 d           3.192  61.314  75.114  0.00  0.00     0.277 HD
ATOM     21  H6  E12 d           2.434  60.720  76.449  0.00  0.00     0.277 HD
BRANCH  19  22
ATOM     22  C10 E12 d           2.916  59.295  75.073  0.00  0.00     0.129 C 
ATOM     23  C4  E12 d           3.166  59.200  73.553  0.00  0.00    -0.005 A 
ATOM     24  C3  E12 d           2.500  58.279  72.764  0.00  0.00     0.020 A 
ATOM     25  C5  E12 d           4.212  60.035  72.895  0.00  0.00    -0.068 A 
ATOM     26  N2  E12 d           2.781  58.198  71.429  0.00  0.00    -0.327 N 
ATOM     27  C9  E12 d           1.435  57.317  73.306  0.00  0.00    -0.026 C 
ATOM     28  C1  E12 d           3.718  58.931  70.718  0.00  0.00     0.245 A 
ATOM     29  H1  E12 d           2.248  57.534  70.905  0.00  0.00     0.169 HD
ATOM     30  C6  E12 d           4.488  59.931  71.550  0.00  0.00    -0.017 A 
ATOM     31  O7  E12 d           3.852  58.775  69.488  0.00  0.00    -0.268 OA
ATOM     32  H9  E12 d           5.250  60.560  71.092  0.00  0.00     0.092 H 
ATOM     33  C14 E12 d           0.795  57.866  74.595  0.00  0.00    -0.058 C 
ATOM     34  H10 E12 d           1.906  56.347  73.524  0.00  0.00     0.042 H 
ATOM     35  H11 E12 d           0.653  57.182  72.546  0.00  0.00     0.042 H 
ATOM     36  C13 E12 d           1.897  58.264  75.629  0.00  0.00    -0.034 C 
ATOM     37  H3  E12 d           0.192  58.752  74.349  0.00  0.00     0.033 H 
ATOM     38  H4  E12 d           0.148  57.092  75.034  0.00  0.00     0.033 H 
ATOM     39  H13 E12 d           1.406  58.699  76.512  0.00  0.00     0.036 H 
ATOM     40  H14 E12 d           2.444  57.357  75.924  0.00  0.00     0.036 H 
ATOM     41  H2  E12 d           4.774  60.749  73.496  0.00  0.00     0.084 H 
ATOM     42  H12 E12 d           3.878  59.101  75.570  0.00  0.00     0.092 H 
ENDBRANCH  19  22
ENDBRANCH  16  19
ENDBRANCH  13  16
ENDBRANCH  10  13
ENDBRANCH   7  10
ENDBRANCH   4   7
ENDBRANCH   1   4
BRANCH   1  43
ATOM     43  C68 E12 d           3.362  62.730  69.456  0.00  0.00    -0.065 C 
ATOM     44  H39 E12 d           3.265  63.292  68.516  0.00  0.00     0.033 H 
ATOM     45  H40 E12 d           3.800  61.743  69.250  0.00  0.00     0.033 H 
BRANCH  43  46
ATOM     46  C69 E12 d           4.301  63.491  70.376  0.00  0.00    -0.065 C 
ATOM     47  H41 E12 d           5.092  62.812  70.727  0.00  0.00     0.033 H 
ATOM     48  H42 E12 d           3.734  63.868  71.239  0.00  0.00     0.033 H 
BRANCH  46  49
ATOM     49  C70 E12 d           4.937  64.663  69.649  0.00  0.00    -0.065 C 
ATOM     50  H43 E12 d           6.027  64.513  69.637  0.00  0.00     0.033 H 
ATOM     51  H44 E12 d           4.699  65.585  70.201  0.00  0.00     0.033 H 
BRANCH  49  52
ATOM     52  C71 E12 d           4.459  64.828  68.209  0.00  0.00    -0.064 C 
ATOM     53  H45 E12 d           3.536  64.244  68.079  0.00  0.00     0.033 H 
ATOM     54  H46 E12 d           5.237  64.440  67.535  0.00  0.00     0.033 H 
BRANCH  52  55
ATOM     55  C72 E12 d           4.169  66.292  67.828  0.00  0.00    -0.043 C 
ATOM     56  H47 E12 d           3.615  66.303  66.877  0.00  0.00     0.035 H 
ATOM     57  H48 E12 d           5.127  66.817  67.700  0.00  0.00     0.035 H 
BRANCH  55  58
ATOM     58  C41 E12 d           3.342  67.038  68.881  0.00  0.00     0.083 C 
ATOM     59  H29 E12 d           4.003  67.609  69.549  0.00  0.00     0.075 H 
ATOM     60  H30 E12 d           2.749  66.326  69.473  0.00  0.00     0.075 H 
BRANCH  58  61
ATOM     61  N40 E12 d           2.446  67.959  68.137  0.00  0.00    -0.067 N 
ATOM     62  H27 E12 d           3.001  68.386  67.412  0.00  0.00     0.277 HD
ATOM     63  H28 E12 d           2.143  68.665  68.789  0.00  0.00     0.277 HD
BRANCH  61  64
ATOM     64  C37 E12 d           1.201  67.405  67.472  0.00  0.00     0.129 C 
ATOM     65  C38 E12 d           0.009  67.690  68.410  0.00  0.00    -0.034 C 
ATOM     66  C39 E12 d          -1.318  67.327  67.733  0.00  0.00    -0.058 C 
ATOM     67  H23 E12 d           0.000  68.760  68.667  0.00  0.00     0.036 H 
ATOM     68  H24 E12 d           0.120  67.093  69.327  0.00  0.00     0.036 H 
ATOM     69  C36 E12 d          -1.533  68.200  66.483  0.00  0.00    -0.026 C 
ATOM     70  H25 E12 d          -1.296  66.267  67.436  0.00  0.00     0.033 H 
ATOM     71  H26 E12 d          -2.144  67.493  68.439  0.00  0.00     0.033 H 
ATOM     72  C31 E12 d          -0.284  68.184  65.576  0.00  0.00     0.020 A 
ATOM     73  H20 E12 d          -2.393  67.813  65.917  0.00  0.00     0.042 H 
ATOM     74  H21 E12 d          -1.737  69.234  66.796  0.00  0.00     0.042 H 
ATOM     75  C32 E12 d           0.991  67.840  66.024  0.00  0.00    -0.005 A 
ATOM     76  N30 E12 d          -0.455  68.534  64.269  0.00  0.00    -0.327 N 
ATOM     77  C33 E12 d           2.111  67.871  65.050  0.00  0.00    -0.068 A 
ATOM     78  C34 E12 d           1.921  68.221  63.747  0.00  0.00    -0.017 A 
ATOM     79  H18 E12 d           3.112  67.606  65.387  0.00  0.00     0.084 H 
ATOM     80  C29 E12 d           0.523  68.572  63.281  0.00  0.00     0.245 A 
ATOM     81  H19 E12 d           2.760  68.250  63.052  0.00  0.00     0.092 H 
ATOM     82  O35 E12 d           0.211  68.793  62.103  0.00  0.00    -0.268 OA
ATOM     83  H17 E12 d          -1.381  68.791  63.992  0.00  0.00     0.169 HD
ATOM     84  H22 E12 d           1.321  66.313  67.433  0.00  0.00     0.092 H 
ENDBRANCH  61  64
ENDBRANCH  58  61
ENDBRANCH  55  58
ENDBRANCH  52  55
ENDBRANCH  49  52
ENDBRANCH  46  49
ENDBRANCH  43  46
ENDBRANCH   1  43
TORSDOF 15
ENDMDL
MODEL 10
REMARK VINA RESULT:      -9.1      2.716      9.124
REMARK  15 active torsions:
REMARK  status: ('A' for Active; 'I' for Inactive)
REMARK    1  A    between atoms: C10_11  and  N17_7 
REMARK    2  A    between atoms: N17_7  and  C24_8 
REMARK    3  A    between atoms: C24_8  and  C63_13 
REMARK    4  A    between atoms: C63_13  and  C64_28 
REMARK    5  A    between atoms: N40_26  and  C37_23 
REMARK    6  A    between atoms: C41_27  and  N40_26 
REMARK    7  A    between atoms: C72_36  and  C41_27 
REMARK    8  A    between atoms: C64_28  and  C65_29 
REMARK    9  A    between atoms: C65_29  and  C66_30 
REMARK   10  A    between atoms: C66_30  and  C67_31 
REMARK   11  A    between atoms: C67_31  and  C68_32 
REMARK   12  A    between atoms: C68_32  and  C69_33 
REMARK   13  A    between atoms: C69_33  and  C70_34 
REMARK   14  A    between atoms: C70_34  and  C71_35 
REMARK   15  A    between atoms: C71_35  and  C72_36 
ROOT
ATOM      1  C67 E12 d           5.281  67.580  65.140  0.00  0.00    -0.065 C 
ATOM      2  H37 E12 d           4.348  67.924  65.611  0.00  0.00     0.033 H 
ATOM      3  H38 E12 d           6.139  68.065  65.628  0.00  0.00     0.033 H 
ENDROOT
BRANCH   1   4
ATOM      4  C66 E12 d           5.263  67.985  63.683  0.00  0.00    -0.065 C 
ATOM      5  H35 E12 d           6.174  68.558  63.456  0.00  0.00     0.033 H 
ATOM      6  H36 E12 d           5.234  67.081  63.058  0.00  0.00     0.033 H 
BRANCH   4   7
ATOM      7  C65 E12 d           4.055  68.835  63.380  0.00  0.00    -0.065 C 
ATOM      8  H33 E12 d           3.585  69.138  64.328  0.00  0.00     0.033 H 
ATOM      9  H34 E12 d           4.379  69.731  62.829  0.00  0.00     0.033 H 
BRANCH   7  10
ATOM     10  C64 E12 d           3.031  68.084  62.540  0.00  0.00    -0.064 C 
ATOM     11  H31 E12 d           3.076  68.447  61.502  0.00  0.00     0.033 H 
ATOM     12  H32 E12 d           3.261  67.009  62.563  0.00  0.00     0.033 H 
BRANCH  10  13
ATOM     13  C63 E12 d           1.642  68.309  63.087  0.00  0.00    -0.043 C 
ATOM     14  H15 E12 d           1.426  69.388  63.090  0.00  0.00     0.035 H 
ATOM     15  H16 E12 d           0.915  67.792  62.445  0.00  0.00     0.035 H 
BRANCH  13  16
ATOM     16  C24 E12 d           1.519  67.769  64.524  0.00  0.00     0.083 C 
ATOM     17  H7  E12 d           1.636  66.675  64.538  0.00  0.00     0.075 H 
ATOM     18  H8  E12 d           2.277  68.226  65.177  0.00  0.00     0.075 H 
BRANCH  16  19
ATOM     19  N17 E12 d           0.105  68.169  64.972  0.00  0.00    -0.067 N 
ATOM     20  H5  E12 d          -0.152  68.972  64.421  0.00  0.00     0.277 HD
ATOM     21  H6  E12 d          -0.497  67.394  64.740  0.00  0.00     0.277 HD
BRANCH  19  22
ATOM     22  C10 E12 d          -0.194  68.525  66.409  0.00  0.00     0.129 C 
ATOM     23  C4  E12 d           0.872  67.913  67.343  0.00  0.00    -0.005 A 
ATOM     24  C3  E12 d           0.529  67.058  68.375  0.00  0.00     0.020 A 
ATOM     25  C5  E12 d           2.307  68.304  67.226  0.00  0.00    -0.068 A 
ATOM     26  N2  E12 d           1.499  66.572  69.205  0.00  0.00    -0.327 N 
ATOM     27  C9  E12 d          -0.911  66.607  68.653  0.00  0.00    -0.026 C 
ATOM     28  C1  E12 d           2.854  66.857  69.178  0.00  0.00     0.245 A 
ATOM     29  H1  E12 d           1.195  65.936  69.915  0.00  0.00     0.169 HD
ATOM     30  C6  E12 d           3.268  67.812  68.080  0.00  0.00    -0.017 A 
ATOM     31  O7  E12 d           3.638  66.317  69.984  0.00  0.00    -0.268 OA
ATOM     32  H9  E12 d           4.310  68.105  67.967  0.00  0.00     0.092 H 
ATOM     33  C14 E12 d          -1.779  66.707  67.386  0.00  0.00    -0.058 C 
ATOM     34  H10 E12 d          -1.343  67.248  69.436  0.00  0.00     0.042 H 
ATOM     35  H11 E12 d          -0.899  65.564  68.999  0.00  0.00     0.042 H 
ATOM     36  C13 E12 d          -1.657  68.128  66.747  0.00  0.00    -0.034 C 
ATOM     37  H3  E12 d          -1.445  65.953  66.658  0.00  0.00     0.033 H 
ATOM     38  H4  E12 d          -2.830  66.519  67.652  0.00  0.00     0.033 H 
ATOM     39  H13 E12 d          -2.247  68.146  65.818  0.00  0.00     0.036 H 
ATOM     40  H14 E12 d          -2.064  68.865  67.454  0.00  0.00     0.036 H 
ATOM     41  H2  E12 d           2.604  68.999  66.442  0.00  0.00     0.084 H 
ATOM     42  H12 E12 d          -0.122  69.618  66.511  0.00  0.00     0.092 H 
ENDBRANCH  19  22
ENDBRANCH  16  19
ENDBRANCH  13  16
ENDBRANCH  10  13
ENDBRANCH   7  10
ENDBRANCH   4   7
ENDBRANCH   1   4
BRANCH   1  43
ATOM     43  C68 E12 d           5.397  66.083  65.338  0.00  0.00    -0.065 C 
ATOM     44  H39 E12 d           5.113  65.846  66.373  0.00  0.00     0.033 H 
ATOM     45  H40 E12 d           6.443  65.789  65.167  0.00  0.00     0.033 H 
BRANCH  43  46
ATOM     46  C69 E12 d           4.512  65.279  64.400  0.00  0.00    -0.065 C 
ATOM     47  H41 E12 d           5.135  64.570  63.835  0.00  0.00     0.033 H 
ATOM     48  H42 E12 d           4.010  65.963  63.701  0.00  0.00     0.033 H 
BRANCH  46  49
ATOM     49  C70 E12 d           3.462  64.506  65.180  0.00  0.00    -0.065 C 
ATOM     50  H43 E12 d           3.397  63.491  64.762  0.00  0.00     0.033 H 
ATOM     51  H44 E12 d           2.494  65.016  65.058  0.00  0.00     0.033 H 
BRANCH  49  52
ATOM     52  C71 E12 d           3.761  64.394  66.672  0.00  0.00    -0.064 C 
ATOM     53  H45 E12 d           3.140  65.127  67.209  0.00  0.00     0.033 H 
ATOM     54  H46 E12 d           4.824  64.625  66.834  0.00  0.00     0.033 H 
BRANCH  52  55
ATOM     55  C72 E12 d           3.471  62.995  67.248  0.00  0.00    -0.043 C 
ATOM     56  H47 E12 d           4.334  62.345  67.040  0.00  0.00     0.035 H 
ATOM     57  H48 E12 d           2.579  62.589  66.749  0.00  0.00     0.035 H 
BRANCH  55  58
ATOM     58  C41 E12 d           3.222  63.004  68.761  0.00  0.00     0.083 C 
ATOM     59  H29 E12 d           2.718  63.935  69.057  0.00  0.00     0.075 H 
ATOM     60  H30 E12 d           4.174  62.912  69.303  0.00  0.00     0.075 H 
BRANCH  58  61
ATOM     61  N40 E12 d           2.351  61.836  69.049  0.00  0.00    -0.067 N 
ATOM     62  H27 E12 d           2.362  61.252  68.228  0.00  0.00     0.277 HD
ATOM     63  H28 E12 d           1.421  62.192  69.197  0.00  0.00     0.277 HD
BRANCH  61  64
ATOM     64  C37 E12 d           2.677  60.943  70.231  0.00  0.00     0.129 C 
ATOM     65  C38 E12 d           4.163  60.546  70.117  0.00  0.00    -0.034 C 
ATOM     66  C39 E12 d           4.624  59.791  71.369  0.00  0.00    -0.058 C 
ATOM     67  H23 E12 d           4.772  61.455  70.000  0.00  0.00     0.036 H 
ATOM     68  H24 E12 d           4.298  59.899  69.237  0.00  0.00     0.036 H 
ATOM     69  C36 E12 d           4.513  60.700  72.608  0.00  0.00    -0.026 C 
ATOM     70  H25 E12 d           3.991  58.904  71.512  0.00  0.00     0.033 H 
ATOM     71  H26 E12 d           5.671  59.478  71.241  0.00  0.00     0.033 H 
ATOM     72  C31 E12 d           3.118  61.356  72.688  0.00  0.00     0.020 A 
ATOM     73  H20 E12 d           4.680  60.098  73.513  0.00  0.00     0.042 H 
ATOM     74  H21 E12 d           5.278  61.488  72.546  0.00  0.00     0.042 H 
ATOM     75  C32 E12 d           2.266  61.496  71.593  0.00  0.00    -0.005 A 
ATOM     76  N30 E12 d           2.716  61.824  73.904  0.00  0.00    -0.327 N 
ATOM     77  C33 E12 d           0.952  62.152  71.804  0.00  0.00    -0.068 A 
ATOM     78  C34 E12 d           0.565  62.612  73.027  0.00  0.00    -0.017 A 
ATOM     79  H18 E12 d           0.277  62.268  70.957  0.00  0.00     0.084 H 
ATOM     80  C29 E12 d           1.501  62.431  74.204  0.00  0.00     0.245 A 
ATOM     81  H19 E12 d          -0.399  63.102  73.155  0.00  0.00     0.092 H 
ATOM     82  O35 E12 d           1.214  62.704  75.378  0.00  0.00    -0.268 OA
ATOM     83  H17 E12 d           3.364  61.721  74.660  0.00  0.00     0.169 HD
ATOM     84  H22 E12 d           2.090  60.021  70.102  0.00  0.00     0.092 H 
ENDBRANCH  61  64
ENDBRANCH  58  61
ENDBRANCH  55  58
ENDBRANCH  52  55
ENDBRANCH  49  52
ENDBRANCH  46  49
ENDBRANCH  43  46
ENDBRANCH   1  43
TORSDOF 15
ENDMDL
