MODEL 1
REMARK VINA RESULT:      -5.7      0.000      0.000
REMARK  5 active torsions:
REMARK  status: ('A' for Active; 'I' for Inactive)
REMARK    1  A    between atoms: S1_9  and  N1_1 
REMARK    2  A    between atoms: C5_5  and  O3_15 
REMARK    3  A    between atoms: O3_15  and  C8_6 
REMARK    4  A    between atoms: C8_6  and  C9_16 
REMARK    5  A    between atoms: C1_10  and  S1_9 
ROOT
ATOM      1  C2  EZL d          -3.450   3.736  15.301  0.00  0.00     0.076 A 
ATOM      2  C3  EZL d          -4.658   4.392  15.064  0.00  0.00     0.039 A 
ATOM      3  C4  EZL d          -4.644   5.696  14.503  0.00  0.00    -0.032 A 
ATOM      4  C5  EZL d          -3.302   6.149  14.276  0.00  0.00     0.070 A 
ATOM      5  C1  EZL d          -4.947   2.230  15.966  0.00  0.00     0.214 A 
ATOM      6  N2  EZL d          -3.643   2.488  15.881  0.00  0.00    -0.227 NA
ATOM      7  S2  EZL d          -5.968   3.445  15.452  0.00  0.00    -0.054 SA
ATOM      8  C6  EZL d          -2.064   5.540  14.519  0.00  0.00    -0.049 A 
ATOM      9  C7  EZL d          -2.124   4.225  15.091  0.00  0.00    -0.051 A 
ATOM     10  H3  EZL d          -5.532   6.274  14.275  0.00  0.00     0.090 H 
ATOM     11  H6  EZL d          -1.124   6.029  14.289  0.00  0.00     0.087 H 
ATOM     12  H7  EZL d          -1.239   3.652  15.342  0.00  0.00     0.087 H 
ENDROOT
BRANCH   4  13
ATOM     13  O3  EZL d          -3.236   7.414  13.677  0.00  0.00    -0.351 OA
BRANCH  13  14
ATOM     14  C8  EZL d          -2.048   8.298  13.803  0.00  0.00     0.023 C 
ATOM     15  H4  EZL d          -2.058   9.037  12.987  0.00  0.00     0.074 H 
ATOM     16  H5  EZL d          -1.135   7.689  13.734  0.00  0.00     0.074 H 
BRANCH  14  17
ATOM     17  C9  EZL d          -2.064   9.035  15.151  0.00  0.00    -0.056 C 
ATOM     18  H8  EZL d          -1.594   8.404  15.919  0.00  0.00     0.030 H 
ATOM     19  H9  EZL d          -3.104   9.251  15.438  0.00  0.00     0.030 H 
ATOM     20  H10 EZL d          -1.506   9.978  15.060  0.00  0.00     0.030 H 
ENDBRANCH  14  17
ENDBRANCH  13  14
ENDBRANCH   4  13
BRANCH   5  21
ATOM     21  S1  EZL d          -5.595   0.698  16.627  0.00  0.00     0.281 S 
ATOM     22  O1  EZL d          -5.256   0.746  18.018  0.00  0.00    -0.199 OA
ATOM     23  O2  EZL d          -6.997   0.773  16.327  0.00  0.00    -0.199 OA
BRANCH  21  24
ATOM     24  N1  EZL d          -4.853  -0.467  15.872  0.00  0.00    -0.323 N 
ATOM     25  H1  EZL d          -5.268  -0.883  15.063  0.00  0.00     0.169 HD
ATOM     26  H2  EZL d          -3.966  -0.792  16.201  0.00  0.00     0.169 HD
ENDBRANCH  21  24
ENDBRANCH   5  21
TORSDOF 5
ENDMDL
MODEL 2
REMARK VINA RESULT:      -5.1      1.551      1.779
REMARK  5 active torsions:
REMARK  status: ('A' for Active; 'I' for Inactive)
REMARK    1  A    between atoms: S1_9  and  N1_1 
REMARK    2  A    between atoms: C5_5  and  O3_15 
REMARK    3  A    between atoms: O3_15  and  C8_6 
REMARK    4  A    between atoms: C8_6  and  C9_16 
REMARK    5  A    between atoms: C1_10  and  S1_9 
ROOT
ATOM      1  C2  EZL d          -2.616   4.684  13.957  0.00  0.00     0.076 A 
ATOM      2  C3  EZL d          -3.604   5.477  14.542  0.00  0.00     0.039 A 
ATOM      3  C4  EZL d          -3.541   6.887  14.399  0.00  0.00    -0.032 A 
ATOM      4  C5  EZL d          -2.389   7.281  13.640  0.00  0.00     0.070 A 
ATOM      5  C1  EZL d          -3.949   3.168  14.892  0.00  0.00     0.214 A 
ATOM      6  N2  EZL d          -2.810   3.334  14.221  0.00  0.00    -0.227 NA
ATOM      7  S2  EZL d          -4.772   4.563  15.293  0.00  0.00    -0.054 SA
ATOM      8  C6  EZL d          -1.362   6.529  13.056  0.00  0.00    -0.049 A 
ATOM      9  C7  EZL d          -1.462   5.108  13.229  0.00  0.00    -0.051 A 
ATOM     10  H3  EZL d          -4.269   7.578  14.809  0.00  0.00     0.090 H 
ATOM     11  H6  EZL d          -0.546   6.989  12.509  0.00  0.00     0.087 H 
ATOM     12  H7  EZL d          -0.724   4.415  12.841  0.00  0.00     0.087 H 
ENDROOT
BRANCH   4  13
ATOM     13  O3  EZL d          -2.309   8.665  13.429  0.00  0.00    -0.351 OA
BRANCH  13  14
ATOM     14  C8  EZL d          -1.168   9.483  13.917  0.00  0.00     0.023 C 
ATOM     15  H4  EZL d          -1.303  10.525  13.590  0.00  0.00     0.074 H 
ATOM     16  H5  EZL d          -0.232   9.086  13.499  0.00  0.00     0.074 H 
BRANCH  14  17
ATOM     17  C9  EZL d          -1.092   9.443  15.451  0.00  0.00    -0.056 C 
ATOM     18  H8  EZL d          -1.893  10.067  15.875  0.00  0.00     0.030 H 
ATOM     19  H9  EZL d          -0.115   9.826  15.781  0.00  0.00     0.030 H 
ATOM     20  H10 EZL d          -1.215   8.406  15.797  0.00  0.00     0.030 H 
ENDBRANCH  14  17
ENDBRANCH  13  14
ENDBRANCH   4  13
BRANCH   5  21
ATOM     21  S1  EZL d          -4.563   1.560  15.384  0.00  0.00     0.281 S 
ATOM     22  O1  EZL d          -3.694   1.166  16.452  0.00  0.00    -0.199 OA
ATOM     23  O2  EZL d          -5.924   1.824  15.757  0.00  0.00    -0.199 OA
BRANCH  21  24
ATOM     24  N1  EZL d          -4.427   0.623  14.127  0.00  0.00    -0.323 N 
ATOM     25  H1  EZL d          -3.860  -0.199  14.175  0.00  0.00     0.169 HD
ATOM     26  H2  EZL d          -4.909   0.849  13.280  0.00  0.00     0.169 HD
ENDBRANCH  21  24
ENDBRANCH   5  21
TORSDOF 5
ENDMDL
MODEL 3
REMARK VINA RESULT:      -5.0      1.736      2.006
REMARK  5 active torsions:
REMARK  status: ('A' for Active; 'I' for Inactive)
REMARK    1  A    between atoms: S1_9  and  N1_1 
REMARK    2  A    between atoms: C5_5  and  O3_15 
REMARK    3  A    between atoms: O3_15  and  C8_6 
REMARK    4  A    between atoms: C8_6  and  C9_16 
REMARK    5  A    between atoms: C1_10  and  S1_9 
ROOT
ATOM      1  C2  EZL d          -3.827   4.702  14.627  0.00  0.00     0.076 A 
ATOM      2  C3  EZL d          -4.169   4.397  13.309  0.00  0.00     0.039 A 
ATOM      3  C4  EZL d          -4.099   5.411  12.318  0.00  0.00    -0.032 A 
ATOM      4  C5  EZL d          -3.676   6.660  12.883  0.00  0.00     0.070 A 
ATOM      5  C1  EZL d          -4.333   2.539  14.755  0.00  0.00     0.214 A 
ATOM      6  N2  EZL d          -3.982   3.608  15.469  0.00  0.00    -0.227 NA
ATOM      7  S2  EZL d          -4.562   2.793  13.123  0.00  0.00    -0.054 SA
ATOM      8  C6  EZL d          -3.346   7.020  14.196  0.00  0.00    -0.049 A 
ATOM      9  C7  EZL d          -3.435   5.966  15.166  0.00  0.00    -0.051 A 
ATOM     10  H3  EZL d          -4.334   5.262  11.271  0.00  0.00     0.090 H 
ATOM     11  H6  EZL d          -3.044   8.026  14.463  0.00  0.00     0.087 H 
ATOM     12  H7  EZL d          -3.223   6.115  16.219  0.00  0.00     0.087 H 
ENDROOT
BRANCH   4  13
ATOM     13  O3  EZL d          -3.543   7.684  11.935  0.00  0.00    -0.351 OA
BRANCH  13  14
ATOM     14  C8  EZL d          -2.460   8.700  12.000  0.00  0.00     0.023 C 
ATOM     15  H4  EZL d          -2.441   9.144  13.006  0.00  0.00     0.074 H 
ATOM     16  H5  EZL d          -2.657   9.486  11.256  0.00  0.00     0.074 H 
BRANCH  14  17
ATOM     17  C9  EZL d          -1.097   8.055  11.706  0.00  0.00    -0.056 C 
ATOM     18  H8  EZL d          -0.369   8.374  12.466  0.00  0.00     0.030 H 
ATOM     19  H9  EZL d          -0.750   8.369  10.710  0.00  0.00     0.030 H 
ATOM     20  H10 EZL d          -1.196   6.960  11.731  0.00  0.00     0.030 H 
ENDBRANCH  14  17
ENDBRANCH  13  14
ENDBRANCH   4  13
BRANCH   5  21
ATOM     21  S1  EZL d          -4.591   0.925  15.484  0.00  0.00     0.281 S 
ATOM     22  O1  EZL d          -3.578   0.830  16.491  0.00  0.00    -0.199 OA
ATOM     23  O2  EZL d          -5.942   0.991  15.966  0.00  0.00    -0.199 OA
BRANCH  21  24
ATOM     24  N1  EZL d          -4.388  -0.128  14.330  0.00  0.00    -0.323 N 
ATOM     25  H1  EZL d          -3.864  -0.962  14.502  0.00  0.00     0.169 HD
ATOM     26  H2  EZL d          -4.782   0.039  13.426  0.00  0.00     0.169 HD
ENDBRANCH  21  24
ENDBRANCH   5  21
TORSDOF 5
ENDMDL
MODEL 4
REMARK VINA RESULT:      -4.6      3.102      6.504
REMARK  5 active torsions:
REMARK  status: ('A' for Active; 'I' for Inactive)
REMARK    1  A    between atoms: S1_9  and  N1_1 
REMARK    2  A    between atoms: C5_5  and  O3_15 
REMARK    3  A    between atoms: O3_15  and  C8_6 
REMARK    4  A    between atoms: C8_6  and  C9_16 
REMARK    5  A    between atoms: C1_10  and  S1_9 
ROOT
ATOM      1  C2  EZL d          -3.652   3.952  13.281  0.00  0.00     0.076 A 
ATOM      2  C3  EZL d          -4.063   4.301  14.568  0.00  0.00     0.039 A 
ATOM      3  C4  EZL d          -4.671   3.321  15.395  0.00  0.00    -0.032 A 
ATOM      4  C5  EZL d          -4.778   2.062  14.716  0.00  0.00     0.070 A 
ATOM      5  C1  EZL d          -3.053   6.091  13.408  0.00  0.00     0.214 A 
ATOM      6  N2  EZL d          -3.110   5.034  12.599  0.00  0.00    -0.227 NA
ATOM      7  S2  EZL d          -3.690   5.879  14.934  0.00  0.00    -0.054 SA
ATOM      8  C6  EZL d          -4.404   1.670  13.424  0.00  0.00    -0.049 A 
ATOM      9  C7  EZL d          -3.798   2.694  12.620  0.00  0.00    -0.051 A 
ATOM     10  H3  EZL d          -5.010   3.499  16.409  0.00  0.00     0.090 H 
ATOM     11  H6  EZL d          -4.561   0.663  13.056  0.00  0.00     0.087 H 
ATOM     12  H7  EZL d          -3.479   2.526  11.597  0.00  0.00     0.087 H 
ENDROOT
BRANCH   4  13
ATOM     13  O3  EZL d          -5.328   1.046  15.509  0.00  0.00    -0.351 OA
BRANCH  13  14
ATOM     14  C8  EZL d          -5.567   1.211  16.968  0.00  0.00     0.023 C 
ATOM     15  H4  EZL d          -5.342   2.248  17.256  0.00  0.00     0.074 H 
ATOM     16  H5  EZL d          -4.908   0.526  17.522  0.00  0.00     0.074 H 
BRANCH  14  17
ATOM     17  C9  EZL d          -7.030   0.896  17.314  0.00  0.00    -0.056 C 
ATOM     18  H8  EZL d          -7.488   1.771  17.799  0.00  0.00     0.030 H 
ATOM     19  H9  EZL d          -7.068   0.036  17.999  0.00  0.00     0.030 H 
ATOM     20  H10 EZL d          -7.582   0.657  16.394  0.00  0.00     0.030 H 
ENDBRANCH  14  17
ENDBRANCH  13  14
ENDBRANCH   4  13
BRANCH   5  21
ATOM     21  S1  EZL d          -2.379   7.669  12.899  0.00  0.00     0.281 S 
ATOM     22  O1  EZL d          -3.359   8.193  11.996  0.00  0.00    -0.199 OA
ATOM     23  O2  EZL d          -2.233   8.382  14.137  0.00  0.00    -0.199 OA
BRANCH  21  24
ATOM     24  N1  EZL d          -1.010   7.365  12.184  0.00  0.00    -0.323 N 
ATOM     25  H1  EZL d          -0.991   7.169  11.204  0.00  0.00     0.169 HD
ATOM     26  H2  EZL d          -0.160   7.369  12.711  0.00  0.00     0.169 HD
ENDBRANCH  21  24
ENDBRANCH   5  21
TORSDOF 5
ENDMDL
MODEL 5
REMARK VINA RESULT:      -4.4      3.114      6.366
REMARK  5 active torsions:
REMARK  status: ('A' for Active; 'I' for Inactive)
REMARK    1  A    between atoms: S1_9  and  N1_1 
REMARK    2  A    between atoms: C5_5  and  O3_15 
REMARK    3  A    between atoms: O3_15  and  C8_6 
REMARK    4  A    between atoms: C8_6  and  C9_16 
REMARK    5  A    between atoms: C1_10  and  S1_9 
ROOT
ATOM      1  C2  EZL d          -3.761   3.955  13.656  0.00  0.00     0.076 A 
ATOM      2  C3  EZL d          -4.384   4.753  14.616  0.00  0.00     0.039 A 
ATOM      3  C4  EZL d          -5.436   4.209  15.398  0.00  0.00    -0.032 A 
ATOM      4  C5  EZL d          -5.705   2.848  15.033  0.00  0.00     0.070 A 
ATOM      5  C1  EZL d          -2.648   5.872  13.474  0.00  0.00     0.214 A 
ATOM      6  N2  EZL d          -2.780   4.650  12.960  0.00  0.00    -0.227 NA
ATOM      7  S2  EZL d          -3.698   6.264  14.709  0.00  0.00    -0.054 SA
ATOM      8  C6  EZL d          -5.127   2.016  14.065  0.00  0.00    -0.049 A 
ATOM      9  C7  EZL d          -4.071   2.608  13.293  0.00  0.00    -0.051 A 
ATOM     10  H3  EZL d          -5.967   4.751  16.172  0.00  0.00     0.090 H 
ATOM     11  H6  EZL d          -5.455   0.995  13.910  0.00  0.00     0.087 H 
ATOM     12  H7  EZL d          -3.553   2.077  12.503  0.00  0.00     0.087 H 
ENDROOT
BRANCH   4  13
ATOM     13  O3  EZL d          -6.705   2.250  15.812  0.00  0.00    -0.351 OA
BRANCH  13  14
ATOM     14  C8  EZL d          -6.684   2.277  17.298  0.00  0.00     0.023 C 
ATOM     15  H4  EZL d          -7.711   2.393  17.673  0.00  0.00     0.074 H 
ATOM     16  H5  EZL d          -6.072   3.126  17.636  0.00  0.00     0.074 H 
BRANCH  14  17
ATOM     17  C9  EZL d          -6.089   0.973  17.853  0.00  0.00    -0.056 C 
ATOM     18  H8  EZL d          -6.633   0.114  17.433  0.00  0.00     0.030 H 
ATOM     19  H9  EZL d          -6.180   0.966  18.949  0.00  0.00     0.030 H 
ATOM     20  H10 EZL d          -5.027   0.906  17.573  0.00  0.00     0.030 H 
ENDBRANCH  14  17
ENDBRANCH  13  14
ENDBRANCH   4  13
BRANCH   5  21
ATOM     21  S1  EZL d          -1.453   7.059  12.867  0.00  0.00     0.281 S 
ATOM     22  O1  EZL d          -0.280   6.276  12.616  0.00  0.00    -0.199 OA
ATOM     23  O2  EZL d          -2.092   7.608  11.705  0.00  0.00    -0.199 OA
BRANCH  21  24
ATOM     24  N1  EZL d          -1.235   8.108  14.020  0.00  0.00    -0.323 N 
ATOM     25  H1  EZL d          -1.837   8.106  14.819  0.00  0.00     0.169 HD
ATOM     26  H2  EZL d          -0.495   8.778  13.953  0.00  0.00     0.169 HD
ENDBRANCH  21  24
ENDBRANCH   5  21
TORSDOF 5
ENDMDL
MODEL 6
REMARK VINA RESULT:      -4.3      1.469      2.055
REMARK  5 active torsions:
REMARK  status: ('A' for Active; 'I' for Inactive)
REMARK    1  A    between atoms: S1_9  and  N1_1 
REMARK    2  A    between atoms: C5_5  and  O3_15 
REMARK    3  A    between atoms: O3_15  and  C8_6 
REMARK    4  A    between atoms: C8_6  and  C9_16 
REMARK    5  A    between atoms: C1_10  and  S1_9 
ROOT
ATOM      1  C2  EZL d          -4.656   4.230  14.606  0.00  0.00     0.076 A 
ATOM      2  C3  EZL d          -3.310   3.981  14.876  0.00  0.00     0.039 A 
ATOM      3  C4  EZL d          -2.324   4.878  14.390  0.00  0.00    -0.032 A 
ATOM      4  C5  EZL d          -2.919   5.948  13.642  0.00  0.00     0.070 A 
ATOM      5  C1  EZL d          -4.753   2.369  15.820  0.00  0.00     0.214 A 
ATOM      6  N2  EZL d          -5.482   3.241  15.125  0.00  0.00    -0.227 NA
ATOM      7  S2  EZL d          -3.106   2.630  15.823  0.00  0.00    -0.054 SA
ATOM      8  C6  EZL d          -4.254   6.227  13.325  0.00  0.00    -0.049 A 
ATOM      9  C7  EZL d          -5.218   5.292  13.832  0.00  0.00    -0.051 A 
ATOM     10  H3  EZL d          -1.259   4.769  14.561  0.00  0.00     0.090 H 
ATOM     11  H6  EZL d          -4.541   7.091  12.736  0.00  0.00     0.087 H 
ATOM     12  H7  EZL d          -6.282   5.384  13.644  0.00  0.00     0.087 H 
ENDROOT
BRANCH   4  13
ATOM     13  O3  EZL d          -1.988   6.889  13.181  0.00  0.00    -0.351 OA
BRANCH  13  14
ATOM     14  C8  EZL d          -1.981   8.301  13.645  0.00  0.00     0.023 C 
ATOM     15  H4  EZL d          -2.593   8.386  14.555  0.00  0.00     0.074 H 
ATOM     16  H5  EZL d          -2.404   8.943  12.858  0.00  0.00     0.074 H 
BRANCH  14  17
ATOM     17  C9  EZL d          -0.548   8.761  13.956  0.00  0.00    -0.056 C 
ATOM     18  H8  EZL d           0.045   8.763  13.029  0.00  0.00     0.030 H 
ATOM     19  H9  EZL d          -0.092   8.072  14.682  0.00  0.00     0.030 H 
ATOM     20  H10 EZL d          -0.572   9.776  14.378  0.00  0.00     0.030 H 
ENDBRANCH  14  17
ENDBRANCH  13  14
ENDBRANCH   4  13
BRANCH   5  21
ATOM     21  S1  EZL d          -5.467   0.966  16.673  0.00  0.00     0.281 S 
ATOM     22  O1  EZL d          -4.794  -0.165  16.109  0.00  0.00    -0.199 OA
ATOM     23  O2  EZL d          -5.178   1.235  18.053  0.00  0.00    -0.199 OA
BRANCH  21  24
ATOM     24  N1  EZL d          -7.006   0.973  16.341  0.00  0.00    -0.323 N 
ATOM     25  H1  EZL d          -7.667   0.672  17.028  0.00  0.00     0.169 HD
ATOM     26  H2  EZL d          -7.321   1.278  15.442  0.00  0.00     0.169 HD
ENDBRANCH  21  24
ENDBRANCH   5  21
TORSDOF 5
ENDMDL
MODEL 7
REMARK VINA RESULT:      -3.2      3.739      6.739
REMARK  5 active torsions:
REMARK  status: ('A' for Active; 'I' for Inactive)
REMARK    1  A    between atoms: S1_9  and  N1_1 
REMARK    2  A    between atoms: C5_5  and  O3_15 
REMARK    3  A    between atoms: O3_15  and  C8_6 
REMARK    4  A    between atoms: C8_6  and  C9_16 
REMARK    5  A    between atoms: C1_10  and  S1_9 
ROOT
ATOM      1  C2  EZL d          -2.793   4.912  12.836  0.00  0.00     0.076 A 
ATOM      2  C3  EZL d          -3.772   5.280  13.760  0.00  0.00     0.039 A 
ATOM      3  C4  EZL d          -4.674   4.298  14.246  0.00  0.00    -0.032 A 
ATOM      4  C5  EZL d          -4.416   3.017  13.655  0.00  0.00     0.070 A 
ATOM      5  C1  EZL d          -2.378   7.078  13.132  0.00  0.00     0.214 A 
ATOM      6  N2  EZL d          -2.019   5.997  12.441  0.00  0.00    -0.227 NA
ATOM      7  S2  EZL d          -3.655   6.882  14.186  0.00  0.00    -0.054 SA
ATOM      8  C6  EZL d          -3.466   2.605  12.711  0.00  0.00    -0.049 A 
ATOM      9  C7  EZL d          -2.578   3.631  12.242  0.00  0.00    -0.051 A 
ATOM     10  H3  EZL d          -5.456   4.491  14.972  0.00  0.00     0.090 H 
ATOM     11  H6  EZL d          -3.406   1.582  12.358  0.00  0.00     0.087 H 
ATOM     12  H7  EZL d          -1.809   3.448  11.499  0.00  0.00     0.087 H 
ENDROOT
BRANCH   4  13
ATOM     13  O3  EZL d          -5.251   2.001  14.141  0.00  0.00    -0.351 OA
BRANCH  13  14
ATOM     14  C8  EZL d          -4.743   0.879  14.973  0.00  0.00     0.023 C 
ATOM     15  H4  EZL d          -3.762   0.560  14.592  0.00  0.00     0.074 H 
ATOM     16  H5  EZL d          -5.450   0.037  14.915  0.00  0.00     0.074 H 
BRANCH  14  17
ATOM     17  C9  EZL d          -4.598   1.316  16.439  0.00  0.00    -0.056 C 
ATOM     18  H8  EZL d          -4.584   0.427  17.087  0.00  0.00     0.030 H 
ATOM     19  H9  EZL d          -5.446   1.959  16.715  0.00  0.00     0.030 H 
ATOM     20  H10 EZL d          -3.659   1.874  16.563  0.00  0.00     0.030 H 
ENDBRANCH  14  17
ENDBRANCH  13  14
ENDBRANCH   4  13
BRANCH   5  21
ATOM     21  S1  EZL d          -1.583   8.669  12.929  0.00  0.00     0.281 S 
ATOM     22  O1  EZL d          -1.597   9.236  14.244  0.00  0.00    -0.199 OA
ATOM     23  O2  EZL d          -0.288   8.330  12.413  0.00  0.00    -0.199 OA
BRANCH  21  24
ATOM     24  N1  EZL d          -2.468   9.488  11.917  0.00  0.00    -0.323 N 
ATOM     25  H1  EZL d          -2.359  10.480  11.847  0.00  0.00     0.169 HD
ATOM     26  H2  EZL d          -3.138   9.017  11.344  0.00  0.00     0.169 HD
ENDBRANCH  21  24
ENDBRANCH   5  21
TORSDOF 5
ENDMDL
