REMARK  4 active torsions:
REMARK  status: ('A' for Active; 'I' for Inactive)
REMARK    1  A    between atoms: S5_2  and  N21_4 
REMARK    2  A    between atoms: S5_2  and  C5_12 
REMARK    3  A    between atoms: C22_5  and  C2M_6 
REMARK    4  A    between atoms: C4_14  and  CM_15 
ROOT
ATOM      1  N21 H52 d          10.129   9.345   3.386  0.00  0.00    -0.301 N 
ATOM      2  C22 H52 d          10.514   7.889   3.606  0.00  0.00     0.042 C 
ATOM      3  C23 H52 d          11.954   7.501   3.249  0.00  0.00     0.100 C 
ATOM      4  N24 H52 d          12.884   8.212   4.212  0.00  0.00    -0.073 N 
ATOM      5  C25 H52 d          13.344   9.516   3.581  0.00  0.00     0.083 C 
ATOM      6  C26 H52 d          12.270  10.619   3.587  0.00  0.00    -0.027 C 
ATOM      7  C27 H52 d          11.089  10.249   2.699  0.00  0.00     0.007 C 
ATOM      8  H1  H52 d          10.430   7.739   4.693  0.00  0.00     0.075 H 
ATOM      9  H5  H52 d          12.179   7.809   2.217  0.00  0.00     0.078 H 
ATOM     10  H6  H52 d          12.081   6.412   3.342  0.00  0.00     0.078 H 
ATOM     11  H7  H52 d          13.683   7.628   4.403  0.00  0.00     0.277 HD
ATOM     12  H8  H52 d          12.396   8.406   5.072  0.00  0.00     0.277 HD
ATOM     13  H9  H52 d          13.630   9.315   2.538  0.00  0.00     0.075 H 
ATOM     14  H10 H52 d          14.220   9.881   4.137  0.00  0.00     0.075 H 
ATOM     15  H11 H52 d          12.716  11.555   3.218  0.00  0.00     0.037 H 
ATOM     16  H12 H52 d          11.912  10.764   4.617  0.00  0.00     0.037 H 
ATOM     17  H13 H52 d          10.562  11.170   2.409  0.00  0.00     0.065 H 
ATOM     18  H14 H52 d          11.468   9.744   1.798  0.00  0.00     0.065 H 
ENDROOT
BRANCH   1  19
ATOM     19  S5  H52 d           8.808   9.931   4.306  0.00  0.00     0.262 S 
ATOM     20  O1  H52 d           9.002  11.303   4.848  0.00  0.00    -0.200 OA
ATOM     21  O2  H52 d           8.532   8.853   5.264  0.00  0.00    -0.200 OA
BRANCH  19  22
ATOM     22  C5  H52 d           7.394   9.938   3.218  0.00  0.00     0.091 A 
ATOM     23  C10 H52 d           5.978   9.895   3.619  0.00  0.00     0.006 A 
ATOM     24  C4  H52 d           5.368   9.911   4.939  0.00  0.00    -0.032 A 
ATOM     25  C9  H52 d           5.023   9.818   2.561  0.00  0.00    -0.006 A 
ATOM     26  C3  H52 d           4.003   9.828   5.110  0.00  0.00     0.008 A 
ATOM     27  N2  H52 d           3.161   9.722   4.062  0.00  0.00    -0.272 NA
ATOM     28  H22 H52 d           3.595   9.848   6.114  0.00  0.00     0.115 H 
ATOM     29  C1  H52 d           3.624   9.749   2.836  0.00  0.00     0.013 A 
ATOM     30  H21 H52 d           2.925   9.718   2.008  0.00  0.00     0.116 H 
ATOM     31  C8  H52 d           5.437   9.796   1.200  0.00  0.00    -0.071 A 
ATOM     32  C7  H52 d           6.762   9.835   0.868  0.00  0.00    -0.081 A 
ATOM     33  H18 H52 d           4.691   9.748   0.415  0.00  0.00     0.084 H 
ATOM     34  C6  H52 d           7.746   9.878   1.886  0.00  0.00    -0.059 A 
ATOM     35  H19 H52 d           7.060   9.833  -0.174  0.00  0.00     0.083 H 
ATOM     36  H20 H52 d           8.795   9.864   1.613  0.00  0.00     0.085 H 
BRANCH  24  37
ATOM     37  CM  H52 d           6.068  10.034   6.258  0.00  0.00    -0.049 C 
ATOM     38  H15 H52 d           5.326  10.014   7.070  0.00  0.00     0.033 H 
ATOM     39  H16 H52 d           6.623  10.983   6.292  0.00  0.00     0.033 H 
ATOM     40  H17 H52 d           6.769   9.195   6.381  0.00  0.00     0.033 H 
ENDBRANCH  24  37
ENDBRANCH  19  22
ENDBRANCH   1  19
BRANCH   2  41
ATOM     41  C2M H52 d           9.551   6.901   2.971  0.00  0.00    -0.055 C 
ATOM     42  H2  H52 d           9.893   5.875   3.171  0.00  0.00     0.030 H 
ATOM     43  H3  H52 d           9.516   7.070   1.885  0.00  0.00     0.030 H 
ATOM     44  H4  H52 d           8.547   7.042   3.397  0.00  0.00     0.030 H 
ENDBRANCH   2  41
TORSDOF 4
