MODEL 1
REMARK VINA RESULT:      -8.4      0.000      0.000
REMARK  4 active torsions:
REMARK  status: ('A' for Active; 'I' for Inactive)
REMARK    1  A    between atoms: S5_2  and  N21_4 
REMARK    2  A    between atoms: S5_2  and  C5_12 
REMARK    3  A    between atoms: C22_5  and  C2M_6 
REMARK    4  A    between atoms: C4_14  and  CM_15 
ROOT
ATOM      1  N21 H52 d          10.173   9.416   3.674  0.00  0.00    -0.301 N 
ATOM      2  C22 H52 d          10.502   7.945   3.888  0.00  0.00     0.042 C 
ATOM      3  C23 H52 d          11.959   7.530   3.656  0.00  0.00     0.100 C 
ATOM      4  N24 H52 d          12.811   8.192   4.721  0.00  0.00    -0.073 N 
ATOM      5  C25 H52 d          13.358   9.500   4.172  0.00  0.00     0.083 C 
ATOM      6  C26 H52 d          12.314  10.629   4.109  0.00  0.00    -0.027 C 
ATOM      7  C27 H52 d          11.213  10.312   3.105  0.00  0.00     0.007 C 
ATOM      8  H1  H52 d          10.313   7.770   4.958  0.00  0.00     0.075 H 
ATOM      9  H5  H52 d          12.287   7.859   2.658  0.00  0.00     0.078 H 
ATOM     10  H6  H52 d          12.052   6.436   3.730  0.00  0.00     0.078 H 
ATOM     11  H7  H52 d          13.575   7.583   4.969  0.00  0.00     0.277 HD
ATOM     12  H8  H52 d          12.249   8.376   5.537  0.00  0.00     0.277 HD
ATOM     13  H9  H52 d          13.736   9.318   3.155  0.00  0.00     0.075 H 
ATOM     14  H10 H52 d          14.186   9.828   4.817  0.00  0.00     0.075 H 
ATOM     15  H11 H52 d          12.814  11.563   3.809  0.00  0.00     0.037 H 
ATOM     16  H12 H52 d          11.864  10.757   5.105  0.00  0.00     0.037 H 
ATOM     17  H13 H52 d          10.737  11.254   2.793  0.00  0.00     0.065 H 
ATOM     18  H14 H52 d          11.664   9.821   2.229  0.00  0.00     0.065 H 
ENDROOT
BRANCH   1  19
ATOM     19  S5  H52 d           8.785  10.012   4.482  0.00  0.00     0.262 S 
ATOM     20  O1  H52 d           8.918  11.409   4.975  0.00  0.00    -0.200 OA
ATOM     21  O2  H52 d           8.469   8.970   5.468  0.00  0.00    -0.200 OA
BRANCH  19  22
ATOM     22  C5  H52 d           7.443   9.942   3.309  0.00  0.00     0.091 A 
ATOM     23  C10 H52 d           6.004   9.954   3.619  0.00  0.00     0.006 A 
ATOM     24  C4  H52 d           5.312  10.095   4.891  0.00  0.00    -0.032 A 
ATOM     25  C9  H52 d           5.117   9.796   2.512  0.00  0.00    -0.006 A 
ATOM     26  C3  H52 d           3.938  10.046   4.979  0.00  0.00     0.008 A 
ATOM     27  N2  H52 d           3.162   9.859   3.892  0.00  0.00    -0.272 NA
ATOM     28  H22 H52 d           3.467  10.160   5.949  0.00  0.00     0.115 H 
ATOM     29  C1  H52 d           3.702   9.771   2.701  0.00  0.00     0.013 A 
ATOM     30  H21 H52 d           3.056   9.677   1.836  0.00  0.00     0.116 H 
ATOM     31  C8  H52 d           5.615   9.648   1.188  0.00  0.00    -0.071 A 
ATOM     32  C7  H52 d           6.959   9.640   0.941  0.00  0.00    -0.081 A 
ATOM     33  H18 H52 d           4.920   9.541   0.364  0.00  0.00     0.084 H 
ATOM     34  C6  H52 d           7.878   9.759   2.013  0.00  0.00    -0.059 A 
ATOM     35  H19 H52 d           7.323   9.542  -0.076  0.00  0.00     0.083 H 
ATOM     36  H20 H52 d           8.941   9.707   1.810  0.00  0.00     0.085 H 
BRANCH  24  37
ATOM     37  CM  H52 d           5.929  10.324   6.236  0.00  0.00    -0.049 C 
ATOM     38  H15 H52 d           5.866  11.393   6.491  0.00  0.00     0.033 H 
ATOM     39  H16 H52 d           6.984  10.015   6.214  0.00  0.00     0.033 H 
ATOM     40  H17 H52 d           5.390   9.734   6.993  0.00  0.00     0.033 H 
ENDBRANCH  24  37
ENDBRANCH  19  22
ENDBRANCH   1  19
BRANCH   2  41
ATOM     41  C2M H52 d           9.580   6.999   3.138  0.00  0.00    -0.055 C 
ATOM     42  H2  H52 d           8.546   7.145   3.482  0.00  0.00     0.030 H 
ATOM     43  H3  H52 d           9.886   5.960   3.331  0.00  0.00     0.030 H 
ATOM     44  H4  H52 d           9.641   7.205   2.060  0.00  0.00     0.030 H 
ENDBRANCH   2  41
TORSDOF 4
ENDMDL
MODEL 2
REMARK VINA RESULT:      -7.9      2.391      3.144
REMARK  4 active torsions:
REMARK  status: ('A' for Active; 'I' for Inactive)
REMARK    1  A    between atoms: S5_2  and  N21_4 
REMARK    2  A    between atoms: S5_2  and  C5_12 
REMARK    3  A    between atoms: C22_5  and  C2M_6 
REMARK    4  A    between atoms: C4_14  and  CM_15 
ROOT
ATOM      1  N21 H52 d          11.087   9.100   2.100  0.00  0.00    -0.301 N 
ATOM      2  C22 H52 d          11.741   9.712   0.869  0.00  0.00     0.042 C 
ATOM      3  C23 H52 d          13.210  10.128   1.010  0.00  0.00     0.100 C 
ATOM      4  N24 H52 d          14.037   8.872   1.201  0.00  0.00    -0.073 N 
ATOM      5  C25 H52 d          14.223   8.627   2.690  0.00  0.00     0.083 C 
ATOM      6  C26 H52 d          12.967   8.073   3.387  0.00  0.00    -0.027 C 
ATOM      7  C27 H52 d          11.835   9.092   3.385  0.00  0.00     0.007 C 
ATOM      8  H1  H52 d          11.734   8.907   0.119  0.00  0.00     0.075 H 
ATOM      9  H5  H52 d          13.329  10.790   1.881  0.00  0.00     0.078 H 
ATOM     10  H6  H52 d          13.537  10.656   0.102  0.00  0.00     0.078 H 
ATOM     11  H7  H52 d          14.936   8.990   0.762  0.00  0.00     0.277 HD
ATOM     12  H8  H52 d          13.560   8.087   0.786  0.00  0.00     0.277 HD
ATOM     13  H9  H52 d          14.494   9.580   3.167  0.00  0.00     0.075 H 
ATOM     14  H10 H52 d          15.042   7.904   2.823  0.00  0.00     0.075 H 
ATOM     15  H11 H52 d          13.219   7.820   4.429  0.00  0.00     0.037 H 
ATOM     16  H12 H52 d          12.635   7.167   2.859  0.00  0.00     0.037 H 
ATOM     17  H13 H52 d          11.137   8.848   4.199  0.00  0.00     0.065 H 
ATOM     18  H14 H52 d          12.260  10.093   3.553  0.00  0.00     0.065 H 
ENDROOT
BRANCH   1  19
ATOM     19  S5  H52 d           9.724   8.101   1.821  0.00  0.00     0.262 S 
ATOM     20  O1  H52 d           9.621   6.937   2.742  0.00  0.00    -0.200 OA
ATOM     21  O2  H52 d           9.769   7.826   0.379  0.00  0.00    -0.200 OA
BRANCH  19  22
ATOM     22  C5  H52 d           8.285   9.133   2.036  0.00  0.00     0.091 A 
ATOM     23  C10 H52 d           7.623   9.461   3.310  0.00  0.00     0.006 A 
ATOM     24  C4  H52 d           7.980   9.117   4.677  0.00  0.00    -0.032 A 
ATOM     25  C9  H52 d           6.428  10.236   3.220  0.00  0.00    -0.006 A 
ATOM     26  C3  H52 d           7.200   9.496   5.749  0.00  0.00     0.008 A 
ATOM     27  N2  H52 d           6.062  10.200   5.585  0.00  0.00    -0.272 NA
ATOM     28  H22 H52 d           7.510   9.220   6.750  0.00  0.00     0.115 H 
ATOM     29  C1  H52 d           5.692  10.592   4.390  0.00  0.00     0.013 A 
ATOM     30  H21 H52 d           4.803  11.204   4.288  0.00  0.00     0.116 H 
ATOM     31  C8  H52 d           5.927  10.668   1.960  0.00  0.00    -0.071 A 
ATOM     32  C7  H52 d           6.569  10.341   0.799  0.00  0.00    -0.081 A 
ATOM     33  H18 H52 d           5.023  11.265   1.921  0.00  0.00     0.084 H 
ATOM     34  C6  H52 d           7.740   9.545   0.838  0.00  0.00    -0.059 A 
ATOM     35  H19 H52 d           6.182  10.690  -0.151  0.00  0.00     0.083 H 
ATOM     36  H20 H52 d           8.217   9.254  -0.091  0.00  0.00     0.085 H 
BRANCH  24  37
ATOM     37  CM  H52 d           9.189   8.360   5.134  0.00  0.00    -0.049 C 
ATOM     38  H15 H52 d           9.421   8.632   6.174  0.00  0.00     0.033 H 
ATOM     39  H16 H52 d          10.045   8.612   4.490  0.00  0.00     0.033 H 
ATOM     40  H17 H52 d           8.990   7.280   5.072  0.00  0.00     0.033 H 
ENDBRANCH  24  37
ENDBRANCH  19  22
ENDBRANCH   1  19
BRANCH   2  41
ATOM     41  C2M H52 d          10.946  10.856   0.263  0.00  0.00    -0.055 C 
ATOM     42  H2  H52 d          10.034  10.461  -0.208  0.00  0.00     0.030 H 
ATOM     43  H3  H52 d          11.558  11.366  -0.496  0.00  0.00     0.030 H 
ATOM     44  H4  H52 d          10.671  11.571   1.053  0.00  0.00     0.030 H 
ENDBRANCH   2  41
TORSDOF 4
ENDMDL
MODEL 3
REMARK VINA RESULT:      -7.7      0.966      2.159
REMARK  4 active torsions:
REMARK  status: ('A' for Active; 'I' for Inactive)
REMARK    1  A    between atoms: S5_2  and  N21_4 
REMARK    2  A    between atoms: S5_2  and  C5_12 
REMARK    3  A    between atoms: C22_5  and  C2M_6 
REMARK    4  A    between atoms: C4_14  and  CM_15 
ROOT
ATOM      1  N21 H52 d          10.328   9.440   3.797  0.00  0.00    -0.301 N 
ATOM      2  C22 H52 d          10.991  10.342   2.766  0.00  0.00     0.042 C 
ATOM      3  C23 H52 d          11.871   9.651   1.718  0.00  0.00     0.100 C 
ATOM      4  N24 H52 d          10.975   8.795   0.844  0.00  0.00    -0.073 N 
ATOM      5  C25 H52 d          10.955   7.379   1.396  0.00  0.00     0.083 C 
ATOM      6  C26 H52 d          10.099   7.222   2.666  0.00  0.00    -0.027 C 
ATOM      7  C27 H52 d          10.692   7.999   3.835  0.00  0.00     0.007 C 
ATOM      8  H1  H52 d          10.155  10.784   2.203  0.00  0.00     0.075 H 
ATOM      9  H5  H52 d          12.620   9.018   2.217  0.00  0.00     0.078 H 
ATOM     10  H6  H52 d          12.382  10.407   1.102  0.00  0.00     0.078 H 
ATOM     11  H7  H52 d          11.332   8.786  -0.099  0.00  0.00     0.277 HD
ATOM     12  H8  H52 d          10.041   9.172   0.846  0.00  0.00     0.277 HD
ATOM     13  H9  H52 d          11.988   7.085   1.635  0.00  0.00     0.075 H 
ATOM     14  H10 H52 d          10.553   6.710   0.621  0.00  0.00     0.075 H 
ATOM     15  H11 H52 d          10.047   6.156   2.934  0.00  0.00     0.037 H 
ATOM     16  H12 H52 d           9.086   7.599   2.463  0.00  0.00     0.037 H 
ATOM     17  H13 H52 d          10.319   7.564   4.774  0.00  0.00     0.065 H 
ATOM     18  H14 H52 d          11.788   7.910   3.799  0.00  0.00     0.065 H 
ENDROOT
BRANCH   1  19
ATOM     19  S5  H52 d           8.919  10.054   4.554  0.00  0.00     0.262 S 
ATOM     20  O1  H52 d           9.042  11.461   5.023  0.00  0.00    -0.200 OA
ATOM     21  O2  H52 d           8.572   9.032   5.549  0.00  0.00    -0.200 OA
BRANCH  19  22
ATOM     22  C5  H52 d           7.611   9.965   3.343  0.00  0.00     0.091 A 
ATOM     23  C10 H52 d           6.164   9.967   3.613  0.00  0.00     0.006 A 
ATOM     24  C4  H52 d           5.435  10.112   4.864  0.00  0.00    -0.032 A 
ATOM     25  C9  H52 d           5.309   9.795   2.483  0.00  0.00    -0.006 A 
ATOM     26  C3  H52 d           4.060  10.053   4.914  0.00  0.00     0.008 A 
ATOM     27  N2  H52 d           3.316   9.852   3.807  0.00  0.00    -0.272 NA
ATOM     28  H22 H52 d           3.561  10.171   5.869  0.00  0.00     0.115 H 
ATOM     29  C1  H52 d           3.890   9.760   2.632  0.00  0.00     0.013 A 
ATOM     30  H21 H52 d           3.270   9.653   1.750  0.00  0.00     0.116 H 
ATOM     31  C8  H52 d           5.846   9.641   1.175  0.00  0.00    -0.071 A 
ATOM     32  C7  H52 d           7.197   9.641   0.965  0.00  0.00    -0.081 A 
ATOM     33  H18 H52 d           5.175   9.522   0.332  0.00  0.00     0.084 H 
ATOM     34  C6  H52 d           8.084   9.776   2.061  0.00  0.00    -0.059 A 
ATOM     35  H19 H52 d           7.589   9.538  -0.040  0.00  0.00     0.083 H 
ATOM     36  H20 H52 d           9.153   9.731   1.890  0.00  0.00     0.085 H 
BRANCH  24  37
ATOM     37  CM  H52 d           6.013  10.357   6.224  0.00  0.00    -0.049 C 
ATOM     38  H15 H52 d           6.922   9.751   6.351  0.00  0.00     0.033 H 
ATOM     39  H16 H52 d           5.276  10.077   6.991  0.00  0.00     0.033 H 
ATOM     40  H17 H52 d           6.265  11.423   6.330  0.00  0.00     0.033 H 
ENDBRANCH  24  37
ENDBRANCH  19  22
ENDBRANCH   1  19
BRANCH   2  41
ATOM     41  C2M H52 d          11.749  11.508   3.375  0.00  0.00    -0.055 C 
ATOM     42  H2  H52 d          11.208  12.444   3.173  0.00  0.00     0.030 H 
ATOM     43  H3  H52 d          12.754  11.564   2.931  0.00  0.00     0.030 H 
ATOM     44  H4  H52 d          11.836  11.362   4.461  0.00  0.00     0.030 H 
ENDBRANCH   2  41
TORSDOF 4
ENDMDL
MODEL 4
REMARK VINA RESULT:      -7.4      1.915      2.083
REMARK  4 active torsions:
REMARK  status: ('A' for Active; 'I' for Inactive)
REMARK    1  A    between atoms: S5_2  and  N21_4 
REMARK    2  A    between atoms: S5_2  and  C5_12 
REMARK    3  A    between atoms: C22_5  and  C2M_6 
REMARK    4  A    between atoms: C4_14  and  CM_15 
ROOT
ATOM      1  N21 H52 d          11.284   9.809   2.155  0.00  0.00    -0.301 N 
ATOM      2  C22 H52 d          12.255   8.647   2.310  0.00  0.00     0.042 C 
ATOM      3  C23 H52 d          13.528   8.701   1.457  0.00  0.00     0.100 C 
ATOM      4  N24 H52 d          14.367   9.867   1.941  0.00  0.00    -0.073 N 
ATOM      5  C25 H52 d          14.048  11.089   1.095  0.00  0.00     0.083 C 
ATOM      6  C26 H52 d          12.696  11.741   1.436  0.00  0.00    -0.027 C 
ATOM      7  C27 H52 d          11.533  10.820   1.093  0.00  0.00     0.007 C 
ATOM      8  H1  H52 d          12.597   8.706   3.354  0.00  0.00     0.075 H 
ATOM      9  H5  H52 d          13.264   8.846   0.399  0.00  0.00     0.078 H 
ATOM     10  H6  H52 d          14.092   7.763   1.569  0.00  0.00     0.078 H 
ATOM     11  H7  H52 d          15.345   9.640   1.852  0.00  0.00     0.277 HD
ATOM     12  H8  H52 d          14.153  10.060   2.907  0.00  0.00     0.277 HD
ATOM     13  H9  H52 d          14.031  10.784   0.038  0.00  0.00     0.075 H 
ATOM     14  H10 H52 d          14.842  11.835   1.248  0.00  0.00     0.075 H 
ATOM     15  H11 H52 d          12.594  12.675   0.861  0.00  0.00     0.037 H 
ATOM     16  H12 H52 d          12.669  11.968   2.512  0.00  0.00     0.037 H 
ATOM     17  H13 H52 d          10.625  11.428   0.965  0.00  0.00     0.065 H 
ATOM     18  H14 H52 d          11.760  10.297   0.153  0.00  0.00     0.065 H 
ENDROOT
BRANCH   1  19
ATOM     19  S5  H52 d          10.220  10.093   3.467  0.00  0.00     0.262 S 
ATOM     20  O1  H52 d          10.445  11.386   4.167  0.00  0.00    -0.200 OA
ATOM     21  O2  H52 d          10.300   8.863   4.266  0.00  0.00    -0.200 OA
BRANCH  19  22
ATOM     22  C5  H52 d           8.568  10.084   2.794  0.00  0.00     0.091 A 
ATOM     23  C10 H52 d           7.309  10.143   3.555  0.00  0.00     0.006 A 
ATOM     24  C4  H52 d           7.074  10.293   4.982  0.00  0.00    -0.032 A 
ATOM     25  C9  H52 d           6.105  10.031   2.797  0.00  0.00    -0.006 A 
ATOM     26  C3  H52 d           5.802  10.292   5.513  0.00  0.00     0.008 A 
ATOM     27  N2  H52 d           4.709  10.146   4.738  0.00  0.00    -0.272 NA
ATOM     28  H22 H52 d           5.677  10.411   6.583  0.00  0.00     0.115 H 
ATOM     29  C1  H52 d           4.829  10.053   3.436  0.00  0.00     0.013 A 
ATOM     30  H21 H52 d           3.934   9.992   2.827  0.00  0.00     0.116 H 
ATOM     31  C8  H52 d           6.141   9.881   1.383  0.00  0.00    -0.071 A 
ATOM     32  C7  H52 d           7.330   9.828   0.712  0.00  0.00    -0.081 A 
ATOM     33  H18 H52 d           5.212   9.808   0.829  0.00  0.00     0.084 H 
ATOM     34  C6  H52 d           8.550   9.902   1.427  0.00  0.00    -0.059 A 
ATOM     35  H19 H52 d           7.339   9.729  -0.368  0.00  0.00     0.083 H 
ATOM     36  H20 H52 d           9.488   9.815   0.890  0.00  0.00     0.085 H 
BRANCH  24  37
ATOM     37  CM  H52 d           8.103  10.485   6.054  0.00  0.00    -0.049 C 
ATOM     38  H15 H52 d           7.626  10.393   7.041  0.00  0.00     0.033 H 
ATOM     39  H16 H52 d           8.554  11.483   5.956  0.00  0.00     0.033 H 
ATOM     40  H17 H52 d           8.886   9.718   5.953  0.00  0.00     0.033 H 
ENDBRANCH  24  37
ENDBRANCH  19  22
ENDBRANCH   1  19
BRANCH   2  41
ATOM     41  C2M H52 d          11.603   7.283   2.160  0.00  0.00    -0.055 C 
ATOM     42  H2  H52 d          11.562   6.786   3.140  0.00  0.00     0.030 H 
ATOM     43  H3  H52 d          12.192   6.670   1.463  0.00  0.00     0.030 H 
ATOM     44  H4  H52 d          10.582   7.406   1.768  0.00  0.00     0.030 H 
ENDBRANCH   2  41
TORSDOF 4
ENDMDL
MODEL 5
REMARK VINA RESULT:      -7.3      2.786      6.848
REMARK  4 active torsions:
REMARK  status: ('A' for Active; 'I' for Inactive)
REMARK    1  A    between atoms: S5_2  and  N21_4 
REMARK    2  A    between atoms: S5_2  and  C5_12 
REMARK    3  A    between atoms: C22_5  and  C2M_6 
REMARK    4  A    between atoms: C4_14  and  CM_15 
ROOT
ATOM      1  N21 H52 d           8.891   9.626   2.575  0.00  0.00    -0.301 N 
ATOM      2  C22 H52 d           9.150   9.866   4.056  0.00  0.00     0.042 C 
ATOM      3  C23 H52 d           8.098  10.689   4.810  0.00  0.00     0.100 C 
ATOM      4  N24 H52 d           6.814   9.885   4.850  0.00  0.00    -0.073 N 
ATOM      5  C25 H52 d           5.936  10.298   3.680  0.00  0.00     0.083 C 
ATOM      6  C26 H52 d           6.407   9.738   2.325  0.00  0.00    -0.027 C 
ATOM      7  C27 H52 d           7.753  10.323   1.920  0.00  0.00     0.007 C 
ATOM      8  H1  H52 d           9.121   8.864   4.510  0.00  0.00     0.075 H 
ATOM      9  H5  H52 d           7.926  11.642   4.288  0.00  0.00     0.078 H 
ATOM     10  H6  H52 d           8.446  10.890   5.834  0.00  0.00     0.078 H 
ATOM     11  H7  H52 d           6.331  10.064   5.716  0.00  0.00     0.277 HD
ATOM     12  H8  H52 d           7.028   8.902   4.782  0.00  0.00     0.277 HD
ATOM     13  H9  H52 d           5.933  11.396   3.620  0.00  0.00     0.075 H 
ATOM     14  H10 H52 d           4.914   9.938   3.868  0.00  0.00     0.075 H 
ATOM     15  H11 H52 d           5.661   9.989   1.556  0.00  0.00     0.037 H 
ATOM     16  H12 H52 d           6.501   8.645   2.403  0.00  0.00     0.037 H 
ATOM     17  H13 H52 d           7.864  10.234   0.829  0.00  0.00     0.065 H 
ATOM     18  H14 H52 d           7.778  11.386   2.205  0.00  0.00     0.065 H 
ENDROOT
BRANCH   1  19
ATOM     19  S5  H52 d           9.664   8.265   1.877  0.00  0.00     0.262 S 
ATOM     20  O1  H52 d           9.412   8.101   0.420  0.00  0.00    -0.200 OA
ATOM     21  O2  H52 d           9.296   7.152   2.762  0.00  0.00    -0.200 OA
BRANCH  19  22
ATOM     22  C5  H52 d          11.415   8.486   2.137  0.00  0.00     0.091 A 
ATOM     23  C10 H52 d          12.290   9.449   1.447  0.00  0.00     0.006 A 
ATOM     24  C4  H52 d          11.976  10.482   0.473  0.00  0.00    -0.032 A 
ATOM     25  C9  H52 d          13.680   9.377   1.760  0.00  0.00    -0.006 A 
ATOM     26  C3  H52 d          12.956  11.271  -0.090  0.00  0.00     0.008 A 
ATOM     27  N2  H52 d          14.258  11.123   0.228  0.00  0.00    -0.272 NA
ATOM     28  H22 H52 d          12.672  12.031  -0.809  0.00  0.00     0.115 H 
ATOM     29  C1  H52 d          14.622  10.248   1.134  0.00  0.00     0.013 A 
ATOM     30  H21 H52 d          15.667  10.184   1.414  0.00  0.00     0.116 H 
ATOM     31  C8  H52 d          14.172   8.427   2.698  0.00  0.00    -0.071 A 
ATOM     32  C7  H52 d          13.328   7.548   3.316  0.00  0.00    -0.081 A 
ATOM     33  H18 H52 d          15.232   8.400   2.926  0.00  0.00     0.084 H 
ATOM     34  C6  H52 d          11.945   7.561   3.011  0.00  0.00    -0.059 A 
ATOM     35  H19 H52 d          13.717   6.840   4.040  0.00  0.00     0.083 H 
ATOM     36  H20 H52 d          11.291   6.830   3.473  0.00  0.00     0.085 H 
BRANCH  24  37
ATOM     37  CM  H52 d          10.621  10.861  -0.040  0.00  0.00    -0.049 C 
ATOM     38  H15 H52 d          10.093  11.454   0.721  0.00  0.00     0.033 H 
ATOM     39  H16 H52 d          10.044   9.950  -0.259  0.00  0.00     0.033 H 
ATOM     40  H17 H52 d          10.729  11.455  -0.959  0.00  0.00     0.033 H 
ENDBRANCH  24  37
ENDBRANCH  19  22
ENDBRANCH   1  19
BRANCH   2  41
ATOM     41  C2M H52 d          10.533  10.419   4.351  0.00  0.00    -0.055 C 
ATOM     42  H2  H52 d          11.161  10.337   3.452  0.00  0.00     0.030 H 
ATOM     43  H3  H52 d          10.990   9.845   5.170  0.00  0.00     0.030 H 
ATOM     44  H4  H52 d          10.451  11.476   4.645  0.00  0.00     0.030 H 
ENDBRANCH   2  41
TORSDOF 4
ENDMDL
MODEL 6
REMARK VINA RESULT:      -7.2      1.700      3.520
REMARK  4 active torsions:
REMARK  status: ('A' for Active; 'I' for Inactive)
REMARK    1  A    between atoms: S5_2  and  N21_4 
REMARK    2  A    between atoms: S5_2  and  C5_12 
REMARK    3  A    between atoms: C22_5  and  C2M_6 
REMARK    4  A    between atoms: C4_14  and  CM_15 
ROOT
ATOM      1  N21 H52 d          10.903   8.711   4.341  0.00  0.00    -0.301 N 
ATOM      2  C22 H52 d          12.282   8.654   3.698  0.00  0.00     0.042 C 
ATOM      3  C23 H52 d          12.597   7.405   2.866  0.00  0.00     0.100 C 
ATOM      4  N24 H52 d          11.692   7.411   1.649  0.00  0.00    -0.073 N 
ATOM      5  C25 H52 d          10.450   6.589   1.954  0.00  0.00     0.083 C 
ATOM      6  C26 H52 d           9.446   7.304   2.876  0.00  0.00    -0.027 C 
ATOM      7  C27 H52 d          10.024   7.514   4.270  0.00  0.00     0.007 C 
ATOM      8  H1  H52 d          12.293   9.492   2.985  0.00  0.00     0.075 H 
ATOM      9  H5  H52 d          12.411   6.501   3.464  0.00  0.00     0.078 H 
ATOM     10  H6  H52 d          13.650   7.424   2.548  0.00  0.00     0.078 H 
ATOM     11  H7  H52 d          12.180   7.009   0.864  0.00  0.00     0.277 HD
ATOM     12  H8  H52 d          11.426   8.358   1.431  0.00  0.00     0.277 HD
ATOM     13  H9  H52 d          10.764   5.654   2.441  0.00  0.00     0.075 H 
ATOM     14  H10 H52 d           9.946   6.357   1.005  0.00  0.00     0.075 H 
ATOM     15  H11 H52 d           8.534   6.693   2.955  0.00  0.00     0.037 H 
ATOM     16  H12 H52 d           9.195   8.283   2.441  0.00  0.00     0.037 H 
ATOM     17  H13 H52 d           9.195   7.642   4.981  0.00  0.00     0.065 H 
ATOM     18  H14 H52 d          10.612   6.627   4.547  0.00  0.00     0.065 H 
ENDROOT
BRANCH   1  19
ATOM     19  S5  H52 d          10.309  10.270   4.730  0.00  0.00     0.262 S 
ATOM     20  O1  H52 d          10.872  11.365   3.895  0.00  0.00    -0.200 OA
ATOM     21  O2  H52 d          10.480  10.366   6.185  0.00  0.00    -0.200 OA
BRANCH  19  22
ATOM     22  C5  H52 d           8.542  10.215   4.488  0.00  0.00     0.091 A 
ATOM     23  C10 H52 d           7.829  10.286   3.202  0.00  0.00     0.006 A 
ATOM     24  C4  H52 d           8.338  10.341   1.841  0.00  0.00    -0.032 A 
ATOM     25  C9  H52 d           6.404  10.315   3.269  0.00  0.00    -0.006 A 
ATOM     26  C3  H52 d           7.497  10.440   0.754  0.00  0.00     0.008 A 
ATOM     27  N2  H52 d           6.157  10.497   0.895  0.00  0.00    -0.272 NA
ATOM     28  H22 H52 d           7.924  10.474  -0.242  0.00  0.00     0.115 H 
ATOM     29  C1  H52 d           5.613  10.405   2.084  0.00  0.00     0.013 A 
ATOM     30  H21 H52 d           4.533  10.398   2.170  0.00  0.00     0.116 H 
ATOM     31  C8  H52 d           5.728  10.265   4.520  0.00  0.00    -0.071 A 
ATOM     32  C7  H52 d           6.425  10.202   5.693  0.00  0.00    -0.081 A 
ATOM     33  H18 H52 d           4.644  10.277   4.542  0.00  0.00     0.084 H 
ATOM     34  C6  H52 d           7.841  10.205   5.676  0.00  0.00    -0.059 A 
ATOM     35  H19 H52 d           5.895  10.149   6.637  0.00  0.00     0.083 H 
ATOM     36  H20 H52 d           8.385  10.200   6.614  0.00  0.00     0.085 H 
BRANCH  24  37
ATOM     37  CM  H52 d           9.771  10.282   1.407  0.00  0.00    -0.049 C 
ATOM     38  H15 H52 d           9.863  10.686   0.388  0.00  0.00     0.033 H 
ATOM     39  H16 H52 d          10.116   9.237   1.420  0.00  0.00     0.033 H 
ATOM     40  H17 H52 d          10.388  10.879   2.096  0.00  0.00     0.033 H 
ENDBRANCH  24  37
ENDBRANCH  19  22
ENDBRANCH   1  19
BRANCH   2  41
ATOM     41  C2M H52 d          13.419   8.915   4.670  0.00  0.00    -0.055 C 
ATOM     42  H2  H52 d          13.009   9.102   5.673  0.00  0.00     0.030 H 
ATOM     43  H3  H52 d          13.990   9.794   4.338  0.00  0.00     0.030 H 
ATOM     44  H4  H52 d          14.082   8.038   4.703  0.00  0.00     0.030 H 
ENDBRANCH   2  41
TORSDOF 4
ENDMDL
MODEL 7
REMARK VINA RESULT:      -7.0      2.210      3.508
REMARK  4 active torsions:
REMARK  status: ('A' for Active; 'I' for Inactive)
REMARK    1  A    between atoms: S5_2  and  N21_4 
REMARK    2  A    between atoms: S5_2  and  C5_12 
REMARK    3  A    between atoms: C22_5  and  C2M_6 
REMARK    4  A    between atoms: C4_14  and  CM_15 
ROOT
ATOM      1  N21 H52 d          11.795   8.945   2.643  0.00  0.00    -0.301 N 
ATOM      2  C22 H52 d          11.781   8.011   3.845  0.00  0.00     0.042 C 
ATOM      3  C23 H52 d          12.704   6.788   3.770  0.00  0.00     0.100 C 
ATOM      4  N24 H52 d          14.137   7.281   3.782  0.00  0.00    -0.073 N 
ATOM      5  C25 H52 d          14.622   7.421   2.348  0.00  0.00     0.083 C 
ATOM      6  C26 H52 d          14.058   8.656   1.623  0.00  0.00    -0.027 C 
ATOM      7  C27 H52 d          12.552   8.546   1.427  0.00  0.00     0.007 C 
ATOM      8  H1  H52 d          12.167   8.620   4.676  0.00  0.00     0.075 H 
ATOM      9  H5  H52 d          12.509   6.229   2.843  0.00  0.00     0.078 H 
ATOM     10  H6  H52 d          12.526   6.134   4.637  0.00  0.00     0.078 H 
ATOM     11  H7  H52 d          14.718   6.618   4.272  0.00  0.00     0.277 HD
ATOM     12  H8  H52 d          14.184   8.175   4.244  0.00  0.00     0.277 HD
ATOM     13  H9  H52 d          14.321   6.522   1.790  0.00  0.00     0.075 H 
ATOM     14  H10 H52 d          15.720   7.495   2.358  0.00  0.00     0.075 H 
ATOM     15  H11 H52 d          14.542   8.745   0.638  0.00  0.00     0.037 H 
ATOM     16  H12 H52 d          14.277   9.553   2.221  0.00  0.00     0.037 H 
ATOM     17  H13 H52 d          12.254   9.200   0.594  0.00  0.00     0.065 H 
ATOM     18  H14 H52 d          12.302   7.503   1.182  0.00  0.00     0.065 H 
ENDROOT
BRANCH   1  19
ATOM     19  S5  H52 d          11.291  10.558   2.926  0.00  0.00     0.262 S 
ATOM     20  O1  H52 d          11.331  11.431   1.722  0.00  0.00    -0.200 OA
ATOM     21  O2  H52 d          12.070  10.977   4.098  0.00  0.00    -0.200 OA
BRANCH  19  22
ATOM     22  C5  H52 d           9.609  10.469   3.515  0.00  0.00     0.091 A 
ATOM     23  C10 H52 d           8.413  10.165   2.712  0.00  0.00     0.006 A 
ATOM     24  C4  H52 d           8.283   9.800   1.310  0.00  0.00    -0.032 A 
ATOM     25  C9  H52 d           7.159  10.241   3.390  0.00  0.00    -0.006 A 
ATOM     26  C3  H52 d           7.053   9.585   0.726  0.00  0.00     0.008 A 
ATOM     27  N2  H52 d           5.905   9.709   1.422  0.00  0.00    -0.272 NA
ATOM     28  H22 H52 d           7.007   9.311  -0.322  0.00  0.00     0.115 H 
ATOM     29  C1  H52 d           5.934   9.988   2.703  0.00  0.00     0.013 A 
ATOM     30  H21 H52 d           5.002  10.028   3.255  0.00  0.00     0.116 H 
ATOM     31  C8  H52 d           7.092  10.582   4.770  0.00  0.00    -0.071 A 
ATOM     32  C7  H52 d           8.225  10.859   5.481  0.00  0.00    -0.081 A 
ATOM     33  H18 H52 d           6.128  10.622   5.264  0.00  0.00     0.084 H 
ATOM     34  C6  H52 d           9.488  10.829   4.841  0.00  0.00    -0.059 A 
ATOM     35  H19 H52 d           8.157  11.102   6.535  0.00  0.00     0.083 H 
ATOM     36  H20 H52 d          10.376  11.094   5.403  0.00  0.00     0.085 H 
BRANCH  24  37
ATOM     37  CM  H52 d           9.390   9.585   0.324  0.00  0.00    -0.049 C 
ATOM     38  H15 H52 d           9.804   8.573   0.453  0.00  0.00     0.033 H 
ATOM     39  H16 H52 d          10.182  10.329   0.494  0.00  0.00     0.033 H 
ATOM     40  H17 H52 d           8.998   9.693  -0.698  0.00  0.00     0.033 H 
ENDBRANCH  24  37
ENDBRANCH  19  22
ENDBRANCH   1  19
BRANCH   2  41
ATOM     41  C2M H52 d          10.388   7.570   4.258  0.00  0.00    -0.055 C 
ATOM     42  H2  H52 d           9.963   6.919   3.481  0.00  0.00     0.030 H 
ATOM     43  H3  H52 d           9.747   8.454   4.386  0.00  0.00     0.030 H 
ATOM     44  H4  H52 d          10.445   7.018   5.208  0.00  0.00     0.030 H 
ENDBRANCH   2  41
TORSDOF 4
ENDMDL
MODEL 8
REMARK VINA RESULT:      -6.9      2.066      6.380
REMARK  4 active torsions:
REMARK  status: ('A' for Active; 'I' for Inactive)
REMARK    1  A    between atoms: S5_2  and  N21_4 
REMARK    2  A    between atoms: S5_2  and  C5_12 
REMARK    3  A    between atoms: C22_5  and  C2M_6 
REMARK    4  A    between atoms: C4_14  and  CM_15 
ROOT
ATOM      1  N21 H52 d           7.045   9.863   3.760  0.00  0.00    -0.301 N 
ATOM      2  C22 H52 d           6.387  10.046   5.120  0.00  0.00     0.042 C 
ATOM      3  C23 H52 d           4.980  10.656   5.123  0.00  0.00     0.100 C 
ATOM      4  N24 H52 d           4.040   9.670   4.459  0.00  0.00    -0.073 N 
ATOM      5  C25 H52 d           3.918  10.021   2.985  0.00  0.00     0.083 C 
ATOM      6  C26 H52 d           5.148   9.623   2.150  0.00  0.00    -0.027 C 
ATOM      7  C27 H52 d           6.378  10.425   2.555  0.00  0.00     0.007 C 
ATOM      8  H1  H52 d           6.266   9.024   5.511  0.00  0.00     0.075 H 
ATOM      9  H5  H52 d           4.983  11.604   4.564  0.00  0.00     0.078 H 
ATOM     10  H6  H52 d           4.657  10.842   6.158  0.00  0.00     0.078 H 
ATOM     11  H7  H52 d           3.133   9.721   4.896  0.00  0.00     0.277 HD
ATOM     12  H8  H52 d           4.407   8.736   4.555  0.00  0.00     0.277 HD
ATOM     13  H9  H52 d           3.776  11.109   2.898  0.00  0.00     0.075 H 
ATOM     14  H10 H52 d           3.038   9.504   2.577  0.00  0.00     0.075 H 
ATOM     15  H11 H52 d           4.934   9.808   1.086  0.00  0.00     0.037 H 
ATOM     16  H12 H52 d           5.352   8.552   2.302  0.00  0.00     0.037 H 
ATOM     17  H13 H52 d           7.094  10.420   1.720  0.00  0.00     0.065 H 
ATOM     18  H14 H52 d           6.071  11.459   2.770  0.00  0.00     0.065 H 
ENDROOT
BRANCH   1  19
ATOM     19  S5  H52 d           8.278   8.678   3.662  0.00  0.00     0.262 S 
ATOM     20  O1  H52 d           8.125   7.729   2.526  0.00  0.00    -0.200 OA
ATOM     21  O2  H52 d           8.341   8.114   5.017  0.00  0.00    -0.200 OA
BRANCH  19  22
ATOM     22  C5  H52 d           9.817   9.560   3.470  0.00  0.00     0.091 A 
ATOM     23  C10 H52 d          10.415  10.015   2.205  0.00  0.00     0.006 A 
ATOM     24  C4  H52 d           9.913   9.946   0.842  0.00  0.00    -0.032 A 
ATOM     25  C9  H52 d          11.704  10.623   2.297  0.00  0.00    -0.006 A 
ATOM     26  C3  H52 d          10.649  10.405  -0.229  0.00  0.00     0.008 A 
ATOM     27  N2  H52 d          11.878  10.937  -0.070  0.00  0.00    -0.272 NA
ATOM     28  H22 H52 d          10.230  10.335  -1.226  0.00  0.00     0.115 H 
ATOM     29  C1  H52 d          12.386  11.081   1.130  0.00  0.00     0.013 A 
ATOM     30  H21 H52 d          13.352  11.562   1.239  0.00  0.00     0.116 H 
ATOM     31  C8  H52 d          12.352  10.780   3.553  0.00  0.00    -0.071 A 
ATOM     32  C7  H52 d          11.765  10.342   4.707  0.00  0.00    -0.081 A 
ATOM     33  H18 H52 d          13.326  11.255   3.597  0.00  0.00     0.084 H 
ATOM     34  C6  H52 d          10.501   9.703   4.659  0.00  0.00    -0.059 A 
ATOM     35  H19 H52 d          12.265  10.483   5.658  0.00  0.00     0.083 H 
ATOM     36  H20 H52 d          10.064   9.319   5.574  0.00  0.00     0.085 H 
BRANCH  24  37
ATOM     37  CM  H52 d           8.584   9.419   0.393  0.00  0.00    -0.049 C 
ATOM     38  H15 H52 d           8.121  10.135  -0.301  0.00  0.00     0.033 H 
ATOM     39  H16 H52 d           7.930   9.280   1.267  0.00  0.00     0.033 H 
ATOM     40  H17 H52 d           8.725   8.453  -0.116  0.00  0.00     0.033 H 
ENDBRANCH  24  37
ENDBRANCH  19  22
ENDBRANCH   1  19
BRANCH   2  41
ATOM     41  C2M H52 d           7.259  10.778   6.125  0.00  0.00    -0.055 C 
ATOM     42  H2  H52 d           6.631  11.170   6.939  0.00  0.00     0.030 H 
ATOM     43  H3  H52 d           7.773  11.612   5.626  0.00  0.00     0.030 H 
ATOM     44  H4  H52 d           8.004  10.083   6.540  0.00  0.00     0.030 H 
ENDBRANCH   2  41
TORSDOF 4
ENDMDL
MODEL 9
REMARK VINA RESULT:      -6.9      2.133      2.912
REMARK  4 active torsions:
REMARK  status: ('A' for Active; 'I' for Inactive)
REMARK    1  A    between atoms: S5_2  and  N21_4 
REMARK    2  A    between atoms: S5_2  and  C5_12 
REMARK    3  A    between atoms: C22_5  and  C2M_6 
REMARK    4  A    between atoms: C4_14  and  CM_15 
ROOT
ATOM      1  N21 H52 d          11.455   8.765   2.911  0.00  0.00    -0.301 N 
ATOM      2  C22 H52 d          11.395  10.029   3.758  0.00  0.00     0.042 C 
ATOM      3  C23 H52 d          12.346  11.164   3.360  0.00  0.00     0.100 C 
ATOM      4  N24 H52 d          11.913  11.684   2.003  0.00  0.00    -0.073 N 
ATOM      5  C25 H52 d          12.713  10.973   0.924  0.00  0.00     0.083 C 
ATOM      6  C26 H52 d          12.256   9.525   0.669  0.00  0.00    -0.027 C 
ATOM      7  C27 H52 d          12.518   8.638   1.879  0.00  0.00     0.007 C 
ATOM      8  H1  H52 d          10.381  10.425   3.598  0.00  0.00     0.075 H 
ATOM      9  H5  H52 d          13.377  10.785   3.302  0.00  0.00     0.078 H 
ATOM     10  H6  H52 d          12.294  11.973   4.104  0.00  0.00     0.078 H 
ATOM     11  H7  H52 d          12.083  12.677   1.952  0.00  0.00     0.277 HD
ATOM     12  H8  H52 d          10.930  11.505   1.870  0.00  0.00     0.277 HD
ATOM     13  H9  H52 d          13.769  10.955   1.230  0.00  0.00     0.075 H 
ATOM     14  H10 H52 d          12.612  11.539  -0.013  0.00  0.00     0.075 H 
ATOM     15  H11 H52 d          12.806   9.123  -0.195  0.00  0.00     0.037 H 
ATOM     16  H12 H52 d          11.178   9.524   0.451  0.00  0.00     0.037 H 
ATOM     17  H13 H52 d          12.564   7.591   1.547  0.00  0.00     0.065 H 
ATOM     18  H14 H52 d          13.481   8.925   2.326  0.00  0.00     0.065 H 
ENDROOT
BRANCH   1  19
ATOM     19  S5  H52 d          10.058   7.774   2.922  0.00  0.00     0.262 S 
ATOM     20  O1  H52 d           9.779   7.125   4.232  0.00  0.00    -0.200 OA
ATOM     21  O2  H52 d          10.227   6.903   1.753  0.00  0.00    -0.200 OA
BRANCH  19  22
ATOM     22  C5  H52 d           8.682   8.830   2.501  0.00  0.00     0.091 A 
ATOM     23  C10 H52 d           7.662   9.352   3.425  0.00  0.00     0.006 A 
ATOM     24  C4  H52 d           7.538   9.224   4.868  0.00  0.00    -0.032 A 
ATOM     25  C9  H52 d           6.602  10.106   2.836  0.00  0.00    -0.006 A 
ATOM     26  C3  H52 d           6.475   9.766   5.557  0.00  0.00     0.008 A 
ATOM     27  N2  H52 d           5.489  10.438   4.929  0.00  0.00    -0.272 NA
ATOM     28  H22 H52 d           6.429   9.648   6.634  0.00  0.00     0.115 H 
ATOM     29  C1  H52 d           5.547  10.641   3.635  0.00  0.00     0.013 A 
ATOM     30  H21 H52 d           4.773  11.231   3.159  0.00  0.00     0.116 H 
ATOM     31  C8  H52 d           6.559  10.338   1.433  0.00  0.00    -0.071 A 
ATOM     32  C7  H52 d           7.525   9.834   0.608  0.00  0.00    -0.081 A 
ATOM     33  H18 H52 d           5.749  10.923   1.012  0.00  0.00     0.084 H 
ATOM     34  C6  H52 d           8.577   9.051   1.144  0.00  0.00    -0.059 A 
ATOM     35  H19 H52 d           7.486  10.032  -0.457  0.00  0.00     0.083 H 
ATOM     36  H20 H52 d           9.313   8.619   0.475  0.00  0.00     0.085 H 
BRANCH  24  37
ATOM     37  CM  H52 d           8.494   8.545   5.801  0.00  0.00    -0.049 C 
ATOM     38  H15 H52 d           8.321   8.904   6.827  0.00  0.00     0.033 H 
ATOM     39  H16 H52 d           9.526   8.775   5.501  0.00  0.00     0.033 H 
ATOM     40  H17 H52 d           8.334   7.457   5.762  0.00  0.00     0.033 H 
ENDBRANCH  24  37
ENDBRANCH  19  22
ENDBRANCH   1  19
BRANCH   2  41
ATOM     41  C2M H52 d          11.513   9.769   5.250  0.00  0.00    -0.055 C 
ATOM     42  H2  H52 d          10.537   9.934   5.729  0.00  0.00     0.030 H 
ATOM     43  H3  H52 d          12.255  10.455   5.684  0.00  0.00     0.030 H 
ATOM     44  H4  H52 d          11.832   8.730   5.417  0.00  0.00     0.030 H 
ENDBRANCH   2  41
TORSDOF 4
ENDMDL
MODEL 10
REMARK VINA RESULT:      -6.3      1.230      2.657
REMARK  4 active torsions:
REMARK  status: ('A' for Active; 'I' for Inactive)
REMARK    1  A    between atoms: S5_2  and  N21_4 
REMARK    2  A    between atoms: S5_2  and  C5_12 
REMARK    3  A    between atoms: C22_5  and  C2M_6 
REMARK    4  A    between atoms: C4_14  and  CM_15 
ROOT
ATOM      1  N21 H52 d          10.302   9.387   3.793  0.00  0.00    -0.301 N 
ATOM      2  C22 H52 d          10.097   7.901   4.055  0.00  0.00     0.042 C 
ATOM      3  C23 H52 d          11.175   6.956   3.513  0.00  0.00     0.100 C 
ATOM      4  N24 H52 d          12.460   7.226   4.270  0.00  0.00    -0.073 N 
ATOM      5  C25 H52 d          13.295   8.225   3.485  0.00  0.00     0.083 C 
ATOM      6  C26 H52 d          12.775   9.671   3.575  0.00  0.00    -0.027 C 
ATOM      7  C27 H52 d          11.415   9.815   2.906  0.00  0.00     0.007 C 
ATOM      8  H1  H52 d          10.143   7.802   5.150  0.00  0.00     0.075 H 
ATOM      9  H5  H52 d          11.329   7.142   2.439  0.00  0.00     0.078 H 
ATOM     10  H6  H52 d          10.866   5.911   3.663  0.00  0.00     0.078 H 
ATOM     11  H7  H52 d          12.975   6.366   4.379  0.00  0.00     0.277 HD
ATOM     12  H8  H52 d          12.244   7.605   5.178  0.00  0.00     0.277 HD
ATOM     13  H9  H52 d          13.296   7.921   2.428  0.00  0.00     0.075 H 
ATOM     14  H10 H52 d          14.323   8.200   3.874  0.00  0.00     0.075 H 
ATOM     15  H11 H52 d          13.493  10.341   3.077  0.00  0.00     0.037 H 
ATOM     16  H12 H52 d          12.685   9.953   4.635  0.00  0.00     0.037 H 
ATOM     17  H13 H52 d          11.264  10.871   2.634  0.00  0.00     0.065 H 
ATOM     18  H14 H52 d          11.401   9.197   1.996  0.00  0.00     0.065 H 
ENDROOT
BRANCH   1  19
ATOM     19  S5  H52 d           9.505  10.465   4.859  0.00  0.00     0.262 S 
ATOM     20  O1  H52 d           9.842  11.898   4.642  0.00  0.00    -0.200 OA
ATOM     21  O2  H52 d           9.752   9.901   6.191  0.00  0.00    -0.200 OA
BRANCH  19  22
ATOM     22  C5  H52 d           7.755  10.241   4.594  0.00  0.00     0.091 A 
ATOM     23  C10 H52 d           7.057  10.238   3.297  0.00  0.00     0.006 A 
ATOM     24  C4  H52 d           7.577  10.333   1.943  0.00  0.00    -0.032 A 
ATOM     25  C9  H52 d           5.634  10.130   3.345  0.00  0.00    -0.006 A 
ATOM     26  C3  H52 d           6.746  10.346   0.844  0.00  0.00     0.008 A 
ATOM     27  N2  H52 d           5.405  10.276   0.967  0.00  0.00    -0.272 NA
ATOM     28  H22 H52 d           7.182  10.415  -0.147  0.00  0.00     0.115 H 
ATOM     29  C1  H52 d           4.855  10.139   2.149  0.00  0.00     0.013 A 
ATOM     30  H21 H52 d           3.779  10.029   2.220  0.00  0.00     0.116 H 
ATOM     31  C8  H52 d           4.948  10.023   4.587  0.00  0.00    -0.071 A 
ATOM     32  C7  H52 d           5.632  10.033   5.770  0.00  0.00    -0.081 A 
ATOM     33  H18 H52 d           3.868   9.932   4.595  0.00  0.00     0.084 H 
ATOM     34  C6  H52 d           7.042  10.171   5.772  0.00  0.00    -0.059 A 
ATOM     35  H19 H52 d           5.096   9.935   6.707  0.00  0.00     0.083 H 
ATOM     36  H20 H52 d           7.570  10.222   6.717  0.00  0.00     0.085 H 
BRANCH  24  37
ATOM     37  CM  H52 d           9.015  10.408   1.529  0.00  0.00    -0.049 C 
ATOM     38  H15 H52 d           9.513   9.454   1.757  0.00  0.00     0.033 H 
ATOM     39  H16 H52 d           9.513  11.221   2.078  0.00  0.00     0.033 H 
ATOM     40  H17 H52 d           9.077  10.604   0.448  0.00  0.00     0.033 H 
ENDBRANCH  24  37
ENDBRANCH  19  22
ENDBRANCH   1  19
BRANCH   2  41
ATOM     41  C2M H52 d           8.725   7.393   3.646  0.00  0.00    -0.055 C 
ATOM     42  H2  H52 d           8.408   6.597   4.335  0.00  0.00     0.030 H 
ATOM     43  H3  H52 d           8.773   6.994   2.623  0.00  0.00     0.030 H 
ATOM     44  H4  H52 d           8.002   8.220   3.684  0.00  0.00     0.030 H 
ENDBRANCH   2  41
TORSDOF 4
ENDMDL
