MODEL 1
REMARK VINA RESULT:      -8.8      0.000      0.000
REMARK  7 active torsions:
REMARK  status: ('A' for Active; 'I' for Inactive)
REMARK    1  A    between atoms: N1_1  and  S27_27 
REMARK    2  A    between atoms: C4_4  and  N7_7 
REMARK    3  A    between atoms: C11_11  and  C14_14 
REMARK    4  A    between atoms: C14_14  and  C16_16 
REMARK    5  A    between atoms: C21_21  and  O22_22 
REMARK    6  A    between atoms: O22_22  and  C23_23 
REMARK    7  A    between atoms: S27_27  and  C28_28 
ROOT
ATOM      1  N7  LIA d           2.764  29.215   6.079  0.00  0.00    -0.218 N 
ATOM      2  C8  LIA d           1.677  29.521   6.844  0.00  0.00     0.724 A 
ATOM      3  N9  LIA d           0.980  28.557   7.504  0.00  0.00    -0.074 NA
ATOM      4  C10 LIA d          -0.043  28.878   8.235  0.00  0.00     0.038 A 
ATOM      5  C11 LIA d          -0.498  30.247   8.392  0.00  0.00     0.079 A 
ATOM      6  C12 LIA d           0.264  31.240   7.667  0.00  0.00     0.156 A 
ATOM      7  N13 LIA d           1.340  30.842   6.908  0.00  0.00    -0.045 NA
ATOM      8  N26 LIA d          -0.023  32.555   7.696  0.00  0.00    -0.383 N 
ATOM      9  H10 LIA d           3.118  29.839   5.340  0.00  0.00     0.178 HD
ATOM     10  H11 LIA d          -0.580  28.091   8.751  0.00  0.00     0.117 H 
ATOM     11  H17 LIA d           0.554  33.220   7.160  0.00  0.00     0.157 HD
ATOM     12  H18 LIA d          -0.818  32.897   8.254  0.00  0.00     0.157 HD
ENDROOT
BRANCH   1  13
ATOM     13  C4  LIA d           3.389  27.924   6.394  0.00  0.00     0.029 C 
ATOM     14  C3  LIA d           4.374  27.576   5.248  0.00  0.00    -0.034 C 
ATOM     15  C2  LIA d           5.181  26.305   5.587  0.00  0.00    -0.005 C 
ATOM     16  H3  LIA d           3.804  27.406   4.323  0.00  0.00     0.037 H 
ATOM     17  H4  LIA d           5.069  28.416   5.102  0.00  0.00     0.037 H 
ATOM     18  N1  LIA d           5.924  26.512   6.861  0.00  0.00    -0.211 NA
ATOM     19  H1  LIA d           4.493  25.453   5.699  0.00  0.00     0.057 H 
ATOM     20  H2  LIA d           5.894  26.096   4.777  0.00  0.00     0.057 H 
ATOM     21  C6  LIA d           4.971  26.692   7.997  0.00  0.00    -0.005 C 
ATOM     22  C5  LIA d           4.143  27.975   7.769  0.00  0.00    -0.034 C 
ATOM     23  H8  LIA d           5.533  26.780   8.938  0.00  0.00     0.057 H 
ATOM     24  H9  LIA d           4.296  25.825   8.052  0.00  0.00     0.057 H 
ATOM     25  H6  LIA d           3.405  28.075   8.580  0.00  0.00     0.037 H 
ATOM     26  H7  LIA d           4.817  28.844   7.777  0.00  0.00     0.037 H 
ATOM     27  H5  LIA d           2.609  27.151   6.450  0.00  0.00     0.073 H 
BRANCH  18  28
ATOM     28  S27 LIA d           6.986  25.222   7.155  0.00  0.00     0.207 S 
ATOM     29  O29 LIA d           7.675  25.492   8.397  0.00  0.00    -0.212 OA
ATOM     30  O30 LIA d           7.941  25.153   6.082  0.00  0.00    -0.212 OA
BRANCH  28  31
ATOM     31  C28 LIA d           6.119  23.620   7.308  0.00  0.00     0.028 C 
ATOM     32  H19 LIA d           6.852  22.822   7.497  0.00  0.00     0.050 H 
ATOM     33  H20 LIA d           5.576  23.406   6.375  0.00  0.00     0.050 H 
ATOM     34  H21 LIA d           5.406  23.668   8.144  0.00  0.00     0.050 H 
ENDBRANCH  28  31
ENDBRANCH  18  28
ENDBRANCH   1  13
BRANCH   5  35
ATOM     35  C14 LIA d          -1.643  30.541   9.239  0.00  0.00     0.203 C 
ATOM     36  O15 LIA d          -2.119  31.688   9.287  0.00  0.00    -0.286 OA
BRANCH  35  37
ATOM     37  C16 LIA d          -2.244  29.518  10.066  0.00  0.00     0.090 A 
ATOM     38  C17 LIA d          -3.561  29.032   9.744  0.00  0.00     0.171 A 
ATOM     39  C18 LIA d          -4.171  28.013  10.541  0.00  0.00     0.156 A 
ATOM     40  F24 LIA d          -4.233  29.521   8.707  0.00  0.00    -0.202 F 
ATOM     41  C19 LIA d          -3.486  27.461  11.663  0.00  0.00    -0.040 A 
ATOM     42  F25 LIA d          -5.378  27.573  10.238  0.00  0.00    -0.203 F 
ATOM     43  C20 LIA d          -2.185  27.925  12.005  0.00  0.00    -0.047 A 
ATOM     44  H12 LIA d          -3.957  26.686  12.256  0.00  0.00     0.088 H 
ATOM     45  C21 LIA d          -1.536  28.957  11.222  0.00  0.00     0.085 A 
ATOM     46  H13 LIA d          -1.674  27.502  12.861  0.00  0.00     0.087 H 
BRANCH  45  47
ATOM     47  O22 LIA d          -0.248  29.450  11.529  0.00  0.00    -0.355 OA
BRANCH  47  48
ATOM     48  C23 LIA d           0.579  28.486  12.229  0.00  0.00     0.010 C 
ATOM     49  H14 LIA d           1.563  28.931  12.437  0.00  0.00     0.066 H 
ATOM     50  H15 LIA d           0.707  27.590  11.604  0.00  0.00     0.066 H 
ATOM     51  H16 LIA d           0.095  28.207  13.176  0.00  0.00     0.066 H 
ENDBRANCH  47  48
ENDBRANCH  45  47
ENDBRANCH  35  37
ENDBRANCH   5  35
TORSDOF 7
ENDMDL
