MODEL 1
REMARK VINA RESULT:      -8.7      0.000      0.000
REMARK  7 active torsions:
REMARK  status: ('A' for Active; 'I' for Inactive)
REMARK    1  A    between atoms: N1_1  and  S27_27 
REMARK    2  A    between atoms: C4_4  and  N7_7 
REMARK    3  A    between atoms: C11_11  and  C14_14 
REMARK    4  A    between atoms: C14_14  and  C16_16 
REMARK    5  A    between atoms: C21_21  and  O22_22 
REMARK    6  A    between atoms: O22_22  and  C23_23 
REMARK    7  A    between atoms: S27_27  and  C28_28 
ROOT
ATOM      1  N7  LIA d           2.596  29.120   6.258  0.00  0.00    -0.218 N 
ATOM      2  C8  LIA d           1.586  29.464   7.107  0.00  0.00     0.724 A 
ATOM      3  N9  LIA d           1.002  28.545   7.925  0.00  0.00    -0.074 NA
ATOM      4  C10 LIA d           0.051  28.903   8.731  0.00  0.00     0.038 A 
ATOM      5  C11 LIA d          -0.440  30.266   8.811  0.00  0.00     0.079 A 
ATOM      6  C12 LIA d           0.199  31.209   7.920  0.00  0.00     0.156 A 
ATOM      7  N13 LIA d           1.203  30.774   7.087  0.00  0.00    -0.045 NA
ATOM      8  N26 LIA d          -0.136  32.511   7.861  0.00  0.00    -0.383 N 
ATOM      9  H10 LIA d           2.843  29.682   5.431  0.00  0.00     0.178 HD
ATOM     10  H11 LIA d          -0.396  28.152   9.372  0.00  0.00     0.117 H 
ATOM     11  H17 LIA d           0.352  33.140   7.207  0.00  0.00     0.157 HD
ATOM     12  H18 LIA d          -0.881  32.880   8.470  0.00  0.00     0.157 HD
ENDROOT
BRANCH   1  13
ATOM     13  C4  LIA d           3.304  27.884   6.619  0.00  0.00     0.029 C 
ATOM     14  C3  LIA d           4.047  27.372   5.358  0.00  0.00    -0.034 C 
ATOM     15  C2  LIA d           4.936  26.159   5.703  0.00  0.00    -0.005 C 
ATOM     16  H3  LIA d           3.308  27.074   4.600  0.00  0.00     0.037 H 
ATOM     17  H4  LIA d           4.677  28.180   4.959  0.00  0.00     0.037 H 
ATOM     18  N1  LIA d           5.915  26.543   6.758  0.00  0.00    -0.211 NA
ATOM     19  H1  LIA d           4.306  25.335   6.069  0.00  0.00     0.057 H 
ATOM     20  H2  LIA d           5.478  25.834   4.802  0.00  0.00     0.057 H 
ATOM     21  C6  LIA d           5.204  26.887   8.026  0.00  0.00    -0.005 C 
ATOM     22  C5  LIA d           4.316  28.127   7.792  0.00  0.00    -0.034 C 
ATOM     23  H8  LIA d           5.941  27.105   8.813  0.00  0.00     0.057 H 
ATOM     24  H9  LIA d           4.576  26.039   8.338  0.00  0.00     0.057 H 
ATOM     25  H6  LIA d           3.754  28.345   8.713  0.00  0.00     0.037 H 
ATOM     26  H7  LIA d           4.957  28.986   7.542  0.00  0.00     0.037 H 
ATOM     27  H5  LIA d           2.570  27.130   6.940  0.00  0.00     0.073 H 
BRANCH  18  28
ATOM     28  S27 LIA d           7.046  25.303   7.010  0.00  0.00     0.207 S 
ATOM     29  O29 LIA d           7.681  25.538   8.287  0.00  0.00    -0.212 OA
ATOM     30  O30 LIA d           8.033  25.356   5.966  0.00  0.00    -0.212 OA
BRANCH  28  31
ATOM     31  C28 LIA d           6.274  23.646   7.041  0.00  0.00     0.028 C 
ATOM     32  H19 LIA d           5.575  23.583   7.887  0.00  0.00     0.050 H 
ATOM     33  H20 LIA d           7.056  22.880   7.154  0.00  0.00     0.050 H 
ATOM     34  H21 LIA d           5.729  23.478   6.101  0.00  0.00     0.050 H 
ENDBRANCH  28  31
ENDBRANCH  18  28
ENDBRANCH   1  13
BRANCH   5  35
ATOM     35  C14 LIA d          -1.500  30.603   9.750  0.00  0.00     0.203 C 
ATOM     36  O15 LIA d          -1.625  31.765  10.173  0.00  0.00    -0.286 OA
BRANCH  35  37
ATOM     37  C16 LIA d          -2.418  29.597  10.234  0.00  0.00     0.090 A 
ATOM     38  C17 LIA d          -1.996  28.697  11.276  0.00  0.00     0.171 A 
ATOM     39  C18 LIA d          -2.890  27.701  11.779  0.00  0.00     0.156 A 
ATOM     40  F24 LIA d          -0.770  28.773  11.787  0.00  0.00    -0.202 F 
ATOM     41  C19 LIA d          -4.212  27.584  11.259  0.00  0.00    -0.040 A 
ATOM     42  F25 LIA d          -2.494  26.881  12.734  0.00  0.00    -0.203 F 
ATOM     43  C20 LIA d          -4.654  28.459  10.227  0.00  0.00    -0.047 A 
ATOM     44  H12 LIA d          -4.883  26.828  11.651  0.00  0.00     0.088 H 
ATOM     45  C21 LIA d          -3.776  29.479   9.692  0.00  0.00     0.085 A 
ATOM     46  H13 LIA d          -5.660  28.359   9.836  0.00  0.00     0.087 H 
BRANCH  45  47
ATOM     47  O22 LIA d          -4.173  30.364   8.665  0.00  0.00    -0.355 OA
BRANCH  47  48
ATOM     48  C23 LIA d          -4.241  29.731   7.362  0.00  0.00     0.010 C 
ATOM     49  H14 LIA d          -3.717  28.765   7.395  0.00  0.00     0.066 H 
ATOM     50  H15 LIA d          -3.764  30.381   6.613  0.00  0.00     0.066 H 
ATOM     51  H16 LIA d          -5.294  29.569   7.088  0.00  0.00     0.066 H 
ENDBRANCH  47  48
ENDBRANCH  45  47
ENDBRANCH  35  37
ENDBRANCH   5  35
TORSDOF 7
ENDMDL
MODEL 2
REMARK VINA RESULT:      -8.2      2.876      4.059
REMARK  7 active torsions:
REMARK  status: ('A' for Active; 'I' for Inactive)
REMARK    1  A    between atoms: N1_1  and  S27_27 
REMARK    2  A    between atoms: C4_4  and  N7_7 
REMARK    3  A    between atoms: C11_11  and  C14_14 
REMARK    4  A    between atoms: C14_14  and  C16_16 
REMARK    5  A    between atoms: C21_21  and  O22_22 
REMARK    6  A    between atoms: O22_22  and  C23_23 
REMARK    7  A    between atoms: S27_27  and  C28_28 
ROOT
ATOM      1  N7  LIA d           3.054  24.725   9.803  0.00  0.00    -0.218 N 
ATOM      2  C8  LIA d           2.189  25.679  10.253  0.00  0.00     0.724 A 
ATOM      3  N9  LIA d           2.063  26.877   9.621  0.00  0.00    -0.074 NA
ATOM      4  C10 LIA d           1.222  27.761  10.063  0.00  0.00     0.038 A 
ATOM      5  C11 LIA d           0.387  27.536  11.228  0.00  0.00     0.079 A 
ATOM      6  C12 LIA d           0.558  26.255  11.877  0.00  0.00     0.156 A 
ATOM      7  N13 LIA d           1.463  25.356  11.363  0.00  0.00    -0.045 NA
ATOM      8  N26 LIA d          -0.133  25.884  12.971  0.00  0.00    -0.383 N 
ATOM      9  H10 LIA d           3.402  23.963  10.402  0.00  0.00     0.178 HD
ATOM     10  H11 LIA d           1.141  28.707   9.541  0.00  0.00     0.117 H 
ATOM     11  H17 LIA d           0.029  24.958  13.393  0.00  0.00     0.157 HD
ATOM     12  H18 LIA d          -0.823  26.526  13.386  0.00  0.00     0.157 HD
ENDROOT
BRANCH   1  13
ATOM     13  C4  LIA d           3.450  24.874   8.396  0.00  0.00     0.029 C 
ATOM     14  C3  LIA d           4.651  25.853   8.337  0.00  0.00    -0.034 C 
ATOM     15  C2  LIA d           5.218  25.938   6.904  0.00  0.00    -0.005 C 
ATOM     16  H3  LIA d           4.318  26.852   8.653  0.00  0.00     0.037 H 
ATOM     17  H4  LIA d           5.440  25.497   9.016  0.00  0.00     0.037 H 
ATOM     18  N1  LIA d           5.635  24.581   6.452  0.00  0.00    -0.211 NA
ATOM     19  H1  LIA d           4.443  26.327   6.227  0.00  0.00     0.057 H 
ATOM     20  H2  LIA d           6.087  26.611   6.893  0.00  0.00     0.057 H 
ATOM     21  C6  LIA d           4.449  23.677   6.358  0.00  0.00    -0.005 C 
ATOM     22  C5  LIA d           3.836  23.492   7.762  0.00  0.00    -0.034 C 
ATOM     23  H8  LIA d           4.763  22.700   5.963  0.00  0.00     0.057 H 
ATOM     24  H9  LIA d           3.701  24.121   5.686  0.00  0.00     0.057 H 
ATOM     25  H6  LIA d           2.933  22.869   7.681  0.00  0.00     0.037 H 
ATOM     26  H7  LIA d           4.569  22.991   8.412  0.00  0.00     0.037 H 
ATOM     27  H5  LIA d           2.609  25.297   7.829  0.00  0.00     0.073 H 
BRANCH  18  28
ATOM     28  S27 LIA d           6.457  24.666   4.970  0.00  0.00     0.207 S 
ATOM     29  O29 LIA d           7.862  24.852   5.256  0.00  0.00    -0.212 OA
ATOM     30  O30 LIA d           5.963  25.796   4.230  0.00  0.00    -0.212 OA
BRANCH  28  31
ATOM     31  C28 LIA d           6.263  23.147   3.973  0.00  0.00     0.028 C 
ATOM     32  H19 LIA d           6.588  23.342   2.940  0.00  0.00     0.050 H 
ATOM     33  H20 LIA d           5.206  22.841   3.972  0.00  0.00     0.050 H 
ATOM     34  H21 LIA d           6.878  22.344   4.405  0.00  0.00     0.050 H 
ENDBRANCH  28  31
ENDBRANCH  18  28
ENDBRANCH   1  13
BRANCH   5  35
ATOM     35  C14 LIA d          -0.547  28.565  11.663  0.00  0.00     0.203 C 
ATOM     36  O15 LIA d          -0.341  29.208  12.707  0.00  0.00    -0.286 OA
BRANCH  35  37
ATOM     37  C16 LIA d          -1.748  28.850  10.911  0.00  0.00     0.090 A 
ATOM     38  C17 LIA d          -1.722  29.874   9.899  0.00  0.00     0.171 A 
ATOM     39  C18 LIA d          -2.895  30.168   9.135  0.00  0.00     0.156 A 
ATOM     40  F24 LIA d          -0.612  30.566   9.658  0.00  0.00    -0.202 F 
ATOM     41  C19 LIA d          -4.106  29.450   9.361  0.00  0.00    -0.040 A 
ATOM     42  F25 LIA d          -2.862  31.107   8.209  0.00  0.00    -0.203 F 
ATOM     43  C20 LIA d          -4.160  28.435  10.358  0.00  0.00    -0.047 A 
ATOM     44  H12 LIA d          -4.988  29.678   8.773  0.00  0.00     0.088 H 
ATOM     45  C21 LIA d          -2.993  28.112  11.152  0.00  0.00     0.085 A 
ATOM     46  H13 LIA d          -5.087  27.898  10.524  0.00  0.00     0.087 H 
BRANCH  45  47
ATOM     47  O22 LIA d          -3.005  27.116  12.153  0.00  0.00    -0.355 OA
BRANCH  47  48
ATOM     48  C23 LIA d          -4.092  26.168  12.003  0.00  0.00     0.010 C 
ATOM     49  H14 LIA d          -5.034  26.713  11.847  0.00  0.00     0.066 H 
ATOM     50  H15 LIA d          -4.171  25.553  12.911  0.00  0.00     0.066 H 
ATOM     51  H16 LIA d          -3.895  25.520  11.136  0.00  0.00     0.066 H 
ENDBRANCH  47  48
ENDBRANCH  45  47
ENDBRANCH  35  37
ENDBRANCH   5  35
TORSDOF 7
ENDMDL
MODEL 3
REMARK VINA RESULT:      -7.7      3.965      5.486
REMARK  7 active torsions:
REMARK  status: ('A' for Active; 'I' for Inactive)
REMARK    1  A    between atoms: N1_1  and  S27_27 
REMARK    2  A    between atoms: C4_4  and  N7_7 
REMARK    3  A    between atoms: C11_11  and  C14_14 
REMARK    4  A    between atoms: C14_14  and  C16_16 
REMARK    5  A    between atoms: C21_21  and  O22_22 
REMARK    6  A    between atoms: O22_22  and  C23_23 
REMARK    7  A    between atoms: S27_27  and  C28_28 
ROOT
ATOM      1  N7  LIA d          -1.229  24.335  12.489  0.00  0.00    -0.218 N 
ATOM      2  C8  LIA d          -1.740  25.423  11.846  0.00  0.00     0.724 A 
ATOM      3  N9  LIA d          -0.987  26.155  10.981  0.00  0.00    -0.074 NA
ATOM      4  C10 LIA d          -1.503  27.179  10.374  0.00  0.00     0.038 A 
ATOM      5  C11 LIA d          -2.878  27.599  10.572  0.00  0.00     0.079 A 
ATOM      6  C12 LIA d          -3.642  26.802  11.506  0.00  0.00     0.156 A 
ATOM      7  N13 LIA d          -3.043  25.726  12.120  0.00  0.00    -0.045 NA
ATOM      8  N26 LIA d          -4.928  27.053  11.810  0.00  0.00    -0.383 N 
ATOM      9  H10 LIA d          -1.641  23.954  13.353  0.00  0.00     0.178 HD
ATOM     10  H11 LIA d          -0.881  27.745   9.689  0.00  0.00     0.117 H 
ATOM     11  H17 LIA d          -5.426  26.452  12.483  0.00  0.00     0.157 HD
ATOM     12  H18 LIA d          -5.416  27.847  11.370  0.00  0.00     0.157 HD
ENDROOT
BRANCH   1  13
ATOM     13  C4  LIA d          -0.043  23.748  11.850  0.00  0.00     0.029 C 
ATOM     14  C3  LIA d          -0.351  23.572  10.341  0.00  0.00    -0.034 C 
ATOM     15  C2  LIA d           0.906  23.101   9.578  0.00  0.00    -0.005 C 
ATOM     16  H3  LIA d          -1.147  22.823  10.221  0.00  0.00     0.037 H 
ATOM     17  H4  LIA d          -0.685  24.534   9.926  0.00  0.00     0.037 H 
ATOM     18  N1  LIA d           2.003  24.090   9.769  0.00  0.00    -0.211 NA
ATOM     19  H1  LIA d           1.224  22.122   9.965  0.00  0.00     0.057 H 
ATOM     20  H2  LIA d           0.674  23.014   8.507  0.00  0.00     0.057 H 
ATOM     21  C6  LIA d           2.409  24.147  11.206  0.00  0.00    -0.005 C 
ATOM     22  C5  LIA d           1.221  24.655  12.051  0.00  0.00    -0.034 C 
ATOM     23  H8  LIA d           3.261  24.833  11.320  0.00  0.00     0.057 H 
ATOM     24  H9  LIA d           2.698  23.142  11.546  0.00  0.00     0.057 H 
ATOM     25  H6  LIA d           1.506  24.644  13.114  0.00  0.00     0.037 H 
ATOM     26  H7  LIA d           0.977  25.683  11.747  0.00  0.00     0.037 H 
ATOM     27  H5  LIA d           0.156  22.764  12.298  0.00  0.00     0.073 H 
BRANCH  18  28
ATOM     28  S27 LIA d           3.328  23.719   8.776  0.00  0.00     0.207 S 
ATOM     29  O29 LIA d           2.870  22.800   7.757  0.00  0.00    -0.212 OA
ATOM     30  O30 LIA d           4.343  23.085   9.572  0.00  0.00    -0.212 OA
BRANCH  28  31
ATOM     31  C28 LIA d           4.025  25.196   7.955  0.00  0.00     0.028 C 
ATOM     32  H19 LIA d           3.557  26.101   8.369  0.00  0.00     0.050 H 
ATOM     33  H20 LIA d           3.825  25.143   6.874  0.00  0.00     0.050 H 
ATOM     34  H21 LIA d           5.110  25.233   8.127  0.00  0.00     0.050 H 
ENDBRANCH  28  31
ENDBRANCH  18  28
ENDBRANCH   1  13
BRANCH   5  35
ATOM     35  C14 LIA d          -3.399  28.748   9.847  0.00  0.00     0.203 C 
ATOM     36  O15 LIA d          -4.465  28.667   9.213  0.00  0.00    -0.286 OA
BRANCH  35  37
ATOM     37  C16 LIA d          -2.683  30.004   9.821  0.00  0.00     0.090 A 
ATOM     38  C17 LIA d          -3.043  31.042  10.752  0.00  0.00     0.171 A 
ATOM     39  C18 LIA d          -2.343  32.289  10.753  0.00  0.00     0.156 A 
ATOM     40  F24 LIA d          -4.032  30.863  11.623  0.00  0.00    -0.202 F 
ATOM     41  C19 LIA d          -1.277  32.523   9.835  0.00  0.00    -0.040 A 
ATOM     42  F25 LIA d          -2.679  33.235  11.609  0.00  0.00    -0.203 F 
ATOM     43  C20 LIA d          -0.903  31.515   8.903  0.00  0.00    -0.047 A 
ATOM     44  H12 LIA d          -0.750  33.470   9.848  0.00  0.00     0.088 H 
ATOM     45  C21 LIA d          -1.590  30.240   8.872  0.00  0.00     0.085 A 
ATOM     46  H13 LIA d          -0.093  31.704   8.207  0.00  0.00     0.087 H 
BRANCH  45  47
ATOM     47  O22 LIA d          -1.254  29.215   7.960  0.00  0.00    -0.355 OA
BRANCH  47  48
ATOM     48  C23 LIA d           0.145  29.225   7.581  0.00  0.00     0.010 C 
ATOM     49  H14 LIA d           0.319  30.018   6.838  0.00  0.00     0.066 H 
ATOM     50  H15 LIA d           0.415  28.252   7.146  0.00  0.00     0.066 H 
ATOM     51  H16 LIA d           0.765  29.414   8.470  0.00  0.00     0.066 H 
ENDBRANCH  47  48
ENDBRANCH  45  47
ENDBRANCH  35  37
ENDBRANCH   5  35
TORSDOF 7
ENDMDL
MODEL 4
REMARK VINA RESULT:      -7.1      1.938      2.541
REMARK  7 active torsions:
REMARK  status: ('A' for Active; 'I' for Inactive)
REMARK    1  A    between atoms: N1_1  and  S27_27 
REMARK    2  A    between atoms: C4_4  and  N7_7 
REMARK    3  A    between atoms: C11_11  and  C14_14 
REMARK    4  A    between atoms: C14_14  and  C16_16 
REMARK    5  A    between atoms: C21_21  and  O22_22 
REMARK    6  A    between atoms: O22_22  and  C23_23 
REMARK    7  A    between atoms: S27_27  and  C28_28 
ROOT
ATOM      1  N7  LIA d           2.024  28.998   6.680  0.00  0.00    -0.218 N 
ATOM      2  C8  LIA d           1.431  28.805   7.893  0.00  0.00     0.724 A 
ATOM      3  N9  LIA d           1.779  27.762   8.695  0.00  0.00    -0.074 NA
ATOM      4  C10 LIA d           1.206  27.609   9.849  0.00  0.00     0.038 A 
ATOM      5  C11 LIA d           0.186  28.514  10.345  0.00  0.00     0.079 A 
ATOM      6  C12 LIA d          -0.163  29.603   9.459  0.00  0.00     0.156 A 
ATOM      7  N13 LIA d           0.478  29.716   8.247  0.00  0.00    -0.045 NA
ATOM      8  N26 LIA d          -1.091  30.530   9.759  0.00  0.00    -0.383 N 
ATOM      9  H10 LIA d           1.594  29.561   5.933  0.00  0.00     0.178 HD
ATOM     10  H11 LIA d           1.502  26.771  10.469  0.00  0.00     0.117 H 
ATOM     11  H17 LIA d          -1.300  31.285   9.090  0.00  0.00     0.157 HD
ATOM     12  H18 LIA d          -1.593  30.484  10.658  0.00  0.00     0.157 HD
ENDROOT
BRANCH   1  13
ATOM     13  C4  LIA d           3.329  28.339   6.526  0.00  0.00     0.029 C 
ATOM     14  C3  LIA d           4.005  28.283   7.920  0.00  0.00    -0.034 C 
ATOM     15  C2  LIA d           5.313  27.467   7.861  0.00  0.00    -0.005 C 
ATOM     16  H3  LIA d           4.232  29.306   8.252  0.00  0.00     0.037 H 
ATOM     17  H4  LIA d           3.316  27.810   8.636  0.00  0.00     0.037 H 
ATOM     18  N1  LIA d           5.020  26.090   7.373  0.00  0.00    -0.211 NA
ATOM     19  H1  LIA d           6.019  27.956   7.174  0.00  0.00     0.057 H 
ATOM     20  H2  LIA d           5.757  27.413   8.865  0.00  0.00     0.057 H 
ATOM     21  C6  LIA d           4.514  26.133   5.969  0.00  0.00    -0.005 C 
ATOM     22  C5  LIA d           3.173  26.896   5.932  0.00  0.00    -0.034 C 
ATOM     23  H8  LIA d           4.363  25.107   5.602  0.00  0.00     0.057 H 
ATOM     24  H9  LIA d           5.247  26.646   5.329  0.00  0.00     0.057 H 
ATOM     25  H6  LIA d           2.831  26.971   4.889  0.00  0.00     0.037 H 
ATOM     26  H7  LIA d           2.428  26.343   6.523  0.00  0.00     0.037 H 
ATOM     27  H5  LIA d           3.953  28.934   5.843  0.00  0.00     0.073 H 
BRANCH  18  28
ATOM     28  S27 LIA d           6.394  25.102   7.498  0.00  0.00     0.207 S 
ATOM     29  O29 LIA d           5.975  23.833   8.050  0.00  0.00    -0.212 OA
ATOM     30  O30 LIA d           7.334  25.725   8.389  0.00  0.00    -0.212 OA
BRANCH  28  31
ATOM     31  C28 LIA d           7.188  24.798   5.880  0.00  0.00     0.028 C 
ATOM     32  H19 LIA d           6.881  23.813   5.500  0.00  0.00     0.050 H 
ATOM     33  H20 LIA d           8.282  24.820   5.999  0.00  0.00     0.050 H 
ATOM     34  H21 LIA d           6.880  25.578   5.168  0.00  0.00     0.050 H 
ENDBRANCH  28  31
ENDBRANCH  18  28
ENDBRANCH   1  13
BRANCH   5  35
ATOM     35  C14 LIA d          -0.406  28.294  11.656  0.00  0.00     0.203 C 
ATOM     36  O15 LIA d          -0.061  28.984  12.631  0.00  0.00    -0.286 OA
BRANCH  35  37
ATOM     37  C16 LIA d          -1.388  27.255  11.869  0.00  0.00     0.090 A 
ATOM     38  C17 LIA d          -0.958  25.958  12.326  0.00  0.00     0.171 A 
ATOM     39  C18 LIA d          -1.912  24.918  12.553  0.00  0.00     0.156 A 
ATOM     40  F24 LIA d           0.329  25.704  12.540  0.00  0.00    -0.202 F 
ATOM     41  C19 LIA d          -3.302  25.147  12.335  0.00  0.00    -0.040 A 
ATOM     42  F25 LIA d          -1.510  23.733  12.972  0.00  0.00    -0.203 F 
ATOM     43  C20 LIA d          -3.754  26.418  11.880  0.00  0.00    -0.047 A 
ATOM     44  H12 LIA d          -4.017  24.352  12.515  0.00  0.00     0.088 H 
ATOM     45  C21 LIA d          -2.816  27.496  11.638  0.00  0.00     0.085 A 
ATOM     46  H13 LIA d          -4.812  26.582  11.714  0.00  0.00     0.087 H 
BRANCH  45  47
ATOM     47  O22 LIA d          -3.222  28.770  11.182  0.00  0.00    -0.355 OA
BRANCH  47  48
ATOM     48  C23 LIA d          -4.322  28.716  10.240  0.00  0.00     0.010 C 
ATOM     49  H14 LIA d          -3.926  28.699   9.214  0.00  0.00     0.066 H 
ATOM     50  H15 LIA d          -4.961  29.601  10.371  0.00  0.00     0.066 H 
ATOM     51  H16 LIA d          -4.914  27.807  10.420  0.00  0.00     0.066 H 
ENDBRANCH  47  48
ENDBRANCH  45  47
ENDBRANCH  35  37
ENDBRANCH   5  35
TORSDOF 7
ENDMDL
MODEL 5
REMARK VINA RESULT:      -7.0      2.334      3.216
REMARK  7 active torsions:
REMARK  status: ('A' for Active; 'I' for Inactive)
REMARK    1  A    between atoms: N1_1  and  S27_27 
REMARK    2  A    between atoms: C4_4  and  N7_7 
REMARK    3  A    between atoms: C11_11  and  C14_14 
REMARK    4  A    between atoms: C14_14  and  C16_16 
REMARK    5  A    between atoms: C21_21  and  O22_22 
REMARK    6  A    between atoms: O22_22  and  C23_23 
REMARK    7  A    between atoms: S27_27  and  C28_28 
ROOT
ATOM      1  N7  LIA d           2.156  28.815   6.607  0.00  0.00    -0.218 N 
ATOM      2  C8  LIA d           1.571  28.652   7.828  0.00  0.00     0.724 A 
ATOM      3  N9  LIA d           1.904  27.613   8.642  0.00  0.00    -0.074 NA
ATOM      4  C10 LIA d           1.340  27.490   9.804  0.00  0.00     0.038 A 
ATOM      5  C11 LIA d           0.346  28.424  10.297  0.00  0.00     0.079 A 
ATOM      6  C12 LIA d           0.013  29.508   9.400  0.00  0.00     0.156 A 
ATOM      7  N13 LIA d           0.643  29.590   8.180  0.00  0.00    -0.045 NA
ATOM      8  N26 LIA d          -0.891  30.461   9.696  0.00  0.00    -0.383 N 
ATOM      9  H10 LIA d           1.730  29.376   5.856  0.00  0.00     0.178 HD
ATOM     10  H11 LIA d           1.623  26.653  10.432  0.00  0.00     0.117 H 
ATOM     11  H17 LIA d          -1.090  31.211   9.019  0.00  0.00     0.157 HD
ATOM     12  H18 LIA d          -1.384  30.439  10.600  0.00  0.00     0.157 HD
ENDROOT
BRANCH   1  13
ATOM     13  C4  LIA d           3.443  28.124   6.449  0.00  0.00     0.029 C 
ATOM     14  C3  LIA d           4.195  28.197   7.802  0.00  0.00    -0.034 C 
ATOM     15  C2  LIA d           5.491  27.359   7.754  0.00  0.00    -0.005 C 
ATOM     16  H3  LIA d           4.451  29.245   8.016  0.00  0.00     0.037 H 
ATOM     17  H4  LIA d           3.544  27.808   8.598  0.00  0.00     0.037 H 
ATOM     18  N1  LIA d           5.157  25.945   7.425  0.00  0.00    -0.211 NA
ATOM     19  H1  LIA d           6.162  27.766   6.983  0.00  0.00     0.057 H 
ATOM     20  H2  LIA d           5.990  27.399   8.733  0.00  0.00     0.057 H 
ATOM     21  C6  LIA d           4.573  25.854   6.052  0.00  0.00    -0.005 C 
ATOM     22  C5  LIA d           3.240  26.631   6.013  0.00  0.00    -0.034 C 
ATOM     23  H8  LIA d           4.392  24.800   5.800  0.00  0.00     0.057 H 
ATOM     24  H9  LIA d           5.274  26.290   5.325  0.00  0.00     0.057 H 
ATOM     25  H6  LIA d           2.841  26.606   4.988  0.00  0.00     0.037 H 
ATOM     26  H7  LIA d           2.524  26.151   6.697  0.00  0.00     0.037 H 
ATOM     27  H5  LIA d           4.034  28.637   5.676  0.00  0.00     0.073 H 
BRANCH  18  28
ATOM     28  S27 LIA d           6.526  24.953   7.573  0.00  0.00     0.207 S 
ATOM     29  O29 LIA d           7.463  25.624   8.446  0.00  0.00    -0.212 OA
ATOM     30  O30 LIA d           7.118  24.782   6.274  0.00  0.00    -0.212 OA
BRANCH  28  31
ATOM     31  C28 LIA d           6.133  23.318   8.289  0.00  0.00     0.028 C 
ATOM     32  H19 LIA d           6.999  22.949   8.858  0.00  0.00     0.050 H 
ATOM     33  H20 LIA d           5.898  22.611   7.480  0.00  0.00     0.050 H 
ATOM     34  H21 LIA d           5.266  23.410   8.959  0.00  0.00     0.050 H 
ENDBRANCH  28  31
ENDBRANCH  18  28
ENDBRANCH   1  13
BRANCH   5  35
ATOM     35  C14 LIA d          -0.237  28.236  11.618  0.00  0.00     0.203 C 
ATOM     36  O15 LIA d           0.144  28.923  12.582  0.00  0.00    -0.286 OA
BRANCH  35  37
ATOM     37  C16 LIA d          -1.252  27.234  11.852  0.00  0.00     0.090 A 
ATOM     38  C17 LIA d          -2.635  27.562  11.621  0.00  0.00     0.171 A 
ATOM     39  C18 LIA d          -3.657  26.585  11.835  0.00  0.00     0.156 A 
ATOM     40  F24 LIA d          -2.988  28.776  11.208  0.00  0.00    -0.202 F 
ATOM     41  C19 LIA d          -3.323  25.272  12.279  0.00  0.00    -0.040 A 
ATOM     42  F25 LIA d          -4.922  26.894  11.621  0.00  0.00    -0.203 F 
ATOM     43  C20 LIA d          -1.964  24.922  12.518  0.00  0.00    -0.047 A 
ATOM     44  H12 LIA d          -4.105  24.537  12.433  0.00  0.00     0.088 H 
ATOM     45  C21 LIA d          -0.902  25.887  12.312  0.00  0.00     0.085 A 
ATOM     46  H13 LIA d          -1.721  23.922  12.858  0.00  0.00     0.087 H 
BRANCH  45  47
ATOM     47  O22 LIA d           0.458  25.583  12.543  0.00  0.00    -0.355 OA
BRANCH  47  48
ATOM     48  C23 LIA d           0.863  24.313  11.972  0.00  0.00     0.010 C 
ATOM     49  H14 LIA d           1.834  24.431  11.468  0.00  0.00     0.066 H 
ATOM     50  H15 LIA d           0.110  23.982  11.242  0.00  0.00     0.066 H 
ATOM     51  H16 LIA d           0.954  23.564  12.771  0.00  0.00     0.066 H 
ENDBRANCH  47  48
ENDBRANCH  45  47
ENDBRANCH  35  37
ENDBRANCH   5  35
TORSDOF 7
ENDMDL
MODEL 6
REMARK VINA RESULT:      -6.5      4.512      8.885
REMARK  7 active torsions:
REMARK  status: ('A' for Active; 'I' for Inactive)
REMARK    1  A    between atoms: N1_1  and  S27_27 
REMARK    2  A    between atoms: C4_4  and  N7_7 
REMARK    3  A    between atoms: C11_11  and  C14_14 
REMARK    4  A    between atoms: C14_14  and  C16_16 
REMARK    5  A    between atoms: C21_21  and  O22_22 
REMARK    6  A    between atoms: O22_22  and  C23_23 
REMARK    7  A    between atoms: S27_27  and  C28_28 
ROOT
ATOM      1  N7  LIA d           0.470  28.334   9.727  0.00  0.00    -0.218 N 
ATOM      2  C8  LIA d           1.479  27.928   8.905  0.00  0.00     0.724 A 
ATOM      3  N9  LIA d           2.202  26.806   9.169  0.00  0.00    -0.074 NA
ATOM      4  C10 LIA d           3.149  26.436   8.363  0.00  0.00     0.038 A 
ATOM      5  C11 LIA d           3.491  27.175   7.162  0.00  0.00     0.079 A 
ATOM      6  C12 LIA d           2.706  28.366   6.922  0.00  0.00     0.156 A 
ATOM      7  N13 LIA d           1.714  28.709   7.810  0.00  0.00    -0.045 NA
ATOM      8  N26 LIA d           2.892  29.170   5.858  0.00  0.00    -0.383 N 
ATOM      9  H10 LIA d           0.119  29.302   9.742  0.00  0.00     0.178 HD
ATOM     10  H11 LIA d           3.709  25.538   8.597  0.00  0.00     0.117 H 
ATOM     11  H17 LIA d           2.304  30.007   5.736  0.00  0.00     0.157 HD
ATOM     12  H18 LIA d           3.623  28.949   5.167  0.00  0.00     0.157 HD
ENDROOT
BRANCH   1  13
ATOM     13  C4  LIA d          -0.078  27.278  10.589  0.00  0.00     0.029 C 
ATOM     14  C3  LIA d          -1.337  27.842  11.297  0.00  0.00    -0.034 C 
ATOM     15  C2  LIA d          -2.052  26.738  12.103  0.00  0.00    -0.005 C 
ATOM     16  H3  LIA d          -1.035  28.650  11.980  0.00  0.00     0.037 H 
ATOM     17  H4  LIA d          -2.028  28.241  10.540  0.00  0.00     0.037 H 
ATOM     18  N1  LIA d          -2.429  25.621  11.192  0.00  0.00    -0.211 NA
ATOM     19  H1  LIA d          -1.378  26.360  12.886  0.00  0.00     0.057 H 
ATOM     20  H2  LIA d          -2.958  27.152  12.569  0.00  0.00     0.057 H 
ATOM     21  C6  LIA d          -1.206  24.973  10.630  0.00  0.00    -0.005 C 
ATOM     22  C5  LIA d          -0.441  25.996   9.763  0.00  0.00    -0.034 C 
ATOM     23  H8  LIA d          -1.498  24.113  10.011  0.00  0.00     0.057 H 
ATOM     24  H9  LIA d          -0.560  24.632  11.452  0.00  0.00     0.057 H 
ATOM     25  H6  LIA d           0.486  25.531   9.394  0.00  0.00     0.037 H 
ATOM     26  H7  LIA d          -1.071  26.285   8.909  0.00  0.00     0.037 H 
ATOM     27  H5  LIA d           0.673  27.007  11.346  0.00  0.00     0.073 H 
BRANCH  18  28
ATOM     28  S27 LIA d          -3.403  24.490  11.998  0.00  0.00     0.207 S 
ATOM     29  O29 LIA d          -2.575  23.803  12.964  0.00  0.00    -0.212 OA
ATOM     30  O30 LIA d          -3.907  23.544  11.040  0.00  0.00    -0.212 OA
BRANCH  28  31
ATOM     31  C28 LIA d          -4.800  25.270  12.882  0.00  0.00     0.028 C 
ATOM     32  H19 LIA d          -5.344  24.506  13.456  0.00  0.00     0.050 H 
ATOM     33  H20 LIA d          -5.481  25.735  12.153  0.00  0.00     0.050 H 
ATOM     34  H21 LIA d          -4.416  26.039  13.568  0.00  0.00     0.050 H 
ENDBRANCH  28  31
ENDBRANCH  18  28
ENDBRANCH   1  13
BRANCH   5  35
ATOM     35  C14 LIA d           4.555  26.697   6.292  0.00  0.00     0.203 C 
ATOM     36  O15 LIA d           4.934  27.377   5.322  0.00  0.00    -0.286 OA
BRANCH  35  37
ATOM     37  C16 LIA d           5.182  25.414   6.513  0.00  0.00     0.090 A 
ATOM     38  C17 LIA d           6.073  25.245   7.632  0.00  0.00     0.171 A 
ATOM     39  C18 LIA d           6.696  23.982   7.878  0.00  0.00     0.156 A 
ATOM     40  F24 LIA d           6.333  26.258   8.454  0.00  0.00    -0.202 F 
ATOM     41  C19 LIA d           6.446  22.871   7.021  0.00  0.00    -0.040 A 
ATOM     42  F25 LIA d           7.511  23.837   8.906  0.00  0.00    -0.203 F 
ATOM     43  C20 LIA d           5.572  23.010   5.906  0.00  0.00    -0.047 A 
ATOM     44  H12 LIA d           6.921  21.916   7.220  0.00  0.00     0.088 H 
ATOM     45  C21 LIA d           4.924  24.275   5.625  0.00  0.00     0.085 A 
ATOM     46  H13 LIA d           5.391  22.160   5.259  0.00  0.00     0.087 H 
BRANCH  45  47
ATOM     47  O22 LIA d           4.054  24.458   4.527  0.00  0.00    -0.355 OA
BRANCH  47  48
ATOM     48  C23 LIA d           3.478  23.218   4.043  0.00  0.00     0.010 C 
ATOM     49  H14 LIA d           2.412  23.180   4.311  0.00  0.00     0.066 H 
ATOM     50  H15 LIA d           4.001  22.367   4.502  0.00  0.00     0.066 H 
ATOM     51  H16 LIA d           3.584  23.167   2.950  0.00  0.00     0.066 H 
ENDBRANCH  47  48
ENDBRANCH  45  47
ENDBRANCH  35  37
ENDBRANCH   5  35
TORSDOF 7
ENDMDL
MODEL 7
REMARK VINA RESULT:      -5.8      3.822      5.190
REMARK  7 active torsions:
REMARK  status: ('A' for Active; 'I' for Inactive)
REMARK    1  A    between atoms: N1_1  and  S27_27 
REMARK    2  A    between atoms: C4_4  and  N7_7 
REMARK    3  A    between atoms: C11_11  and  C14_14 
REMARK    4  A    between atoms: C14_14  and  C16_16 
REMARK    5  A    between atoms: C21_21  and  O22_22 
REMARK    6  A    between atoms: O22_22  and  C23_23 
REMARK    7  A    between atoms: S27_27  and  C28_28 
ROOT
ATOM      1  N7  LIA d          -0.198  24.273  12.274  0.00  0.00    -0.218 N 
ATOM      2  C8  LIA d          -0.814  25.331  11.673  0.00  0.00     0.724 A 
ATOM      3  N9  LIA d          -0.181  26.076  10.726  0.00  0.00    -0.074 NA
ATOM      4  C10 LIA d          -0.796  27.069  10.162  0.00  0.00     0.038 A 
ATOM      5  C11 LIA d          -2.158  27.442  10.496  0.00  0.00     0.079 A 
ATOM      6  C12 LIA d          -2.791  26.633  11.514  0.00  0.00     0.156 A 
ATOM      7  N13 LIA d          -2.092  25.590  12.076  0.00  0.00    -0.045 NA
ATOM      8  N26 LIA d          -4.048  26.842  11.946  0.00  0.00    -0.383 N 
ATOM      9  H10 LIA d          -0.504  23.892  13.181  0.00  0.00     0.178 HD
ATOM     10  H11 LIA d          -0.270  27.646   9.410  0.00  0.00     0.117 H 
ATOM     11  H17 LIA d          -4.450  26.234  12.675  0.00  0.00     0.157 HD
ATOM     12  H18 LIA d          -4.609  27.610  11.550  0.00  0.00     0.157 HD
ENDROOT
BRANCH   1  13
ATOM     13  C4  LIA d           0.937  23.719  11.523  0.00  0.00     0.029 C 
ATOM     14  C3  LIA d           0.465  23.448  10.072  0.00  0.00    -0.034 C 
ATOM     15  C2  LIA d           1.649  23.008   9.184  0.00  0.00    -0.005 C 
ATOM     16  H3  LIA d          -0.293  22.652  10.082  0.00  0.00     0.037 H 
ATOM     17  H4  LIA d           0.026  24.368   9.657  0.00  0.00     0.037 H 
ATOM     18  N1  LIA d           2.700  24.064   9.197  0.00  0.00    -0.211 NA
ATOM     19  H1  LIA d           2.069  22.069   9.574  0.00  0.00     0.057 H 
ATOM     20  H2  LIA d           1.298  22.853   8.154  0.00  0.00     0.057 H 
ATOM     21  C6  LIA d           3.267  24.217  10.570  0.00  0.00    -0.005 C 
ATOM     22  C5  LIA d           2.159  24.702  11.529  0.00  0.00    -0.034 C 
ATOM     23  H8  LIA d           4.084  24.953  10.550  0.00  0.00     0.057 H 
ATOM     24  H9  LIA d           3.655  23.248  10.918  0.00  0.00     0.057 H 
ATOM     25  H6  LIA d           2.568  24.762  12.549  0.00  0.00     0.037 H 
ATOM     26  H7  LIA d           1.820  25.699  11.210  0.00  0.00     0.037 H 
ATOM     27  H5  LIA d           1.248  22.772  11.987  0.00  0.00     0.073 H 
BRANCH  18  28
ATOM     28  S27 LIA d           3.917  23.714   8.068  0.00  0.00     0.207 S 
ATOM     29  O29 LIA d           4.337  24.963   7.472  0.00  0.00    -0.212 OA
ATOM     30  O30 LIA d           3.375  22.855   7.051  0.00  0.00    -0.212 OA
BRANCH  28  31
ATOM     31  C28 LIA d           5.374  22.918   8.833  0.00  0.00     0.028 C 
ATOM     32  H19 LIA d           6.105  23.688   9.121  0.00  0.00     0.050 H 
ATOM     33  H20 LIA d           5.836  22.228   8.111  0.00  0.00     0.050 H 
ATOM     34  H21 LIA d           5.060  22.358   9.726  0.00  0.00     0.050 H 
ENDBRANCH  28  31
ENDBRANCH  18  28
ENDBRANCH   1  13
BRANCH   5  35
ATOM     35  C14 LIA d          -2.794  28.559   9.814  0.00  0.00     0.203 C 
ATOM     36  O15 LIA d          -3.919  28.431   9.301  0.00  0.00    -0.286 OA
BRANCH  35  37
ATOM     37  C16 LIA d          -2.130  29.838   9.693  0.00  0.00     0.090 A 
ATOM     38  C17 LIA d          -1.245  30.072   8.581  0.00  0.00     0.171 A 
ATOM     39  C18 LIA d          -0.585  31.332   8.434  0.00  0.00     0.156 A 
ATOM     40  F24 LIA d          -1.023  29.124   7.676  0.00  0.00    -0.202 F 
ATOM     41  C19 LIA d          -0.794  32.376   9.382  0.00  0.00    -0.040 A 
ATOM     42  F25 LIA d           0.224  31.538   7.412  0.00  0.00    -0.203 F 
ATOM     43  C20 LIA d          -1.662  32.170  10.492  0.00  0.00    -0.047 A 
ATOM     44  H12 LIA d          -0.292  33.329   9.258  0.00  0.00     0.088 H 
ATOM     45  C21 LIA d          -2.346  30.906  10.674  0.00  0.00     0.085 A 
ATOM     46  H13 LIA d          -1.812  32.969  11.209  0.00  0.00     0.087 H 
BRANCH  45  47
ATOM     47  O22 LIA d          -3.211  30.659  11.764  0.00  0.00    -0.355 OA
BRANCH  47  48
ATOM     48  C23 LIA d          -4.599  30.958  11.470  0.00  0.00     0.010 C 
ATOM     49  H14 LIA d          -5.090  30.061  11.066  0.00  0.00     0.066 H 
ATOM     50  H15 LIA d          -4.650  31.769  10.729  0.00  0.00     0.066 H 
ATOM     51  H16 LIA d          -5.109  31.272  12.392  0.00  0.00     0.066 H 
ENDBRANCH  47  48
ENDBRANCH  45  47
ENDBRANCH  35  37
ENDBRANCH   5  35
TORSDOF 7
ENDMDL
MODEL 8
REMARK VINA RESULT:      -5.8      4.495      8.879
REMARK  7 active torsions:
REMARK  status: ('A' for Active; 'I' for Inactive)
REMARK    1  A    between atoms: N1_1  and  S27_27 
REMARK    2  A    between atoms: C4_4  and  N7_7 
REMARK    3  A    between atoms: C11_11  and  C14_14 
REMARK    4  A    between atoms: C14_14  and  C16_16 
REMARK    5  A    between atoms: C21_21  and  O22_22 
REMARK    6  A    between atoms: O22_22  and  C23_23 
REMARK    7  A    between atoms: S27_27  and  C28_28 
ROOT
ATOM      1  N7  LIA d           0.643  28.602  10.009  0.00  0.00    -0.218 N 
ATOM      2  C8  LIA d           1.569  28.246   9.073  0.00  0.00     0.724 A 
ATOM      3  N9  LIA d           2.280  27.090   9.182  0.00  0.00    -0.074 NA
ATOM      4  C10 LIA d           3.146  26.771   8.270  0.00  0.00     0.038 A 
ATOM      5  C11 LIA d           3.407  27.602   7.109  0.00  0.00     0.079 A 
ATOM      6  C12 LIA d           2.639  28.825   7.036  0.00  0.00     0.156 A 
ATOM      7  N13 LIA d           1.733  29.112   8.031  0.00  0.00    -0.045 NA
ATOM      8  N26 LIA d           2.758  29.712   6.031  0.00  0.00    -0.383 N 
ATOM      9  H10 LIA d           0.322  29.572  10.133  0.00  0.00     0.178 HD
ATOM     10  H11 LIA d           3.698  25.845   8.380  0.00  0.00     0.117 H 
ATOM     11  H17 LIA d           2.186  30.569   6.028  0.00  0.00     0.157 HD
ATOM     12  H18 LIA d           3.422  29.535   5.263  0.00  0.00     0.157 HD
ENDROOT
BRANCH   1  13
ATOM     13  C4  LIA d           0.139  27.488  10.825  0.00  0.00     0.029 C 
ATOM     14  C3  LIA d          -1.206  27.928  11.457  0.00  0.00    -0.034 C 
ATOM     15  C2  LIA d          -1.869  26.752  12.206  0.00  0.00    -0.005 C 
ATOM     16  H3  LIA d          -1.021  28.748  12.165  0.00  0.00     0.037 H 
ATOM     17  H4  LIA d          -1.882  28.276  10.662  0.00  0.00     0.037 H 
ATOM     18  N1  LIA d          -2.087  25.621  11.261  0.00  0.00    -0.211 NA
ATOM     19  H1  LIA d          -1.213  26.424  13.025  0.00  0.00     0.057 H 
ATOM     20  H2  LIA d          -2.835  27.077  12.617  0.00  0.00     0.057 H 
ATOM     21  C6  LIA d          -0.779  25.093  10.771  0.00  0.00    -0.005 C 
ATOM     22  C5  LIA d          -0.056  26.192   9.964  0.00  0.00    -0.034 C 
ATOM     23  H8  LIA d          -0.954  24.219  10.126  0.00  0.00     0.057 H 
ATOM     24  H9  LIA d          -0.157  24.797  11.628  0.00  0.00     0.057 H 
ATOM     25  H6  LIA d           0.930  25.817   9.650  0.00  0.00     0.037 H 
ATOM     26  H7  LIA d          -0.655  26.438   9.075  0.00  0.00     0.037 H 
ATOM     27  H5  LIA d           0.863  27.273  11.624  0.00  0.00     0.073 H 
BRANCH  18  28
ATOM     28  S27 LIA d          -3.004  24.395  11.993  0.00  0.00     0.207 S 
ATOM     29  O29 LIA d          -2.130  23.660  12.880  0.00  0.00    -0.212 OA
ATOM     30  O30 LIA d          -3.501  23.514  10.972  0.00  0.00    -0.212 OA
BRANCH  28  31
ATOM     31  C28 LIA d          -4.402  25.053  12.969  0.00  0.00     0.028 C 
ATOM     32  H19 LIA d          -4.369  26.153  12.963  0.00  0.00     0.050 H 
ATOM     33  H20 LIA d          -4.329  24.691  14.006  0.00  0.00     0.050 H 
ATOM     34  H21 LIA d          -5.351  24.713  12.528  0.00  0.00     0.050 H 
ENDBRANCH  28  31
ENDBRANCH  18  28
ENDBRANCH   1  13
BRANCH   5  35
ATOM     35  C14 LIA d           4.381  27.177   6.115  0.00  0.00     0.203 C 
ATOM     36  O15 LIA d           4.861  27.993   5.309  0.00  0.00    -0.286 OA
BRANCH  35  37
ATOM     37  C16 LIA d           4.800  25.797   6.020  0.00  0.00     0.090 A 
ATOM     38  C17 LIA d           4.197  24.942   5.031  0.00  0.00     0.171 A 
ATOM     39  C18 LIA d           4.602  23.576   4.910  0.00  0.00     0.156 A 
ATOM     40  F24 LIA d           3.254  25.403   4.215  0.00  0.00    -0.202 F 
ATOM     41  C19 LIA d           5.609  23.039   5.765  0.00  0.00    -0.040 A 
ATOM     42  F25 LIA d           4.044  22.799   4.000  0.00  0.00    -0.203 F 
ATOM     43  C20 LIA d           6.219  23.861   6.754  0.00  0.00    -0.047 A 
ATOM     44  H12 LIA d           5.911  22.003   5.662  0.00  0.00     0.088 H 
ATOM     45  C21 LIA d           5.833  25.250   6.906  0.00  0.00     0.085 A 
ATOM     46  H13 LIA d           6.981  23.443   7.402  0.00  0.00     0.087 H 
BRANCH  45  47
ATOM     47  O22 LIA d           6.409  26.098   7.877  0.00  0.00    -0.355 OA
BRANCH  47  48
ATOM     48  C23 LIA d           7.418  25.440   8.684  0.00  0.00     0.010 C 
ATOM     49  H14 LIA d           7.132  24.391   8.846  0.00  0.00     0.066 H 
ATOM     50  H15 LIA d           7.503  25.950   9.654  0.00  0.00     0.066 H 
ATOM     51  H16 LIA d           8.387  25.480   8.163  0.00  0.00     0.066 H 
ENDBRANCH  47  48
ENDBRANCH  45  47
ENDBRANCH  35  37
ENDBRANCH   5  35
TORSDOF 7
ENDMDL
MODEL 9
REMARK VINA RESULT:      -5.8      1.904      2.412
REMARK  7 active torsions:
REMARK  status: ('A' for Active; 'I' for Inactive)
REMARK    1  A    between atoms: N1_1  and  S27_27 
REMARK    2  A    between atoms: C4_4  and  N7_7 
REMARK    3  A    between atoms: C11_11  and  C14_14 
REMARK    4  A    between atoms: C14_14  and  C16_16 
REMARK    5  A    between atoms: C21_21  and  O22_22 
REMARK    6  A    between atoms: O22_22  and  C23_23 
REMARK    7  A    between atoms: S27_27  and  C28_28 
ROOT
ATOM      1  N7  LIA d           3.142  28.667   5.913  0.00  0.00    -0.218 N 
ATOM      2  C8  LIA d           2.250  29.167   6.816  0.00  0.00     0.724 A 
ATOM      3  N9  LIA d           1.625  28.360   7.716  0.00  0.00    -0.074 NA
ATOM      4  C10 LIA d           0.789  28.864   8.571  0.00  0.00     0.038 A 
ATOM      5  C11 LIA d           0.475  30.280   8.622  0.00  0.00     0.079 A 
ATOM      6  C12 LIA d           1.153  31.101   7.643  0.00  0.00     0.156 A 
ATOM      7  N13 LIA d           2.029  30.513   6.761  0.00  0.00    -0.045 NA
ATOM      8  N26 LIA d           0.975  32.432   7.547  0.00  0.00    -0.383 N 
ATOM      9  H10 LIA d           3.391  29.162   5.045  0.00  0.00     0.178 HD
ATOM     10  H11 LIA d           0.305  28.200   9.278  0.00  0.00     0.117 H 
ATOM     11  H17 LIA d           1.484  32.969   6.830  0.00  0.00     0.157 HD
ATOM     12  H18 LIA d           0.330  32.913   8.189  0.00  0.00     0.157 HD
ENDROOT
BRANCH   1  13
ATOM     13  C4  LIA d           3.720  27.368   6.280  0.00  0.00     0.029 C 
ATOM     14  C3  LIA d           4.276  26.710   4.991  0.00  0.00    -0.034 C 
ATOM     15  C2  LIA d           5.035  25.408   5.325  0.00  0.00    -0.005 C 
ATOM     16  H3  LIA d           3.440  26.477   4.316  0.00  0.00     0.037 H 
ATOM     17  H4  LIA d           4.964  27.411   4.496  0.00  0.00     0.037 H 
ATOM     18  N1  LIA d           6.146  25.708   6.272  0.00  0.00    -0.211 NA
ATOM     19  H1  LIA d           4.343  24.689   5.788  0.00  0.00     0.057 H 
ATOM     20  H2  LIA d           5.448  24.977   4.402  0.00  0.00     0.057 H 
ATOM     21  C6  LIA d           5.601  26.196   7.575  0.00  0.00    -0.005 C 
ATOM     22  C5  LIA d           4.857  27.529   7.349  0.00  0.00    -0.034 C 
ATOM     23  H8  LIA d           6.428  26.352   8.283  0.00  0.00     0.057 H 
ATOM     24  H9  LIA d           4.903  25.450   7.984  0.00  0.00     0.057 H 
ATOM     25  H6  LIA d           4.412  27.857   8.300  0.00  0.00     0.037 H 
ATOM     26  H7  LIA d           5.574  28.286   6.999  0.00  0.00     0.037 H 
ATOM     27  H5  LIA d           2.930  26.729   6.702  0.00  0.00     0.073 H 
BRANCH  18  28
ATOM     28  S27 LIA d           7.131  24.345   6.495  0.00  0.00     0.207 S 
ATOM     29  O29 LIA d           8.264  24.747   7.299  0.00  0.00    -0.212 OA
ATOM     30  O30 LIA d           7.592  23.890   5.211  0.00  0.00    -0.212 OA
BRANCH  28  31
ATOM     31  C28 LIA d           6.264  22.985   7.353  0.00  0.00     0.028 C 
ATOM     32  H19 LIA d           5.212  22.959   7.032  0.00  0.00     0.050 H 
ATOM     33  H20 LIA d           6.310  23.148   8.440  0.00  0.00     0.050 H 
ATOM     34  H21 LIA d           6.746  22.028   7.105  0.00  0.00     0.050 H 
ENDBRANCH  28  31
ENDBRANCH  18  28
ENDBRANCH   1  13
BRANCH   5  35
ATOM     35  C14 LIA d          -0.460  30.782   9.617  0.00  0.00     0.203 C 
ATOM     36  O15 LIA d          -0.166  31.760  10.326  0.00  0.00    -0.286 OA
BRANCH  35  37
ATOM     37  C16 LIA d          -1.741  30.147   9.828  0.00  0.00     0.090 A 
ATOM     38  C17 LIA d          -2.713  30.145   8.764  0.00  0.00     0.171 A 
ATOM     39  C18 LIA d          -3.983  29.514   8.945  0.00  0.00     0.156 A 
ATOM     40  F24 LIA d          -2.449  30.730   7.600  0.00  0.00    -0.202 F 
ATOM     41  C19 LIA d          -4.307  28.876  10.178  0.00  0.00    -0.040 A 
ATOM     42  F25 LIA d          -4.867  29.517   7.965  0.00  0.00    -0.203 F 
ATOM     43  C20 LIA d          -3.367  28.866  11.246  0.00  0.00    -0.047 A 
ATOM     44  H12 LIA d          -5.272  28.397  10.301  0.00  0.00     0.088 H 
ATOM     45  C21 LIA d          -2.071  29.496  11.100  0.00  0.00     0.085 A 
ATOM     46  H13 LIA d          -3.625  28.381  12.181  0.00  0.00     0.087 H 
BRANCH  45  47
ATOM     47  O22 LIA d          -1.111  29.513  12.137  0.00  0.00    -0.355 OA
BRANCH  47  48
ATOM     48  C23 LIA d           0.187  29.021  11.720  0.00  0.00     0.010 C 
ATOM     49  H14 LIA d           0.373  28.040  12.182  0.00  0.00     0.066 H 
ATOM     50  H15 LIA d           0.967  29.729  12.038  0.00  0.00     0.066 H 
ATOM     51  H16 LIA d           0.208  28.922  10.625  0.00  0.00     0.066 H 
ENDBRANCH  47  48
ENDBRANCH  45  47
ENDBRANCH  35  37
ENDBRANCH   5  35
TORSDOF 7
ENDMDL
