MODEL 1
REMARK VINA RESULT:      -9.3      0.000      0.000
REMARK  6 active torsions:
REMARK  status: ('A' for Active; 'I' for Inactive)
REMARK    1  A    between atoms: C2_2  and  O5_5 
REMARK    2  A    between atoms: O5_5  and  C6_6 
REMARK    3  A    between atoms: C11_9  and  N16_12 
REMARK    4  A    between atoms: N16_12  and  C18_13 
REMARK    5  A    between atoms: C23_17  and  C26_19 
REMARK    6  A    between atoms: C29_21  and  C36_25 
REMARK       I    between atoms: C36_25  and  N38_27 
ROOT
ATOM      1  C18 STJ d          20.881  44.311  54.400  0.00  0.00     0.131 A 
ATOM      2  N19 STJ d          20.906  44.263  55.761  0.00  0.00    -0.224 NA
ATOM      3  C20 STJ d          22.076  44.291  56.446  0.00  0.00     0.089 A 
ATOM      4  N22 STJ d          23.251  44.362  55.776  0.00  0.00    -0.241 NA
ATOM      5  C23 STJ d          23.288  44.409  54.420  0.00  0.00     0.072 A 
ATOM      6  C24 STJ d          22.082  44.380  53.697  0.00  0.00    -0.010 A 
ATOM      7  H6  STJ d          22.071  44.256  57.530  0.00  0.00     0.146 H 
ATOM      8  H7  STJ d          22.087  44.410  52.613  0.00  0.00     0.093 H 
ENDROOT
BRANCH   1   9
ATOM      9  N16 STJ d          19.730  44.289  53.678  0.00  0.00    -0.341 N 
ATOM     10  H5  STJ d          19.121  45.112  53.795  0.00  0.00     0.167 HD
BRANCH   9  11
ATOM     11  C11 STJ d          19.269  43.345  52.827  0.00  0.00     0.033 A 
ATOM     12  C9  STJ d          19.983  42.839  51.737  0.00  0.00    -0.055 A 
ATOM     13  C7  STJ d          19.417  41.871  50.902  0.00  0.00    -0.048 A 
ATOM     14  H2  STJ d          20.985  43.201  51.538  0.00  0.00     0.087 H 
ATOM     15  C6  STJ d          18.107  41.406  51.147  0.00  0.00     0.078 A 
ATOM     16  H1  STJ d          19.985  41.478  50.066  0.00  0.00     0.087 H 
ATOM     17  C14 STJ d          17.383  41.921  52.219  0.00  0.00    -0.048 A 
ATOM     18  C12 STJ d          17.956  42.887  53.055  0.00  0.00    -0.055 A 
ATOM     19  H4  STJ d          16.373  41.574  52.406  0.00  0.00     0.087 H 
ATOM     20  H3  STJ d          17.384  43.286  53.886  0.00  0.00     0.087 H 
BRANCH  15  21
ATOM     21  O5  STJ d          17.510  40.452  50.317  0.00  0.00    -0.255 OA
BRANCH  21  22
ATOM     22  C2  STJ d          17.449  39.101  50.732  0.00  0.00     0.530 C 
ATOM     23  F1  STJ d          16.887  38.414  49.707  0.00  0.00    -0.144 F 
ATOM     24  F3  STJ d          16.698  39.007  51.864  0.00  0.00    -0.144 F 
ATOM     25  F4  STJ d          18.707  38.647  50.971  0.00  0.00    -0.144 F 
ENDBRANCH  21  22
ENDBRANCH  15  21
ENDBRANCH   9  11
ENDBRANCH   1   9
BRANCH   5  26
ATOM     26  C26 STJ d          24.600  44.475  53.736  0.00  0.00    -0.006 A 
ATOM     27  C27 STJ d          24.636  45.070  52.471  0.00  0.00    -0.056 A 
ATOM     28  C29 STJ d          25.826  45.188  51.754  0.00  0.00     0.032 A 
ATOM     29  H8  STJ d          23.717  45.448  52.038  0.00  0.00     0.086 H 
ATOM     30  C30 STJ d          27.019  44.687  52.310  0.00  0.00    -0.068 A 
ATOM     31  C32 STJ d          26.995  44.085  53.582  0.00  0.00    -0.081 A 
ATOM     32  H9  STJ d          27.951  44.766  51.761  0.00  0.00     0.085 H 
ATOM     33  C34 STJ d          25.787  43.977  54.299  0.00  0.00    -0.071 A 
ATOM     34  H10 STJ d          27.913  43.701  54.013  0.00  0.00     0.083 H 
ATOM     35  H11 STJ d          25.773  43.513  55.278  0.00  0.00     0.084 H 
BRANCH  28  36
ATOM     36  C36 STJ d          25.703  45.857  50.399  0.00  0.00     0.249 C 
ATOM     37  O37 STJ d          26.373  45.395  49.490  0.00  0.00    -0.268 OA
ATOM     38  N38 STJ d          24.926  46.947  50.202  0.00  0.00    -0.366 N 
ATOM     39  H12 STJ d          24.868  47.362  49.295  0.00  0.00     0.159 HD
ATOM     40  H13 STJ d          24.409  47.337  50.965  0.00  0.00     0.159 HD
ENDBRANCH  28  36
ENDBRANCH   5  26
TORSDOF 6
ENDMDL
MODEL 2
REMARK VINA RESULT:      -8.3      2.919      4.721
REMARK  6 active torsions:
REMARK  status: ('A' for Active; 'I' for Inactive)
REMARK    1  A    between atoms: C2_2  and  O5_5 
REMARK    2  A    between atoms: O5_5  and  C6_6 
REMARK    3  A    between atoms: C11_9  and  N16_12 
REMARK    4  A    between atoms: N16_12  and  C18_13 
REMARK    5  A    between atoms: C23_17  and  C26_19 
REMARK    6  A    between atoms: C29_21  and  C36_25 
REMARK       I    between atoms: C36_25  and  N38_27 
ROOT
ATOM      1  C18 STJ d          20.842  44.034  53.734  0.00  0.00     0.131 A 
ATOM      2  N19 STJ d          22.042  43.798  53.135  0.00  0.00    -0.224 NA
ATOM      3  C20 STJ d          23.209  43.952  53.809  0.00  0.00     0.089 A 
ATOM      4  N22 STJ d          23.195  44.354  55.103  0.00  0.00    -0.241 NA
ATOM      5  C23 STJ d          22.028  44.607  55.751  0.00  0.00     0.072 A 
ATOM      6  C24 STJ d          20.811  44.452  55.063  0.00  0.00    -0.010 A 
ATOM      7  H6  STJ d          24.152  43.754  53.314  0.00  0.00     0.146 H 
ATOM      8  H7  STJ d          19.868  44.654  55.557  0.00  0.00     0.093 H 
ENDROOT
BRANCH   1   9
ATOM      9  N16 STJ d          19.652  43.888  53.094  0.00  0.00    -0.341 N 
ATOM     10  H5  STJ d          19.098  44.751  52.993  0.00  0.00     0.167 HD
BRANCH   9  11
ATOM     11  C11 STJ d          19.089  42.775  52.571  0.00  0.00     0.033 A 
ATOM     12  C9  STJ d          19.793  41.759  51.919  0.00  0.00    -0.055 A 
ATOM     13  C7  STJ d          19.122  40.649  51.397  0.00  0.00    -0.048 A 
ATOM     14  H2  STJ d          20.870  41.833  51.818  0.00  0.00     0.087 H 
ATOM     15  C6  STJ d          17.718  40.554  51.513  0.00  0.00     0.078 A 
ATOM     16  H1  STJ d          19.681  39.862  50.903  0.00  0.00     0.087 H 
ATOM     17  C14 STJ d          17.009  41.573  52.143  0.00  0.00    -0.048 A 
ATOM     18  C12 STJ d          17.686  42.680  52.669  0.00  0.00    -0.055 A 
ATOM     19  H4  STJ d          15.930  41.509  52.227  0.00  0.00     0.087 H 
ATOM     20  H3  STJ d          17.127  43.472  53.155  0.00  0.00     0.087 H 
BRANCH  15  21
ATOM     21  O5  STJ d          17.020  39.465  50.983  0.00  0.00    -0.255 OA
BRANCH  21  22
ATOM     22  C2  STJ d          17.028  39.239  49.587  0.00  0.00     0.530 C 
ATOM     23  F1  STJ d          17.199  40.451  49.006  0.00  0.00    -0.144 F 
ATOM     24  F3  STJ d          15.848  38.669  49.213  0.00  0.00    -0.144 F 
ATOM     25  F4  STJ d          18.061  38.414  49.271  0.00  0.00    -0.144 F 
ENDBRANCH  21  22
ENDBRANCH  15  21
ENDBRANCH   9  11
ENDBRANCH   1   9
BRANCH   5  26
ATOM     26  C26 STJ d          22.070  45.054  57.162  0.00  0.00    -0.006 A 
ATOM     27  C27 STJ d          22.829  46.192  57.453  0.00  0.00    -0.056 A 
ATOM     28  C29 STJ d          22.920  46.695  58.751  0.00  0.00     0.032 A 
ATOM     29  H8  STJ d          23.358  46.694  56.652  0.00  0.00     0.086 H 
ATOM     30  C30 STJ d          22.242  46.038  59.795  0.00  0.00    -0.068 A 
ATOM     31  C32 STJ d          21.477  44.891  59.515  0.00  0.00    -0.081 A 
ATOM     32  H9  STJ d          22.310  46.414  60.810  0.00  0.00     0.085 H 
ATOM     33  C34 STJ d          21.387  44.396  58.198  0.00  0.00    -0.071 A 
ATOM     34  H10 STJ d          20.952  44.384  60.317  0.00  0.00     0.083 H 
ATOM     35  H11 STJ d          20.796  43.512  57.987  0.00  0.00     0.084 H 
BRANCH  28  36
ATOM     36  C36 STJ d          23.779  47.935  58.905  0.00  0.00     0.249 C 
ATOM     37  O37 STJ d          24.981  47.799  58.746  0.00  0.00    -0.268 OA
ATOM     38  N38 STJ d          23.257  49.134  59.250  0.00  0.00    -0.366 N 
ATOM     39  H12 STJ d          23.854  49.931  59.343  0.00  0.00     0.159 HD
ATOM     40  H13 STJ d          22.274  49.223  59.412  0.00  0.00     0.159 HD
ENDBRANCH  28  36
ENDBRANCH   5  26
TORSDOF 6
ENDMDL
MODEL 3
REMARK VINA RESULT:      -7.9      1.691      1.970
REMARK  6 active torsions:
REMARK  status: ('A' for Active; 'I' for Inactive)
REMARK    1  A    between atoms: C2_2  and  O5_5 
REMARK    2  A    between atoms: O5_5  and  C6_6 
REMARK    3  A    between atoms: C11_9  and  N16_12 
REMARK    4  A    between atoms: N16_12  and  C18_13 
REMARK    5  A    between atoms: C23_17  and  C26_19 
REMARK    6  A    between atoms: C29_21  and  C36_25 
REMARK       I    between atoms: C36_25  and  N38_27 
ROOT
ATOM      1  C18 STJ d          20.747  44.453  55.592  0.00  0.00     0.131 A 
ATOM      2  N19 STJ d          20.746  44.036  56.889  0.00  0.00    -0.224 NA
ATOM      3  C20 STJ d          21.828  44.213  57.687  0.00  0.00     0.089 A 
ATOM      4  N22 STJ d          22.941  44.809  57.196  0.00  0.00    -0.241 NA
ATOM      5  C23 STJ d          23.001  45.243  55.911  0.00  0.00     0.072 A 
ATOM      6  C24 STJ d          21.886  45.065  55.072  0.00  0.00    -0.010 A 
ATOM      7  H6  STJ d          21.803  43.877  58.718  0.00  0.00     0.146 H 
ATOM      8  H7  STJ d          21.913  45.397  54.041  0.00  0.00     0.093 H 
ENDROOT
BRANCH   1   9
ATOM      9  N16 STJ d          19.683  44.297  54.762  0.00  0.00    -0.341 N 
ATOM     10  H5  STJ d          18.878  44.909  54.959  0.00  0.00     0.167 HD
BRANCH   9  11
ATOM     11  C11 STJ d          19.527  43.458  53.714  0.00  0.00     0.033 A 
ATOM     12  C9  STJ d          20.531  43.139  52.794  0.00  0.00    -0.055 A 
ATOM     13  C7  STJ d          20.273  42.268  51.731  0.00  0.00    -0.048 A 
ATOM     14  H2  STJ d          21.519  43.571  52.907  0.00  0.00     0.087 H 
ATOM     15  C6  STJ d          18.984  41.713  51.571  0.00  0.00     0.078 A 
ATOM     16  H1  STJ d          21.062  42.020  51.031  0.00  0.00     0.087 H 
ATOM     17  C14 STJ d          17.976  42.043  52.471  0.00  0.00    -0.048 A 
ATOM     18  C12 STJ d          18.240  42.911  53.537  0.00  0.00    -0.055 A 
ATOM     19  H4  STJ d          16.982  41.626  52.347  0.00  0.00     0.087 H 
ATOM     20  H3  STJ d          17.448  43.167  54.232  0.00  0.00     0.087 H 
BRANCH  15  21
ATOM     21  O5  STJ d          18.693  40.854  50.506  0.00  0.00    -0.255 OA
BRANCH  21  22
ATOM     22  C2  STJ d          17.816  39.763  50.705  0.00  0.00     0.530 C 
ATOM     23  F1  STJ d          18.448  38.917  51.555  0.00  0.00    -0.144 F 
ATOM     24  F3  STJ d          17.557  39.165  49.508  0.00  0.00    -0.144 F 
ATOM     25  F4  STJ d          16.658  40.211  51.259  0.00  0.00    -0.144 F 
ENDBRANCH  21  22
ENDBRANCH  15  21
ENDBRANCH   9  11
ENDBRANCH   1   9
BRANCH   5  26
ATOM     26  C26 STJ d          24.245  45.879  55.422  0.00  0.00    -0.006 A 
ATOM     27  C27 STJ d          24.656  45.571  54.121  0.00  0.00    -0.056 A 
ATOM     28  C29 STJ d          25.809  46.129  53.568  0.00  0.00     0.032 A 
ATOM     29  H8  STJ d          24.064  44.883  53.528  0.00  0.00     0.086 H 
ATOM     30  C30 STJ d          26.585  47.015  54.340  0.00  0.00    -0.068 A 
ATOM     31  C32 STJ d          26.183  47.331  55.652  0.00  0.00    -0.081 A 
ATOM     32  H9  STJ d          27.487  47.451  53.926  0.00  0.00     0.085 H 
ATOM     33  C34 STJ d          25.012  46.765  56.196  0.00  0.00    -0.071 A 
ATOM     34  H10 STJ d          26.777  48.014  56.247  0.00  0.00     0.083 H 
ATOM     35  H11 STJ d          24.706  47.012  57.206  0.00  0.00     0.084 H 
BRANCH  28  36
ATOM     36  C36 STJ d          26.120  45.699  52.148  0.00  0.00     0.249 C 
ATOM     37  O37 STJ d          25.644  44.640  51.774  0.00  0.00    -0.268 OA
ATOM     38  N38 STJ d          26.924  46.422  51.337  0.00  0.00    -0.366 N 
ATOM     39  H12 STJ d          27.108  46.109  50.405  0.00  0.00     0.159 HD
ATOM     40  H13 STJ d          27.336  47.271  51.668  0.00  0.00     0.159 HD
ENDBRANCH  28  36
ENDBRANCH   5  26
TORSDOF 6
ENDMDL
MODEL 4
REMARK VINA RESULT:      -7.6      2.815      5.249
REMARK  6 active torsions:
REMARK  status: ('A' for Active; 'I' for Inactive)
REMARK    1  A    between atoms: C2_2  and  O5_5 
REMARK    2  A    between atoms: O5_5  and  C6_6 
REMARK    3  A    between atoms: C11_9  and  N16_12 
REMARK    4  A    between atoms: N16_12  and  C18_13 
REMARK    5  A    between atoms: C23_17  and  C26_19 
REMARK    6  A    between atoms: C29_21  and  C36_25 
REMARK       I    between atoms: C36_25  and  N38_27 
ROOT
ATOM      1  C18 STJ d          22.324  44.079  53.482  0.00  0.00     0.131 A 
ATOM      2  N19 STJ d          23.582  43.762  53.066  0.00  0.00    -0.224 NA
ATOM      3  C20 STJ d          24.623  43.726  53.934  0.00  0.00     0.089 A 
ATOM      4  N22 STJ d          24.424  44.014  55.242  0.00  0.00    -0.241 NA
ATOM      5  C23 STJ d          23.193  44.339  55.714  0.00  0.00     0.072 A 
ATOM      6  C24 STJ d          22.104  44.382  54.824  0.00  0.00    -0.010 A 
ATOM      7  H6  STJ d          25.615  43.466  53.581  0.00  0.00     0.146 H 
ATOM      8  H7  STJ d          21.114  44.645  55.176  0.00  0.00     0.093 H 
ENDROOT
BRANCH   1   9
ATOM      9  N16 STJ d          21.254  44.123  52.645  0.00  0.00    -0.341 N 
ATOM     10  H5  STJ d          21.232  44.927  52.001  0.00  0.00     0.167 HD
BRANCH   9  11
ATOM     11  C11 STJ d          20.215  43.265  52.533  0.00  0.00     0.033 A 
ATOM     12  C9  STJ d          19.577  42.644  53.610  0.00  0.00    -0.055 A 
ATOM     13  C7  STJ d          18.517  41.758  53.397  0.00  0.00    -0.048 A 
ATOM     14  H2  STJ d          19.909  42.851  54.622  0.00  0.00     0.087 H 
ATOM     15  C6  STJ d          18.090  41.473  52.081  0.00  0.00     0.078 A 
ATOM     16  H1  STJ d          18.023  41.291  54.241  0.00  0.00     0.087 H 
ATOM     17  C14 STJ d          18.735  42.072  51.003  0.00  0.00    -0.048 A 
ATOM     18  C12 STJ d          19.793  42.962  51.223  0.00  0.00    -0.055 A 
ATOM     19  H4  STJ d          18.417  41.850  49.991  0.00  0.00     0.087 H 
ATOM     20  H3  STJ d          20.293  43.423  50.378  0.00  0.00     0.087 H 
BRANCH  15  21
ATOM     21  O5  STJ d          17.045  40.577  51.837  0.00  0.00    -0.255 OA
BRANCH  21  22
ATOM     22  C2  STJ d          17.336  39.227  51.529  0.00  0.00     0.530 C 
ATOM     23  F1  STJ d          18.667  39.069  51.732  0.00  0.00    -0.144 F 
ATOM     24  F3  STJ d          16.996  38.975  50.234  0.00  0.00    -0.144 F 
ATOM     25  F4  STJ d          16.632  38.414  52.360  0.00  0.00    -0.144 F 
ENDBRANCH  21  22
ENDBRANCH  15  21
ENDBRANCH   9  11
ENDBRANCH   1   9
BRANCH   5  26
ATOM     26  C26 STJ d          23.032  44.655  57.151  0.00  0.00    -0.006 A 
ATOM     27  C27 STJ d          21.819  44.304  57.754  0.00  0.00    -0.056 A 
ATOM     28  C29 STJ d          21.578  44.552  59.106  0.00  0.00     0.032 A 
ATOM     29  H8  STJ d          21.050  43.829  57.158  0.00  0.00     0.086 H 
ATOM     30  C30 STJ d          22.573  45.179  59.880  0.00  0.00    -0.068 A 
ATOM     31  C32 STJ d          23.796  45.539  59.284  0.00  0.00    -0.081 A 
ATOM     32  H9  STJ d          22.397  45.384  60.930  0.00  0.00     0.085 H 
ATOM     33  C34 STJ d          24.030  45.277  57.919  0.00  0.00    -0.071 A 
ATOM     34  H10 STJ d          24.564  46.019  59.879  0.00  0.00     0.083 H 
ATOM     35  H11 STJ d          24.974  45.555  57.465  0.00  0.00     0.084 H 
BRANCH  28  36
ATOM     36  C36 STJ d          20.219  44.113  59.612  0.00  0.00     0.249 C 
ATOM     37  O37 STJ d          20.033  42.913  59.730  0.00  0.00    -0.268 OA
ATOM     38  N38 STJ d          19.230  44.997  59.880  0.00  0.00    -0.366 N 
ATOM     39  H12 STJ d          18.345  44.671  60.213  0.00  0.00     0.159 HD
ATOM     40  H13 STJ d          19.385  45.975  59.745  0.00  0.00     0.159 HD
ENDBRANCH  28  36
ENDBRANCH   5  26
TORSDOF 6
ENDMDL
MODEL 5
REMARK VINA RESULT:      -7.1      3.322      4.467
REMARK  6 active torsions:
REMARK  status: ('A' for Active; 'I' for Inactive)
REMARK    1  A    between atoms: C2_2  and  O5_5 
REMARK    2  A    between atoms: O5_5  and  C6_6 
REMARK    3  A    between atoms: C11_9  and  N16_12 
REMARK    4  A    between atoms: N16_12  and  C18_13 
REMARK    5  A    between atoms: C23_17  and  C26_19 
REMARK    6  A    between atoms: C29_21  and  C36_25 
REMARK       I    between atoms: C36_25  and  N38_27 
ROOT
ATOM      1  C18 STJ d          22.298  44.100  53.985  0.00  0.00     0.131 A 
ATOM      2  N19 STJ d          23.309  43.752  53.141  0.00  0.00    -0.224 NA
ATOM      3  C20 STJ d          24.608  43.866  53.513  0.00  0.00     0.089 A 
ATOM      4  N22 STJ d          24.921  44.340  54.743  0.00  0.00    -0.241 NA
ATOM      5  C23 STJ d          23.955  44.706  55.625  0.00  0.00     0.072 A 
ATOM      6  C24 STJ d          22.604  44.594  55.252  0.00  0.00    -0.010 A 
ATOM      7  H6  STJ d          25.396  43.579  52.826  0.00  0.00     0.146 H 
ATOM      8  H7  STJ d          21.816  44.885  55.936  0.00  0.00     0.093 H 
ENDROOT
BRANCH   1   9
ATOM      9  N16 STJ d          20.984  43.997  53.652  0.00  0.00    -0.341 N 
ATOM     10  H5  STJ d          20.399  44.804  53.913  0.00  0.00     0.167 HD
BRANCH   9  11
ATOM     11  C11 STJ d          20.333  42.991  53.026  0.00  0.00     0.033 A 
ATOM     12  C9  STJ d          19.488  42.075  53.660  0.00  0.00    -0.055 A 
ATOM     13  C7  STJ d          18.867  41.056  52.932  0.00  0.00    -0.048 A 
ATOM     14  H2  STJ d          19.314  42.156  54.727  0.00  0.00     0.087 H 
ATOM     15  C6  STJ d          19.102  40.936  51.544  0.00  0.00     0.078 A 
ATOM     16  H1  STJ d          18.205  40.359  53.433  0.00  0.00     0.087 H 
ATOM     17  C14 STJ d          19.958  41.833  50.911  0.00  0.00    -0.048 A 
ATOM     18  C12 STJ d          20.574  42.854  51.645  0.00  0.00    -0.055 A 
ATOM     19  H4  STJ d          20.149  41.740  49.848  0.00  0.00     0.087 H 
ATOM     20  H3  STJ d          21.243  43.547  51.145  0.00  0.00     0.087 H 
BRANCH  15  21
ATOM     21  O5  STJ d          18.509  39.916  50.795  0.00  0.00    -0.255 OA
BRANCH  21  22
ATOM     22  C2  STJ d          17.177  40.063  50.339  0.00  0.00     0.530 C 
ATOM     23  F1  STJ d          17.158  39.598  49.066  0.00  0.00    -0.144 F 
ATOM     24  F3  STJ d          16.822  41.377  50.395  0.00  0.00    -0.144 F 
ATOM     25  F4  STJ d          16.349  39.325  51.125  0.00  0.00    -0.144 F 
ENDBRANCH  21  22
ENDBRANCH  15  21
ENDBRANCH   9  11
ENDBRANCH   1   9
BRANCH   5  26
ATOM     26  C26 STJ d          24.352  45.228  56.952  0.00  0.00    -0.006 A 
ATOM     27  C27 STJ d          24.179  46.596  57.183  0.00  0.00    -0.056 A 
ATOM     28  C29 STJ d          24.514  47.179  58.405  0.00  0.00     0.032 A 
ATOM     29  H8  STJ d          23.776  47.219  56.393  0.00  0.00     0.086 H 
ATOM     30  C30 STJ d          25.049  46.374  59.429  0.00  0.00    -0.068 A 
ATOM     31  C32 STJ d          25.229  44.995  59.209  0.00  0.00    -0.081 A 
ATOM     32  H9  STJ d          25.320  46.813  60.382  0.00  0.00     0.085 H 
ATOM     33  C34 STJ d          24.880  44.418  57.971  0.00  0.00    -0.071 A 
ATOM     34  H10 STJ d          25.638  44.373  59.997  0.00  0.00     0.083 H 
ATOM     35  H11 STJ d          25.020  43.356  57.806  0.00  0.00     0.084 H 
BRANCH  28  36
ATOM     36  C36 STJ d          24.268  48.671  58.501  0.00  0.00     0.249 C 
ATOM     37  O37 STJ d          23.112  49.033  58.653  0.00  0.00    -0.268 OA
ATOM     38  N38 STJ d          25.266  49.576  58.377  0.00  0.00    -0.366 N 
ATOM     39  H12 STJ d          25.067  50.553  58.446  0.00  0.00     0.159 HD
ATOM     40  H13 STJ d          26.204  49.266  58.218  0.00  0.00     0.159 HD
ENDBRANCH  28  36
ENDBRANCH   5  26
TORSDOF 6
ENDMDL
MODEL 6
REMARK VINA RESULT:      -7.1      4.626      8.515
REMARK  6 active torsions:
REMARK  status: ('A' for Active; 'I' for Inactive)
REMARK    1  A    between atoms: C2_2  and  O5_5 
REMARK    2  A    between atoms: O5_5  and  C6_6 
REMARK    3  A    between atoms: C11_9  and  N16_12 
REMARK    4  A    between atoms: N16_12  and  C18_13 
REMARK    5  A    between atoms: C23_17  and  C26_19 
REMARK    6  A    between atoms: C29_21  and  C36_25 
REMARK       I    between atoms: C36_25  and  N38_27 
ROOT
ATOM      1  C18 STJ d          22.804  43.665  54.313  0.00  0.00     0.131 A 
ATOM      2  N19 STJ d          22.531  44.111  55.570  0.00  0.00    -0.224 NA
ATOM      3  C20 STJ d          21.275  44.061  56.079  0.00  0.00     0.089 A 
ATOM      4  N22 STJ d          20.261  43.565  55.331  0.00  0.00    -0.241 NA
ATOM      5  C23 STJ d          20.472  43.109  54.069  0.00  0.00     0.072 A 
ATOM      6  C24 STJ d          21.770  43.156  53.529  0.00  0.00    -0.010 A 
ATOM      7  H6  STJ d          21.083  44.418  57.085  0.00  0.00     0.146 H 
ATOM      8  H7  STJ d          21.962  42.803  52.522  0.00  0.00     0.093 H 
ENDROOT
BRANCH   1   9
ATOM      9  N16 STJ d          24.048  43.694  53.768  0.00  0.00    -0.341 N 
ATOM     10  H5  STJ d          24.535  42.787  53.733  0.00  0.00     0.167 HD
BRANCH   9  11
ATOM     11  C11 STJ d          24.740  44.741  53.264  0.00  0.00     0.033 A 
ATOM     12  C9  STJ d          24.626  46.060  53.713  0.00  0.00    -0.055 A 
ATOM     13  C7  STJ d          25.374  47.082  53.121  0.00  0.00    -0.048 A 
ATOM     14  H2  STJ d          23.950  46.292  54.528  0.00  0.00     0.087 H 
ATOM     15  C6  STJ d          26.246  46.788  52.049  0.00  0.00     0.078 A 
ATOM     16  H1  STJ d          25.285  48.099  53.485  0.00  0.00     0.087 H 
ATOM     17  C14 STJ d          26.348  45.480  51.584  0.00  0.00    -0.048 A 
ATOM     18  C12 STJ d          25.600  44.460  52.184  0.00  0.00    -0.055 A 
ATOM     19  H4  STJ d          27.009  45.251  50.755  0.00  0.00     0.087 H 
ATOM     20  H3  STJ d          25.683  43.444  51.814  0.00  0.00     0.087 H 
BRANCH  15  21
ATOM     21  O5  STJ d          26.991  47.793  51.426  0.00  0.00    -0.255 OA
BRANCH  21  22
ATOM     22  C2  STJ d          26.490  48.417  50.259  0.00  0.00     0.530 C 
ATOM     23  F1  STJ d          26.849  47.625  49.220  0.00  0.00    -0.144 F 
ATOM     24  F3  STJ d          27.028  49.664  50.144  0.00  0.00    -0.144 F 
ATOM     25  F4  STJ d          25.136  48.503  50.342  0.00  0.00    -0.144 F 
ENDBRANCH  21  22
ENDBRANCH  15  21
ENDBRANCH   9  11
ENDBRANCH   1   9
BRANCH   5  26
ATOM     26  C26 STJ d          19.327  42.586  53.291  0.00  0.00    -0.006 A 
ATOM     27  C27 STJ d          19.599  41.621  52.316  0.00  0.00    -0.056 A 
ATOM     28  C29 STJ d          18.585  41.062  51.539  0.00  0.00     0.032 A 
ATOM     29  H8  STJ d          20.623  41.300  52.161  0.00  0.00     0.086 H 
ATOM     30  C30 STJ d          17.256  41.486  51.731  0.00  0.00    -0.068 A 
ATOM     31  C32 STJ d          16.969  42.458  52.708  0.00  0.00    -0.081 A 
ATOM     32  H9  STJ d          16.458  41.065  51.130  0.00  0.00     0.085 H 
ATOM     33  C34 STJ d          18.003  43.010  53.490  0.00  0.00    -0.071 A 
ATOM     34  H10 STJ d          15.947  42.783  52.859  0.00  0.00     0.083 H 
ATOM     35  H11 STJ d          17.777  43.758  54.242  0.00  0.00     0.084 H 
BRANCH  28  36
ATOM     36  C36 STJ d          19.039  40.029  50.527  0.00  0.00     0.249 C 
ATOM     37  O37 STJ d          20.074  40.262  49.924  0.00  0.00    -0.268 OA
ATOM     38  N38 STJ d          18.316  38.917  50.259  0.00  0.00    -0.366 N 
ATOM     39  H12 STJ d          18.647  38.256  49.586  0.00  0.00     0.159 HD
ATOM     40  H13 STJ d          17.452  38.756  50.736  0.00  0.00     0.159 HD
ENDBRANCH  28  36
ENDBRANCH   5  26
TORSDOF 6
ENDMDL
