MODEL 1
REMARK VINA RESULT:      -7.9      0.000      0.000
REMARK  9 active torsions:
REMARK  status: ('A' for Active; 'I' for Inactive)
REMARK    1  A    between atoms: C20_6  and  C17_7 
REMARK    2  A    between atoms: C4_11  and  C1_12 
REMARK    3  A    between atoms: N12_24  and  C19_25 
REMARK    4  A    between atoms: C19_25  and  C21_26 
REMARK    5  A    between atoms: C21_26  and  C23_27 
REMARK    6  A    between atoms: C23_27  and  N29_28 
REMARK    7  A    between atoms: N29_28  and  C32_29 
REMARK    8  A    between atoms: N29_28  and  C31_30 
REMARK    9  A    between atoms: N29_28  and  C30_31 
ROOT
ATOM      1  C1  Y5H d          -3.397  13.021  23.025  0.00  0.00     0.160 C 
ATOM      2  N3  Y5H d          -4.793  13.023  23.537  0.00  0.00    -0.055 N 
ATOM      3  C7  Y5H d          -5.553  13.649  22.441  0.00  0.00     0.117 C 
ATOM      4  C14 Y5H d          -5.323  15.162  22.607  0.00  0.00    -0.036 C 
ATOM      5  C15 Y5H d          -5.129  15.327  24.124  0.00  0.00    -0.040 C 
ATOM      6  C8  Y5H d          -4.987  13.910  24.712  0.00  0.00     0.085 C 
ATOM      7  C5  Y5H d          -5.002  13.070  21.143  0.00  0.00     0.066 A 
ATOM      8  C2  Y5H d          -3.588  12.568  21.538  0.00  0.00     0.071 A 
ATOM      9  C6  Y5H d          -3.686  11.068  21.294  0.00  0.00     0.234 A 
ATOM     10  O13 Y5H d          -2.814  10.225  21.423  0.00  0.00    -0.272 OA
ATOM     11  C11 Y5H d          -5.778  11.847  20.726  0.00  0.00     0.233 A 
ATOM     12  O18 Y5H d          -6.932  11.760  20.306  0.00  0.00    -0.272 OA
ATOM     13  N12 Y5H d          -4.980  10.698  20.894  0.00  0.00    -0.288 N 
ATOM     14  H4  Y5H d          -2.968  14.032  23.077  0.00  0.00     0.096 H 
ATOM     15  H5  Y5H d          -5.106  12.086  23.743  0.00  0.00     0.281 HD
ATOM     16  H6  Y5H d          -6.627  13.425  22.518  0.00  0.00     0.086 H 
ATOM     17  H7  Y5H d          -6.196  15.733  22.258  0.00  0.00     0.036 H 
ATOM     18  H8  Y5H d          -4.427  15.487  22.058  0.00  0.00     0.036 H 
ATOM     19  H9  Y5H d          -6.001  15.833  24.564  0.00  0.00     0.035 H 
ATOM     20  H10 Y5H d          -4.222  15.914  24.328  0.00  0.00     0.035 H 
ATOM     21  H11 Y5H d          -4.119  13.855  25.384  0.00  0.00     0.076 H 
ATOM     22  H12 Y5H d          -5.896  13.627  25.263  0.00  0.00     0.076 H 
ATOM     23  H13 Y5H d          -4.979  13.820  20.339  0.00  0.00     0.059 H 
ATOM     24  H14 Y5H d          -2.795  13.003  20.912  0.00  0.00     0.059 H 
ENDROOT
BRANCH  13  25
ATOM     25  C19 Y5H d          -5.379   9.314  20.593  0.00  0.00     0.007 C 
ATOM     26  H15 Y5H d          -6.449   9.189  20.816  0.00  0.00     0.065 H 
ATOM     27  H16 Y5H d          -4.791   8.624  21.218  0.00  0.00     0.065 H 
BRANCH  25  28
ATOM     28  C21 Y5H d          -5.130   8.993  19.113  0.00  0.00    -0.027 C 
ATOM     29  H17 Y5H d          -4.128   9.326  18.806  0.00  0.00     0.037 H 
ATOM     30  H18 Y5H d          -5.888   9.475  18.478  0.00  0.00     0.037 H 
BRANCH  28  31
ATOM     31  C23 Y5H d          -5.242   7.458  19.025  0.00  0.00     0.086 C 
ATOM     32  H19 Y5H d          -5.366   7.061  20.044  0.00  0.00     0.076 H 
ATOM     33  H20 Y5H d          -4.311   7.067  18.590  0.00  0.00     0.076 H 
BRANCH  31  34
ATOM     34  N29 Y5H d          -6.405   6.976  18.181  0.00  0.00    -0.079 N 
BRANCH  34  35
ATOM     35  C32 Y5H d          -6.822   5.601  18.620  0.00  0.00     0.067 C 
ATOM     36  H21 Y5H d          -5.931   4.965  18.729  0.00  0.00     0.068 H 
ATOM     37  H22 Y5H d          -7.495   5.164  17.867  0.00  0.00     0.068 H 
ATOM     38  H23 Y5H d          -7.344   5.668  19.586  0.00  0.00     0.068 H 
ENDBRANCH  34  35
BRANCH  34  39
ATOM     39  C31 Y5H d          -5.872   6.847  16.772  0.00  0.00     0.067 C 
ATOM     40  H24 Y5H d          -5.509   7.826  16.427  0.00  0.00     0.068 H 
ATOM     41  H25 Y5H d          -6.675   6.498  16.107  0.00  0.00     0.068 H 
ATOM     42  H26 Y5H d          -5.045   6.123  16.758  0.00  0.00     0.068 H 
ENDBRANCH  34  39
BRANCH  34  43
ATOM     43  C30 Y5H d          -7.581   7.891  18.225  0.00  0.00     0.067 C 
ATOM     44  H27 Y5H d          -7.405   8.679  18.973  0.00  0.00     0.068 H 
ATOM     45  H28 Y5H d          -8.480   7.320  18.498  0.00  0.00     0.068 H 
ATOM     46  H29 Y5H d          -7.725   8.351  17.236  0.00  0.00     0.068 H 
ENDBRANCH  34  43
ENDBRANCH  31  34
ENDBRANCH  28  31
ENDBRANCH  25  28
ENDBRANCH  13  25
BRANCH   1  47
ATOM     47  C4  Y5H d          -2.490  12.069  23.763  0.00  0.00     0.091 A 
ATOM     48  N16 Y5H d          -2.936  11.145  24.681  0.00  0.00    -0.224 NA
ATOM     49  C17 Y5H d          -1.847  10.507  25.058  0.00  0.00     0.186 A 
ATOM     50  O10 Y5H d          -0.699  11.010  24.538  0.00  0.00    -0.301 OA
ATOM     51  C9  Y5H d          -1.159  11.995  23.679  0.00  0.00     0.047 A 
ATOM     52  H3  Y5H d          -0.534  12.612  23.035  0.00  0.00     0.126 H 
BRANCH  49  53
ATOM     53  C20 Y5H d          -1.716   9.513  26.113  0.00  0.00     0.059 A 
ATOM     54  C22 Y5H d          -2.559   9.321  27.201  0.00  0.00    -0.060 A 
ATOM     55  C24 Y5H d          -2.235   8.177  27.967  0.00  0.00    -0.054 A 
ATOM     56  H2  Y5H d          -3.388   9.985  27.440  0.00  0.00     0.085 H 
ATOM     57  C25 Y5H d          -1.194   7.488  27.401  0.00  0.00     0.075 A 
ATOM     58  H1  Y5H d          -2.744   7.883  28.884  0.00  0.00     0.086 H 
ATOM     59 CL1  Y5H d          -0.475   5.992  27.955  0.00  0.00    -0.076 Cl
ATOM     60  S1  Y5H d          -0.520   8.262  25.995  0.00  0.00    -0.074 SA
ENDBRANCH  49  53
ENDBRANCH   1  47
TORSDOF 9
ENDMDL
MODEL 2
REMARK VINA RESULT:      -6.9      1.749      2.072
REMARK  9 active torsions:
REMARK  status: ('A' for Active; 'I' for Inactive)
REMARK    1  A    between atoms: C20_6  and  C17_7 
REMARK    2  A    between atoms: C4_11  and  C1_12 
REMARK    3  A    between atoms: N12_24  and  C19_25 
REMARK    4  A    between atoms: C19_25  and  C21_26 
REMARK    5  A    between atoms: C21_26  and  C23_27 
REMARK    6  A    between atoms: C23_27  and  N29_28 
REMARK    7  A    between atoms: N29_28  and  C32_29 
REMARK    8  A    between atoms: N29_28  and  C31_30 
REMARK    9  A    between atoms: N29_28  and  C30_31 
ROOT
ATOM      1  C1  Y5H d          -2.435  12.997  20.773  0.00  0.00     0.160 C 
ATOM      2  N3  Y5H d          -3.421  13.933  21.375  0.00  0.00    -0.055 N 
ATOM      3  C7  Y5H d          -4.159  14.442  20.206  0.00  0.00     0.117 C 
ATOM      4  C14 Y5H d          -3.255  15.533  19.604  0.00  0.00    -0.036 C 
ATOM      5  C15 Y5H d          -2.501  16.082  20.826  0.00  0.00    -0.040 C 
ATOM      6  C8  Y5H d          -2.794  15.126  21.998  0.00  0.00     0.085 C 
ATOM      7  C5  Y5H d          -4.398  13.248  19.288  0.00  0.00     0.066 A 
ATOM      8  C2  Y5H d          -3.301  12.236  19.714  0.00  0.00     0.071 A 
ATOM      9  C6  Y5H d          -4.116  11.057  20.227  0.00  0.00     0.234 A 
ATOM     10  O13 Y5H d          -3.711   9.985  20.643  0.00  0.00    -0.272 OA
ATOM     11  C11 Y5H d          -5.717  12.588  19.595  0.00  0.00     0.233 A 
ATOM     12  O18 Y5H d          -6.861  13.000  19.400  0.00  0.00    -0.272 OA
ATOM     13  N12 Y5H d          -5.493  11.335  20.199  0.00  0.00    -0.288 N 
ATOM     14  H4  Y5H d          -1.621  13.556  20.288  0.00  0.00     0.096 H 
ATOM     15  H5  Y5H d          -4.016  13.458  22.035  0.00  0.00     0.281 HD
ATOM     16  H6  Y5H d          -5.124  14.879  20.501  0.00  0.00     0.086 H 
ATOM     17  H7  Y5H d          -3.855  16.321  19.125  0.00  0.00     0.036 H 
ATOM     18  H8  Y5H d          -2.557  15.105  18.870  0.00  0.00     0.036 H 
ATOM     19  H9  Y5H d          -2.855  17.095  21.067  0.00  0.00     0.035 H 
ATOM     20  H10 Y5H d          -1.420  16.111  20.622  0.00  0.00     0.035 H 
ATOM     21  H11 Y5H d          -1.863  14.849  22.513  0.00  0.00     0.076 H 
ATOM     22  H12 Y5H d          -3.484  15.594  22.716  0.00  0.00     0.076 H 
ATOM     23  H13 Y5H d          -4.330  13.530  18.227  0.00  0.00     0.059 H 
ATOM     24  H14 Y5H d          -2.667  11.921  18.871  0.00  0.00     0.059 H 
ENDROOT
BRANCH  13  25
ATOM     25  C19 Y5H d          -6.528  10.387  20.642  0.00  0.00     0.007 C 
ATOM     26  H15 Y5H d          -7.305  10.934  21.196  0.00  0.00     0.065 H 
ATOM     27  H16 Y5H d          -6.070   9.633  21.298  0.00  0.00     0.065 H 
BRANCH  25  28
ATOM     28  C21 Y5H d          -7.166   9.687  19.434  0.00  0.00    -0.027 C 
ATOM     29  H17 Y5H d          -6.635   9.950  18.507  0.00  0.00     0.037 H 
ATOM     30  H18 Y5H d          -8.226   9.964  19.340  0.00  0.00     0.037 H 
BRANCH  28  31
ATOM     31  C23 Y5H d          -7.020   8.183  19.736  0.00  0.00     0.086 C 
ATOM     32  H19 Y5H d          -7.996   7.801  20.070  0.00  0.00     0.076 H 
ATOM     33  H20 Y5H d          -6.283   8.062  20.544  0.00  0.00     0.076 H 
BRANCH  31  34
ATOM     34  N29 Y5H d          -6.565   7.361  18.547  0.00  0.00    -0.079 N 
BRANCH  34  35
ATOM     35  C32 Y5H d          -7.103   5.962  18.657  0.00  0.00     0.067 C 
ATOM     36  H21 Y5H d          -6.744   5.363  17.808  0.00  0.00     0.068 H 
ATOM     37  H22 Y5H d          -8.203   5.989  18.647  0.00  0.00     0.068 H 
ATOM     38  H23 Y5H d          -6.755   5.509  19.598  0.00  0.00     0.068 H 
ENDBRANCH  34  35
BRANCH  34  39
ATOM     39  C31 Y5H d          -5.061   7.266  18.656  0.00  0.00     0.067 C 
ATOM     40  H24 Y5H d          -4.598   7.930  17.912  0.00  0.00     0.068 H 
ATOM     41  H25 Y5H d          -4.745   6.229  18.469  0.00  0.00     0.068 H 
ATOM     42  H26 Y5H d          -4.746   7.568  19.665  0.00  0.00     0.068 H 
ENDBRANCH  34  39
BRANCH  34  43
ATOM     43  C30 Y5H d          -6.971   7.948  17.238  0.00  0.00     0.067 C 
ATOM     44  H27 Y5H d          -7.597   7.228  16.691  0.00  0.00     0.068 H 
ATOM     45  H28 Y5H d          -6.073   8.178  16.646  0.00  0.00     0.068 H 
ATOM     46  H29 Y5H d          -7.542   8.872  17.412  0.00  0.00     0.068 H 
ENDBRANCH  34  43
ENDBRANCH  31  34
ENDBRANCH  28  31
ENDBRANCH  25  28
ENDBRANCH  13  25
BRANCH   1  47
ATOM     47  C4  Y5H d          -1.837  12.035  21.768  0.00  0.00     0.091 A 
ATOM     48  N16 Y5H d          -2.402  11.752  22.990  0.00  0.00    -0.224 NA
ATOM     49  C17 Y5H d          -1.596  10.856  23.523  0.00  0.00     0.186 A 
ATOM     50  O10 Y5H d          -0.482  10.603  22.790  0.00  0.00    -0.301 OA
ATOM     51  C9  Y5H d          -0.692  11.358  21.647  0.00  0.00     0.047 A 
ATOM     52  H3  Y5H d          -0.028  11.393  20.785  0.00  0.00     0.126 H 
BRANCH  49  53
ATOM     53  C20 Y5H d          -1.643  10.303  24.869  0.00  0.00     0.059 A 
ATOM     54  C22 Y5H d          -2.607  10.533  25.844  0.00  0.00    -0.060 A 
ATOM     55  C24 Y5H d          -2.441   9.732  26.997  0.00  0.00    -0.054 A 
ATOM     56  H2  Y5H d          -3.410  11.260  25.730  0.00  0.00     0.085 H 
ATOM     57  C25 Y5H d          -1.394   8.861  26.841  0.00  0.00     0.075 A 
ATOM     58  H1  Y5H d          -3.062   9.799  27.889  0.00  0.00     0.086 H 
ATOM     59 CL1  Y5H d          -0.837   7.646  27.971  0.00  0.00    -0.076 Cl
ATOM     60  S1  Y5H d          -0.526   9.064  25.346  0.00  0.00    -0.074 SA
ENDBRANCH  49  53
ENDBRANCH   1  47
TORSDOF 9
ENDMDL
MODEL 3
REMARK VINA RESULT:      -6.5      4.300      6.937
REMARK  9 active torsions:
REMARK  status: ('A' for Active; 'I' for Inactive)
REMARK    1  A    between atoms: C20_6  and  C17_7 
REMARK    2  A    between atoms: C4_11  and  C1_12 
REMARK    3  A    between atoms: N12_24  and  C19_25 
REMARK    4  A    between atoms: C19_25  and  C21_26 
REMARK    5  A    between atoms: C21_26  and  C23_27 
REMARK    6  A    between atoms: C23_27  and  N29_28 
REMARK    7  A    between atoms: N29_28  and  C32_29 
REMARK    8  A    between atoms: N29_28  and  C31_30 
REMARK    9  A    between atoms: N29_28  and  C30_31 
ROOT
ATOM      1  C1  Y5H d          -4.564  11.727  22.397  0.00  0.00     0.160 C 
ATOM      2  N3  Y5H d          -4.765  13.200  22.406  0.00  0.00    -0.055 N 
ATOM      3  C7  Y5H d          -3.772  13.671  23.387  0.00  0.00     0.117 C 
ATOM      4  C14 Y5H d          -4.414  13.416  24.762  0.00  0.00    -0.036 C 
ATOM      5  C15 Y5H d          -5.920  13.555  24.482  0.00  0.00    -0.040 C 
ATOM      6  C8  Y5H d          -6.085  13.609  22.951  0.00  0.00     0.085 C 
ATOM      7  C5  Y5H d          -2.498  12.873  23.132  0.00  0.00     0.066 A 
ATOM      8  C2  Y5H d          -3.002  11.604  22.394  0.00  0.00     0.071 A 
ATOM      9  C6  Y5H d          -2.317  11.713  21.038  0.00  0.00     0.234 A 
ATOM     10  O13 Y5H d          -2.365  10.929  20.105  0.00  0.00    -0.272 OA
ATOM     11  C11 Y5H d          -1.597  13.591  22.160  0.00  0.00     0.233 A 
ATOM     12  O18 Y5H d          -0.949  14.627  22.315  0.00  0.00    -0.272 OA
ATOM     13  N12 Y5H d          -1.578  12.902  20.932  0.00  0.00    -0.288 N 
ATOM     14  H4  Y5H d          -4.992  11.275  23.304  0.00  0.00     0.096 H 
ATOM     15  H5  Y5H d          -4.623  13.592  21.488  0.00  0.00     0.281 HD
ATOM     16  H6  Y5H d          -3.565  14.744  23.265  0.00  0.00     0.086 H 
ATOM     17  H7  Y5H d          -4.080  14.164  25.497  0.00  0.00     0.036 H 
ATOM     18  H8  Y5H d          -4.173  12.408  25.129  0.00  0.00     0.036 H 
ATOM     19  H9  Y5H d          -6.306  14.478  24.937  0.00  0.00     0.035 H 
ATOM     20  H10 Y5H d          -6.462  12.690  24.890  0.00  0.00     0.035 H 
ATOM     21  H11 Y5H d          -6.871  12.914  22.622  0.00  0.00     0.076 H 
ATOM     22  H12 Y5H d          -6.338  14.629  22.625  0.00  0.00     0.076 H 
ATOM     23  H13 Y5H d          -1.969  12.639  24.068  0.00  0.00     0.059 H 
ATOM     24  H14 Y5H d          -2.701  10.674  22.898  0.00  0.00     0.059 H 
ENDROOT
BRANCH  13  25
ATOM     25  C19 Y5H d          -0.814  13.285  19.734  0.00  0.00     0.007 C 
ATOM     26  H15 Y5H d          -0.523  12.378  19.184  0.00  0.00     0.065 H 
ATOM     27  H16 Y5H d           0.090  13.833  20.041  0.00  0.00     0.065 H 
BRANCH  25  28
ATOM     28  C21 Y5H d          -1.662  14.181  18.820  0.00  0.00    -0.027 C 
ATOM     29  H17 Y5H d          -2.082  15.026  19.385  0.00  0.00     0.037 H 
ATOM     30  H18 Y5H d          -2.478  13.605  18.362  0.00  0.00     0.037 H 
BRANCH  28  31
ATOM     31  C23 Y5H d          -0.677  14.680  17.745  0.00  0.00     0.086 C 
ATOM     32  H19 Y5H d           0.249  14.093  17.824  0.00  0.00     0.076 H 
ATOM     33  H20 Y5H d          -0.457  15.740  17.943  0.00  0.00     0.076 H 
BRANCH  31  34
ATOM     34  N29 Y5H d          -1.202  14.557  16.329  0.00  0.00    -0.079 N 
BRANCH  34  35
ATOM     35  C32 Y5H d          -0.054  14.450  15.365  0.00  0.00     0.067 C 
ATOM     36  H21 Y5H d           0.878  14.274  15.923  0.00  0.00     0.068 H 
ATOM     37  H22 Y5H d           0.032  15.386  14.792  0.00  0.00     0.068 H 
ATOM     38  H23 Y5H d          -0.232  13.612  14.675  0.00  0.00     0.068 H 
ENDBRANCH  34  35
BRANCH  34  39
ATOM     39  C31 Y5H d          -1.909  15.859  16.031  0.00  0.00     0.067 C 
ATOM     40  H24 Y5H d          -1.968  16.002  14.942  0.00  0.00     0.068 H 
ATOM     41  H25 Y5H d          -1.349  16.692  16.480  0.00  0.00     0.068 H 
ATOM     42  H26 Y5H d          -2.924  15.830  16.453  0.00  0.00     0.068 H 
ENDBRANCH  34  39
BRANCH  34  43
ATOM     43  C30 Y5H d          -2.119  13.396  16.142  0.00  0.00     0.067 C 
ATOM     44  H27 Y5H d          -2.376  12.970  17.124  0.00  0.00     0.068 H 
ATOM     45  H28 Y5H d          -1.621  12.631  15.529  0.00  0.00     0.068 H 
ATOM     46  H29 Y5H d          -3.037  13.731  15.637  0.00  0.00     0.068 H 
ENDBRANCH  34  43
ENDBRANCH  31  34
ENDBRANCH  28  31
ENDBRANCH  25  28
ENDBRANCH  13  25
BRANCH   1  47
ATOM     47  C4  Y5H d          -5.157  11.048  21.189  0.00  0.00     0.091 A 
ATOM     48  N16 Y5H d          -5.087   9.692  20.964  0.00  0.00    -0.224 NA
ATOM     49  C17 Y5H d          -5.745   9.513  19.837  0.00  0.00     0.186 A 
ATOM     50  O10 Y5H d          -6.154  10.663  19.243  0.00  0.00    -0.301 OA
ATOM     51  C9  Y5H d          -5.786  11.629  20.165  0.00  0.00     0.047 A 
ATOM     52  H3  Y5H d          -5.981  12.697  20.070  0.00  0.00     0.126 H 
BRANCH  49  53
ATOM     53  C20 Y5H d          -5.872   8.287  19.063  0.00  0.00     0.059 A 
ATOM     54  C22 Y5H d          -4.919   7.288  18.901  0.00  0.00    -0.060 A 
ATOM     55  C24 Y5H d          -5.404   6.156  18.205  0.00  0.00    -0.054 A 
ATOM     56  H2  Y5H d          -3.899   7.368  19.274  0.00  0.00     0.085 H 
ATOM     57  C25 Y5H d          -6.737   6.295  17.916  0.00  0.00     0.075 A 
ATOM     58  H1  Y5H d          -4.801   5.291  17.936  0.00  0.00     0.086 H 
ATOM     59 CL1  Y5H d          -7.783   5.143  17.113  0.00  0.00    -0.076 Cl
ATOM     60  S1  Y5H d          -7.403   7.834  18.384  0.00  0.00    -0.074 SA
ENDBRANCH  49  53
ENDBRANCH   1  47
TORSDOF 9
ENDMDL
MODEL 4
REMARK VINA RESULT:      -6.5      4.480      7.947
REMARK  9 active torsions:
REMARK  status: ('A' for Active; 'I' for Inactive)
REMARK    1  A    between atoms: C20_6  and  C17_7 
REMARK    2  A    between atoms: C4_11  and  C1_12 
REMARK    3  A    between atoms: N12_24  and  C19_25 
REMARK    4  A    between atoms: C19_25  and  C21_26 
REMARK    5  A    between atoms: C21_26  and  C23_27 
REMARK    6  A    between atoms: C23_27  and  N29_28 
REMARK    7  A    between atoms: N29_28  and  C32_29 
REMARK    8  A    between atoms: N29_28  and  C31_30 
REMARK    9  A    between atoms: N29_28  and  C30_31 
ROOT
ATOM      1  C1  Y5H d          -3.836  13.319  17.370  0.00  0.00     0.160 C 
ATOM      2  N3  Y5H d          -2.475  12.930  16.916  0.00  0.00    -0.055 N 
ATOM      3  C7  Y5H d          -1.652  14.095  17.282  0.00  0.00     0.117 C 
ATOM      4  C14 Y5H d          -1.899  15.127  16.167  0.00  0.00    -0.036 C 
ATOM      5  C15 Y5H d          -2.188  14.254  14.934  0.00  0.00    -0.040 C 
ATOM      6  C8  Y5H d          -2.359  12.809  15.441  0.00  0.00     0.085 C 
ATOM      7  C5  Y5H d          -2.118  14.541  18.664  0.00  0.00     0.066 A 
ATOM      8  C2  Y5H d          -3.552  13.956  18.772  0.00  0.00     0.071 A 
ATOM      9  C6  Y5H d          -3.431  12.991  19.943  0.00  0.00     0.234 A 
ATOM     10  O13 Y5H d          -4.305  12.307  20.449  0.00  0.00    -0.272 OA
ATOM     11  C11 Y5H d          -1.311  13.872  19.747  0.00  0.00     0.233 A 
ATOM     12  O18 Y5H d          -0.133  14.041  20.061  0.00  0.00    -0.272 OA
ATOM     13  N12 Y5H d          -2.112  12.930  20.422  0.00  0.00    -0.288 N 
ATOM     14  H4  Y5H d          -4.274  14.058  16.682  0.00  0.00     0.096 H 
ATOM     15  H5  Y5H d          -2.171  12.081  17.367  0.00  0.00     0.281 HD
ATOM     16  H6  Y5H d          -0.584  13.836  17.320  0.00  0.00     0.086 H 
ATOM     17  H7  Y5H d          -1.009  15.753  16.006  0.00  0.00     0.036 H 
ATOM     18  H8  Y5H d          -2.761  15.767  16.406  0.00  0.00     0.036 H 
ATOM     19  H9  Y5H d          -1.348  14.310  14.226  0.00  0.00     0.035 H 
ATOM     20  H10 Y5H d          -3.109  14.593  14.438  0.00  0.00     0.035 H 
ATOM     21  H11 Y5H d          -3.267  12.356  15.018  0.00  0.00     0.076 H 
ATOM     22  H12 Y5H d          -1.484  12.199  15.171  0.00  0.00     0.076 H 
ATOM     23  H13 Y5H d          -2.095  15.635  18.768  0.00  0.00     0.059 H 
ATOM     24  H14 Y5H d          -4.307  14.726  18.990  0.00  0.00     0.059 H 
ENDROOT
BRANCH  13  25
ATOM     25  C19 Y5H d          -1.689  12.077  21.544  0.00  0.00     0.007 C 
ATOM     26  H15 Y5H d          -0.639  11.782  21.398  0.00  0.00     0.065 H 
ATOM     27  H16 Y5H d          -2.322  11.178  21.574  0.00  0.00     0.065 H 
BRANCH  25  28
ATOM     28  C21 Y5H d          -1.821  12.834  22.874  0.00  0.00    -0.027 C 
ATOM     29  H17 Y5H d          -1.995  13.905  22.696  0.00  0.00     0.037 H 
ATOM     30  H18 Y5H d          -0.916  12.706  23.485  0.00  0.00     0.037 H 
BRANCH  28  31
ATOM     31  C23 Y5H d          -3.040  12.192  23.565  0.00  0.00     0.086 C 
ATOM     32  H19 Y5H d          -2.682  11.604  24.422  0.00  0.00     0.076 H 
ATOM     33  H20 Y5H d          -3.536  11.526  22.844  0.00  0.00     0.076 H 
BRANCH  31  34
ATOM     34  N29 Y5H d          -4.059  13.197  24.066  0.00  0.00    -0.079 N 
BRANCH  34  35
ATOM     35  C32 Y5H d          -3.928  13.358  25.554  0.00  0.00     0.067 C 
ATOM     36  H21 Y5H d          -3.234  14.182  25.775  0.00  0.00     0.068 H 
ATOM     37  H22 Y5H d          -3.541  12.425  25.992  0.00  0.00     0.068 H 
ATOM     38  H23 Y5H d          -4.915  13.584  25.986  0.00  0.00     0.068 H 
ENDBRANCH  34  35
BRANCH  34  39
ATOM     39  C31 Y5H d          -5.414  12.582  23.805  0.00  0.00     0.067 C 
ATOM     40  H24 Y5H d          -5.655  12.666  22.735  0.00  0.00     0.068 H 
ATOM     41  H25 Y5H d          -6.177  13.112  24.395  0.00  0.00     0.068 H 
ATOM     42  H26 Y5H d          -5.398  11.522  24.096  0.00  0.00     0.068 H 
ENDBRANCH  34  39
BRANCH  34  43
ATOM     43  C30 Y5H d          -3.941  14.530  23.409  0.00  0.00     0.067 C 
ATOM     44  H27 Y5H d          -4.691  15.215  23.831  0.00  0.00     0.068 H 
ATOM     45  H28 Y5H d          -4.111  14.422  22.328  0.00  0.00     0.068 H 
ATOM     46  H29 Y5H d          -2.934  14.937  23.583  0.00  0.00     0.068 H 
ENDBRANCH  34  43
ENDBRANCH  31  34
ENDBRANCH  28  31
ENDBRANCH  25  28
ENDBRANCH  13  25
BRANCH   1  47
ATOM     47  C4  Y5H d          -4.783  12.152  17.494  0.00  0.00     0.091 A 
ATOM     48  N16 Y5H d          -4.371  10.849  17.657  0.00  0.00    -0.224 NA
ATOM     49  C17 Y5H d          -5.492  10.162  17.754  0.00  0.00     0.186 A 
ATOM     50  O10 Y5H d          -6.615  10.899  17.562  0.00  0.00    -0.301 OA
ATOM     51  C9  Y5H d          -6.116  12.185  17.432  0.00  0.00     0.047 A 
ATOM     52  H3  Y5H d          -6.718  13.083  17.301  0.00  0.00     0.126 H 
BRANCH  49  53
ATOM     53  C20 Y5H d          -5.649   8.716  17.806  0.00  0.00     0.059 A 
ATOM     54  C22 Y5H d          -5.018   7.828  18.669  0.00  0.00    -0.060 A 
ATOM     55  C24 Y5H d          -5.496   6.502  18.559  0.00  0.00    -0.054 A 
ATOM     56  H2  Y5H d          -4.232   8.125  19.363  0.00  0.00     0.085 H 
ATOM     57  C25 Y5H d          -6.530   6.428  17.662  0.00  0.00     0.075 A 
ATOM     58  H1  Y5H d          -5.097   5.653  19.112  0.00  0.00     0.086 H 
ATOM     59 CL1  Y5H d          -7.470   5.017  17.228  0.00  0.00    -0.076 Cl
ATOM     60  S1  Y5H d          -6.874   7.933  16.859  0.00  0.00    -0.074 SA
ENDBRANCH  49  53
ENDBRANCH   1  47
TORSDOF 9
ENDMDL
MODEL 5
REMARK VINA RESULT:      -6.1      3.230      7.142
REMARK  9 active torsions:
REMARK  status: ('A' for Active; 'I' for Inactive)
REMARK    1  A    between atoms: C20_6  and  C17_7 
REMARK    2  A    between atoms: C4_11  and  C1_12 
REMARK    3  A    between atoms: N12_24  and  C19_25 
REMARK    4  A    between atoms: C19_25  and  C21_26 
REMARK    5  A    between atoms: C21_26  and  C23_27 
REMARK    6  A    between atoms: C23_27  and  N29_28 
REMARK    7  A    between atoms: N29_28  and  C32_29 
REMARK    8  A    between atoms: N29_28  and  C31_30 
REMARK    9  A    between atoms: N29_28  and  C30_31 
ROOT
ATOM      1  C1  Y5H d          -4.168  13.196  21.431  0.00  0.00     0.160 C 
ATOM      2  N3  Y5H d          -3.094  13.180  20.404  0.00  0.00    -0.055 N 
ATOM      3  C7  Y5H d          -2.073  14.078  20.970  0.00  0.00     0.117 C 
ATOM      4  C14 Y5H d          -2.569  15.500  20.655  0.00  0.00    -0.036 C 
ATOM      5  C15 Y5H d          -3.354  15.320  19.345  0.00  0.00    -0.040 C 
ATOM      6  C8  Y5H d          -3.501  13.803  19.119  0.00  0.00     0.085 C 
ATOM      7  C5  Y5H d          -1.989  13.758  22.459  0.00  0.00     0.066 A 
ATOM      8  C2  Y5H d          -3.355  13.089  22.766  0.00  0.00     0.071 A 
ATOM      9  C6  Y5H d          -2.951  11.688  23.202  0.00  0.00     0.234 A 
ATOM     10  O13 Y5H d          -3.670  10.781  23.586  0.00  0.00    -0.272 OA
ATOM     11  C11 Y5H d          -0.941  12.708  22.727  0.00  0.00     0.233 A 
ATOM     12  O18 Y5H d           0.285  12.791  22.649  0.00  0.00    -0.272 OA
ATOM     13  N12 Y5H d          -1.563  11.500  23.098  0.00  0.00    -0.288 N 
ATOM     14  H4  Y5H d          -4.729  14.141  21.386  0.00  0.00     0.096 H 
ATOM     15  H5  Y5H d          -2.750  12.244  20.253  0.00  0.00     0.281 HD
ATOM     16  H6  Y5H d          -1.091  13.914  20.502  0.00  0.00     0.086 H 
ATOM     17  H7  Y5H d          -1.724  16.190  20.516  0.00  0.00     0.036 H 
ATOM     18  H8  Y5H d          -3.222  15.876  21.457  0.00  0.00     0.036 H 
ATOM     19  H9  Y5H d          -2.805  15.776  18.509  0.00  0.00     0.035 H 
ATOM     20  H10 Y5H d          -4.346  15.787  19.431  0.00  0.00     0.035 H 
ATOM     21  H11 Y5H d          -4.542  13.547  18.878  0.00  0.00     0.076 H 
ATOM     22  H12 Y5H d          -2.843  13.469  18.303  0.00  0.00     0.076 H 
ATOM     23  H13 Y5H d          -1.812  14.661  23.060  0.00  0.00     0.059 H 
ATOM     24  H14 Y5H d          -3.902  13.596  23.575  0.00  0.00     0.059 H 
ENDROOT
BRANCH  13  25
ATOM     25  C19 Y5H d          -0.879  10.243  23.442  0.00  0.00     0.007 C 
ATOM     26  H15 Y5H d           0.098  10.213  22.938  0.00  0.00     0.065 H 
ATOM     27  H16 Y5H d          -1.493   9.394  23.106  0.00  0.00     0.065 H 
BRANCH  25  28
ATOM     28  C21 Y5H d          -0.668  10.146  24.960  0.00  0.00    -0.027 C 
ATOM     29  H17 Y5H d          -1.319  10.857  25.489  0.00  0.00     0.037 H 
ATOM     30  H18 Y5H d           0.381  10.346  25.220  0.00  0.00     0.037 H 
BRANCH  28  31
ATOM     31  C23 Y5H d          -1.050   8.694  25.311  0.00  0.00     0.086 C 
ATOM     32  H19 Y5H d          -0.377   8.017  24.764  0.00  0.00     0.076 H 
ATOM     33  H20 Y5H d          -2.087   8.521  24.988  0.00  0.00     0.076 H 
BRANCH  31  34
ATOM     34  N29 Y5H d          -0.950   8.376  26.790  0.00  0.00    -0.079 N 
BRANCH  34  35
ATOM     35  C32 Y5H d          -2.120   8.969  27.521  0.00  0.00     0.067 C 
ATOM     36  H21 Y5H d          -2.271  10.008  27.191  0.00  0.00     0.068 H 
ATOM     37  H22 Y5H d          -1.923   8.954  28.604  0.00  0.00     0.068 H 
ATOM     38  H23 Y5H d          -3.024   8.381  27.304  0.00  0.00     0.068 H 
ENDBRANCH  34  35
BRANCH  34  39
ATOM     39  C31 Y5H d           0.288   9.086  27.287  0.00  0.00     0.067 C 
ATOM     40  H24 Y5H d           0.513   9.936  26.627  0.00  0.00     0.068 H 
ATOM     41  H25 Y5H d           1.137   8.387  27.286  0.00  0.00     0.068 H 
ATOM     42  H26 Y5H d           0.115   9.450  28.310  0.00  0.00     0.068 H 
ENDBRANCH  34  39
BRANCH  34  43
ATOM     43  C30 Y5H d          -0.876   6.913  27.071  0.00  0.00     0.067 C 
ATOM     44  H27 Y5H d          -1.378   6.359  26.264  0.00  0.00     0.068 H 
ATOM     45  H28 Y5H d          -1.374   6.698  28.027  0.00  0.00     0.068 H 
ATOM     46  H29 Y5H d           0.178   6.604  27.128  0.00  0.00     0.068 H 
ENDBRANCH  34  43
ENDBRANCH  31  34
ENDBRANCH  28  31
ENDBRANCH  25  28
ENDBRANCH  13  25
BRANCH   1  47
ATOM     47  C4  Y5H d          -5.138  12.049  21.302  0.00  0.00     0.091 A 
ATOM     48  N16 Y5H d          -4.902  10.932  20.534  0.00  0.00    -0.224 NA
ATOM     49  C17 Y5H d          -5.965  10.176  20.720  0.00  0.00     0.186 A 
ATOM     50  O10 Y5H d          -6.936  10.756  21.471  0.00  0.00    -0.301 OA
ATOM     51  C9  Y5H d          -6.349  11.950  21.857  0.00  0.00     0.047 A 
ATOM     52  H3  Y5H d          -6.804  12.693  22.511  0.00  0.00     0.126 H 
BRANCH  49  53
ATOM     53  C20 Y5H d          -6.305   8.933  20.044  0.00  0.00     0.059 A 
ATOM     54  C22 Y5H d          -7.545   8.306  20.003  0.00  0.00    -0.060 A 
ATOM     55  C24 Y5H d          -7.579   7.186  19.140  0.00  0.00    -0.054 A 
ATOM     56  H2  Y5H d          -8.405   8.643  20.579  0.00  0.00     0.085 H 
ATOM     57  C25 Y5H d          -6.381   7.031  18.492  0.00  0.00     0.075 A 
ATOM     58  H1  Y5H d          -8.441   6.533  19.009  0.00  0.00     0.086 H 
ATOM     59 CL1  Y5H d          -5.961   5.824  17.296  0.00  0.00    -0.076 Cl
ATOM     60  S1  Y5H d          -5.160   8.169  18.988  0.00  0.00    -0.074 SA
ENDBRANCH  49  53
ENDBRANCH   1  47
TORSDOF 9
ENDMDL
MODEL 6
REMARK VINA RESULT:      -6.0      1.944      2.584
REMARK  9 active torsions:
REMARK  status: ('A' for Active; 'I' for Inactive)
REMARK    1  A    between atoms: C20_6  and  C17_7 
REMARK    2  A    between atoms: C4_11  and  C1_12 
REMARK    3  A    between atoms: N12_24  and  C19_25 
REMARK    4  A    between atoms: C19_25  and  C21_26 
REMARK    5  A    between atoms: C21_26  and  C23_27 
REMARK    6  A    between atoms: C23_27  and  N29_28 
REMARK    7  A    between atoms: N29_28  and  C32_29 
REMARK    8  A    between atoms: N29_28  and  C31_30 
REMARK    9  A    between atoms: N29_28  and  C30_31 
ROOT
ATOM      1  C1  Y5H d          -4.960  14.193  20.989  0.00  0.00     0.160 C 
ATOM      2  N3  Y5H d          -6.296  13.596  21.254  0.00  0.00    -0.055 N 
ATOM      3  C7  Y5H d          -7.057  13.919  20.035  0.00  0.00     0.117 C 
ATOM      4  C14 Y5H d          -7.501  15.381  20.214  0.00  0.00    -0.036 C 
ATOM      5  C15 Y5H d          -7.641  15.525  21.739  0.00  0.00    -0.040 C 
ATOM      6  C8  Y5H d          -7.026  14.259  22.364  0.00  0.00     0.085 C 
ATOM      7  C5  Y5H d          -6.114  13.689  18.859  0.00  0.00     0.066 A 
ATOM      8  C2  Y5H d          -4.703  13.787  19.498  0.00  0.00     0.071 A 
ATOM      9  C6  Y5H d          -4.133  12.394  19.265  0.00  0.00     0.234 A 
ATOM     10  O13 Y5H d          -3.026  11.975  19.554  0.00  0.00    -0.272 OA
ATOM     11  C11 Y5H d          -6.238  12.281  18.335  0.00  0.00     0.233 A 
ATOM     12  O18 Y5H d          -7.169  11.754  17.725  0.00  0.00    -0.272 OA
ATOM     13  N12 Y5H d          -5.077  11.551  18.655  0.00  0.00    -0.288 N 
ATOM     14  H4  Y5H d          -5.000  15.287  21.098  0.00  0.00     0.096 H 
ATOM     15  H5  Y5H d          -6.224  12.604  21.418  0.00  0.00     0.281 HD
ATOM     16  H6  Y5H d          -7.940  13.271  19.931  0.00  0.00     0.086 H 
ATOM     17  H7  Y5H d          -8.462  15.565  19.711  0.00  0.00     0.036 H 
ATOM     18  H8  Y5H d          -6.742  16.075  19.821  0.00  0.00     0.036 H 
ATOM     19  H9  Y5H d          -8.703  15.606  22.015  0.00  0.00     0.035 H 
ATOM     20  H10 Y5H d          -7.102  16.419  22.085  0.00  0.00     0.035 H 
ATOM     21  H11 Y5H d          -6.334  14.526  23.176  0.00  0.00     0.076 H 
ATOM     22  H12 Y5H d          -7.814  13.599  22.756  0.00  0.00     0.076 H 
ATOM     23  H13 Y5H d          -6.271  14.428  18.060  0.00  0.00     0.059 H 
ATOM     24  H14 Y5H d          -4.069  14.543  19.011  0.00  0.00     0.059 H 
ENDROOT
BRANCH  13  25
ATOM     25  C19 Y5H d          -4.815  10.144  18.312  0.00  0.00     0.007 C 
ATOM     26  H15 Y5H d          -3.729   9.988  18.228  0.00  0.00     0.065 H 
ATOM     27  H16 Y5H d          -5.295   9.911  17.350  0.00  0.00     0.065 H 
BRANCH  25  28
ATOM     28  C21 Y5H d          -5.377   9.214  19.397  0.00  0.00    -0.027 C 
ATOM     29  H17 Y5H d          -6.466   9.342  19.493  0.00  0.00     0.037 H 
ATOM     30  H18 Y5H d          -4.898   9.414  20.366  0.00  0.00     0.037 H 
BRANCH  28  31
ATOM     31  C23 Y5H d          -5.038   7.794  18.903  0.00  0.00     0.086 C 
ATOM     32  H19 Y5H d          -4.699   7.200  19.764  0.00  0.00     0.076 H 
ATOM     33  H20 Y5H d          -4.225   7.869  18.166  0.00  0.00     0.076 H 
BRANCH  31  34
ATOM     34  N29 Y5H d          -6.205   7.075  18.256  0.00  0.00    -0.079 N 
BRANCH  34  35
ATOM     35  C32 Y5H d          -7.459   7.319  19.048  0.00  0.00     0.067 C 
ATOM     36  H21 Y5H d          -8.283   7.567  18.363  0.00  0.00     0.068 H 
ATOM     37  H22 Y5H d          -7.296   8.155  19.744  0.00  0.00     0.068 H 
ATOM     38  H23 Y5H d          -7.715   6.413  19.616  0.00  0.00     0.068 H 
ENDBRANCH  34  35
BRANCH  34  39
ATOM     39  C31 Y5H d          -5.897   5.600  18.361  0.00  0.00     0.067 C 
ATOM     40  H24 Y5H d          -4.813   5.444  18.254  0.00  0.00     0.068 H 
ATOM     41  H25 Y5H d          -6.426   5.057  17.564  0.00  0.00     0.068 H 
ATOM     42  H26 Y5H d          -6.227   5.225  19.341  0.00  0.00     0.068 H 
ENDBRANCH  34  39
BRANCH  34  43
ATOM     43  C30 Y5H d          -6.427   7.475  16.837  0.00  0.00     0.067 C 
ATOM     44  H27 Y5H d          -5.923   6.759  16.171  0.00  0.00     0.068 H 
ATOM     45  H28 Y5H d          -6.016   8.481  16.671  0.00  0.00     0.068 H 
ATOM     46  H29 Y5H d          -7.505   7.479  16.621  0.00  0.00     0.068 H 
ENDBRANCH  34  43
ENDBRANCH  31  34
ENDBRANCH  28  31
ENDBRANCH  25  28
ENDBRANCH  13  25
BRANCH   1  47
ATOM     47  C4  Y5H d          -3.874  13.655  21.886  0.00  0.00     0.091 A 
ATOM     48  N16 Y5H d          -4.057  12.613  22.766  0.00  0.00    -0.224 NA
ATOM     49  C17 Y5H d          -2.874  12.441  23.320  0.00  0.00     0.186 A 
ATOM     50  O10 Y5H d          -1.948  13.361  22.950  0.00  0.00    -0.301 OA
ATOM     51  C9  Y5H d          -2.622  14.106  21.996  0.00  0.00     0.047 A 
ATOM     52  H3  Y5H d          -2.197  14.930  21.425  0.00  0.00     0.126 H 
BRANCH  49  53
ATOM     53  C20 Y5H d          -2.526  11.556  24.421  0.00  0.00     0.059 A 
ATOM     54  C22 Y5H d          -3.214  11.384  25.617  0.00  0.00    -0.060 A 
ATOM     55  C24 Y5H d          -2.693  10.342  26.419  0.00  0.00    -0.054 A 
ATOM     56  H2  Y5H d          -4.070  11.991  25.907  0.00  0.00     0.085 H 
ATOM     57  C25 Y5H d          -1.663   9.702  25.781  0.00  0.00     0.075 A 
ATOM     58  H1  Y5H d          -3.061  10.084  27.411  0.00  0.00     0.086 H 
ATOM     59 CL1  Y5H d          -0.742   8.327  26.351  0.00  0.00    -0.076 Cl
ATOM     60  S1  Y5H d          -1.235  10.409  24.249  0.00  0.00    -0.074 SA
ENDBRANCH  49  53
ENDBRANCH   1  47
TORSDOF 9
ENDMDL
MODEL 7
REMARK VINA RESULT:      -5.9      4.095      6.986
REMARK  9 active torsions:
REMARK  status: ('A' for Active; 'I' for Inactive)
REMARK    1  A    between atoms: C20_6  and  C17_7 
REMARK    2  A    between atoms: C4_11  and  C1_12 
REMARK    3  A    between atoms: N12_24  and  C19_25 
REMARK    4  A    between atoms: C19_25  and  C21_26 
REMARK    5  A    between atoms: C21_26  and  C23_27 
REMARK    6  A    between atoms: C23_27  and  N29_28 
REMARK    7  A    between atoms: N29_28  and  C32_29 
REMARK    8  A    between atoms: N29_28  and  C31_30 
REMARK    9  A    between atoms: N29_28  and  C30_31 
ROOT
ATOM      1  C1  Y5H d          -6.687   8.759  19.295  0.00  0.00     0.160 C 
ATOM      2  N3  Y5H d          -5.905   8.120  18.204  0.00  0.00    -0.055 N 
ATOM      3  C7  Y5H d          -6.944   7.687  17.254  0.00  0.00     0.117 C 
ATOM      4  C14 Y5H d          -7.499   6.375  17.837  0.00  0.00    -0.036 C 
ATOM      5  C15 Y5H d          -6.294   5.782  18.586  0.00  0.00    -0.040 C 
ATOM      6  C8  Y5H d          -5.212   6.877  18.628  0.00  0.00     0.085 C 
ATOM      7  C5  Y5H d          -7.962   8.819  17.176  0.00  0.00     0.066 A 
ATOM      8  C2  Y5H d          -7.745   9.598  18.500  0.00  0.00     0.071 A 
ATOM      9  C6  Y5H d          -7.295  10.968  18.012  0.00  0.00     0.234 A 
ATOM     10  O13 Y5H d          -7.034  11.956  18.677  0.00  0.00    -0.272 OA
ATOM     11  C11 Y5H d          -7.617   9.779  16.066  0.00  0.00     0.233 A 
ATOM     12  O18 Y5H d          -7.667   9.614  14.847  0.00  0.00    -0.272 OA
ATOM     13  N12 Y5H d          -7.173  10.998  16.613  0.00  0.00    -0.288 N 
ATOM     14  H4  Y5H d          -7.177   7.995  19.916  0.00  0.00     0.096 H 
ATOM     15  H5  Y5H d          -5.251   8.771  17.797  0.00  0.00     0.281 HD
ATOM     16  H6  Y5H d          -6.521   7.501  16.256  0.00  0.00     0.086 H 
ATOM     17  H7  Y5H d          -7.837   5.700  17.037  0.00  0.00     0.036 H 
ATOM     18  H8  Y5H d          -8.333   6.573  18.527  0.00  0.00     0.036 H 
ATOM     19  H9  Y5H d          -5.916   4.897  18.053  0.00  0.00     0.035 H 
ATOM     20  H10 Y5H d          -6.586   5.498  19.608  0.00  0.00     0.035 H 
ATOM     21  H11 Y5H d          -4.812   6.987  19.647  0.00  0.00     0.076 H 
ATOM     22  H12 Y5H d          -4.391   6.638  17.937  0.00  0.00     0.076 H 
ATOM     23  H13 Y5H d          -8.988   8.438  17.069  0.00  0.00     0.059 H 
ATOM     24  H14 Y5H d          -8.668   9.690  19.093  0.00  0.00     0.059 H 
ENDROOT
BRANCH  13  25
ATOM     25  C19 Y5H d          -6.749  12.186  15.855  0.00  0.00     0.007 C 
ATOM     26  H15 Y5H d          -7.008  13.091  16.425  0.00  0.00     0.065 H 
ATOM     27  H16 Y5H d          -7.269  12.201  14.886  0.00  0.00     0.065 H 
BRANCH  25  28
ATOM     28  C21 Y5H d          -5.233  12.157  15.615  0.00  0.00    -0.027 C 
ATOM     29  H17 Y5H d          -5.007  11.802  14.599  0.00  0.00     0.037 H 
ATOM     30  H18 Y5H d          -4.736  11.506  16.350  0.00  0.00     0.037 H 
BRANCH  28  31
ATOM     31  C23 Y5H d          -4.785  13.620  15.792  0.00  0.00     0.086 C 
ATOM     32  H19 Y5H d          -5.547  14.147  16.386  0.00  0.00     0.076 H 
ATOM     33  H20 Y5H d          -4.711  14.083  14.797  0.00  0.00     0.076 H 
BRANCH  31  34
ATOM     34  N29 Y5H d          -3.447  13.771  16.490  0.00  0.00    -0.079 N 
BRANCH  34  35
ATOM     35  C32 Y5H d          -3.516  13.169  17.864  0.00  0.00     0.067 C 
ATOM     36  H21 Y5H d          -4.535  12.800  18.053  0.00  0.00     0.068 H 
ATOM     37  H22 Y5H d          -3.259  13.933  18.613  0.00  0.00     0.068 H 
ATOM     38  H23 Y5H d          -2.805  12.333  17.934  0.00  0.00     0.068 H 
ENDBRANCH  34  35
BRANCH  34  39
ATOM     39  C31 Y5H d          -3.235  15.257  16.669  0.00  0.00     0.067 C 
ATOM     40  H24 Y5H d          -2.569  15.431  17.527  0.00  0.00     0.068 H 
ATOM     41  H25 Y5H d          -4.203  15.746  16.850  0.00  0.00     0.068 H 
ATOM     42  H26 Y5H d          -2.778  15.674  15.759  0.00  0.00     0.068 H 
ENDBRANCH  34  39
BRANCH  34  43
ATOM     43  C30 Y5H d          -2.319  13.157  15.733  0.00  0.00     0.067 C 
ATOM     44  H27 Y5H d          -2.719  12.488  14.957  0.00  0.00     0.068 H 
ATOM     45  H28 Y5H d          -1.685  12.582  16.423  0.00  0.00     0.068 H 
ATOM     46  H29 Y5H d          -1.721  13.950  15.260  0.00  0.00     0.068 H 
ENDBRANCH  34  43
ENDBRANCH  31  34
ENDBRANCH  28  31
ENDBRANCH  25  28
ENDBRANCH  13  25
BRANCH   1  47
ATOM     47  C4  Y5H d          -5.858   9.649  20.186  0.00  0.00     0.091 A 
ATOM     48  N16 Y5H d          -4.502   9.829  20.036  0.00  0.00    -0.224 NA
ATOM     49  C17 Y5H d          -4.180  10.691  20.979  0.00  0.00     0.186 A 
ATOM     50  O10 Y5H d          -5.203  11.015  21.810  0.00  0.00    -0.301 OA
ATOM     51  C9  Y5H d          -6.278  10.349  21.243  0.00  0.00     0.047 A 
ATOM     52  H3  Y5H d          -7.305  10.391  21.603  0.00  0.00     0.126 H 
BRANCH  49  53
ATOM     53  C20 Y5H d          -2.849  11.137  21.362  0.00  0.00     0.059 A 
ATOM     54  C22 Y5H d          -1.687  10.375  21.421  0.00  0.00    -0.060 A 
ATOM     55  C24 Y5H d          -0.528  11.139  21.693  0.00  0.00    -0.054 A 
ATOM     56  H2  Y5H d          -1.671   9.296  21.273  0.00  0.00     0.085 H 
ATOM     57  C25 Y5H d          -0.829  12.474  21.765  0.00  0.00     0.075 A 
ATOM     58  H1  Y5H d           0.469  10.722  21.827  0.00  0.00     0.086 H 
ATOM     59 CL1  Y5H d           0.276  13.806  22.030  0.00  0.00    -0.076 Cl
ATOM     60  S1  Y5H d          -2.527  12.823  21.611  0.00  0.00    -0.074 SA
ENDBRANCH  49  53
ENDBRANCH   1  47
TORSDOF 9
ENDMDL
MODEL 8
REMARK VINA RESULT:      -5.8      3.189      6.408
REMARK  9 active torsions:
REMARK  status: ('A' for Active; 'I' for Inactive)
REMARK    1  A    between atoms: C20_6  and  C17_7 
REMARK    2  A    between atoms: C4_11  and  C1_12 
REMARK    3  A    between atoms: N12_24  and  C19_25 
REMARK    4  A    between atoms: C19_25  and  C21_26 
REMARK    5  A    between atoms: C21_26  and  C23_27 
REMARK    6  A    between atoms: C23_27  and  N29_28 
REMARK    7  A    between atoms: N29_28  and  C32_29 
REMARK    8  A    between atoms: N29_28  and  C31_30 
REMARK    9  A    between atoms: N29_28  and  C30_31 
ROOT
ATOM      1  C1  Y5H d          -5.785  11.178  18.927  0.00  0.00     0.160 C 
ATOM      2  N3  Y5H d          -4.824  10.193  18.364  0.00  0.00    -0.055 N 
ATOM      3  C7  Y5H d          -4.966  10.377  16.909  0.00  0.00     0.117 C 
ATOM      4  C14 Y5H d          -6.235   9.594  16.528  0.00  0.00    -0.036 C 
ATOM      5  C15 Y5H d          -6.272   8.454  17.560  0.00  0.00    -0.040 C 
ATOM      6  C8  Y5H d          -5.208   8.783  18.625  0.00  0.00     0.085 C 
ATOM      7  C5  Y5H d          -5.061  11.880  16.668  0.00  0.00     0.066 A 
ATOM      8  C2  Y5H d          -5.528  12.441  18.037  0.00  0.00     0.071 A 
ATOM      9  C6  Y5H d          -4.364  13.333  18.447  0.00  0.00     0.234 A 
ATOM     10  O13 Y5H d          -4.265  14.032  19.441  0.00  0.00    -0.272 OA
ATOM     11  C11 Y5H d          -3.698  12.472  16.417  0.00  0.00     0.233 A 
ATOM     12  O18 Y5H d          -2.954  12.336  15.445  0.00  0.00    -0.272 OA
ATOM     13  N12 Y5H d          -3.314  13.263  17.517  0.00  0.00    -0.288 N 
ATOM     14  H4  Y5H d          -6.818  10.817  18.810  0.00  0.00     0.096 H 
ATOM     15  H5  Y5H d          -3.887  10.373  18.690  0.00  0.00     0.281 HD
ATOM     16  H6  Y5H d          -4.100   9.970  16.367  0.00  0.00     0.086 H 
ATOM     17  H7  Y5H d          -6.160   9.196  15.505  0.00  0.00     0.036 H 
ATOM     18  H8  Y5H d          -7.130  10.228  16.610  0.00  0.00     0.036 H 
ATOM     19  H9  Y5H d          -6.038   7.496  17.074  0.00  0.00     0.035 H 
ATOM     20  H10 Y5H d          -7.267   8.397  18.025  0.00  0.00     0.035 H 
ATOM     21  H11 Y5H d          -5.627   8.677  19.636  0.00  0.00     0.076 H 
ATOM     22  H12 Y5H d          -4.337   8.119  18.518  0.00  0.00     0.076 H 
ATOM     23  H13 Y5H d          -5.756  12.118  15.850  0.00  0.00     0.059 H 
ATOM     24  H14 Y5H d          -6.452  13.034  17.958  0.00  0.00     0.059 H 
ENDROOT
BRANCH  13  25
ATOM     25  C19 Y5H d          -2.053  14.011  17.650  0.00  0.00     0.007 C 
ATOM     26  H15 Y5H d          -2.271  15.026  18.014  0.00  0.00     0.065 H 
ATOM     27  H16 Y5H d          -1.563  14.071  16.668  0.00  0.00     0.065 H 
BRANCH  25  28
ATOM     28  C21 Y5H d          -1.115  13.309  18.642  0.00  0.00    -0.027 C 
ATOM     29  H17 Y5H d          -0.320  12.768  18.109  0.00  0.00     0.037 H 
ATOM     30  H18 Y5H d          -1.675  12.606  19.276  0.00  0.00     0.037 H 
BRANCH  28  31
ATOM     31  C23 Y5H d          -0.522  14.452  19.489  0.00  0.00     0.086 C 
ATOM     32  H19 Y5H d          -1.157  15.341  19.364  0.00  0.00     0.076 H 
ATOM     33  H20 Y5H d           0.491  14.669  19.117  0.00  0.00     0.076 H 
BRANCH  31  34
ATOM     34  N29 Y5H d          -0.430  14.134  20.968  0.00  0.00    -0.079 N 
BRANCH  34  35
ATOM     35  C32 Y5H d          -1.806  14.087  21.568  0.00  0.00     0.067 C 
ATOM     36  H21 Y5H d          -2.272  15.081  21.497  0.00  0.00     0.068 H 
ATOM     37  H22 Y5H d          -1.736  13.789  22.625  0.00  0.00     0.068 H 
ATOM     38  H23 Y5H d          -2.419  13.356  21.020  0.00  0.00     0.068 H 
ENDBRANCH  34  35
BRANCH  34  39
ATOM     39  C31 Y5H d           0.288  15.303  21.602  0.00  0.00     0.067 C 
ATOM     40  H24 Y5H d           0.209  15.231  22.697  0.00  0.00     0.068 H 
ATOM     41  H25 Y5H d          -0.171  16.243  21.263  0.00  0.00     0.068 H 
ATOM     42  H26 Y5H d           1.347  15.286  21.309  0.00  0.00     0.068 H 
ENDBRANCH  34  39
BRANCH  34  43
ATOM     43  C30 Y5H d           0.281  12.854  21.250  0.00  0.00     0.067 C 
ATOM     44  H27 Y5H d          -0.348  12.008  20.936  0.00  0.00     0.068 H 
ATOM     45  H28 Y5H d           0.486  12.778  22.328  0.00  0.00     0.068 H 
ATOM     46  H29 Y5H d           1.230  12.832  20.694  0.00  0.00     0.068 H 
ENDBRANCH  34  43
ENDBRANCH  31  34
ENDBRANCH  28  31
ENDBRANCH  25  28
ENDBRANCH  13  25
BRANCH   1  47
ATOM     47  C4  Y5H d          -5.541  11.489  20.382  0.00  0.00     0.091 A 
ATOM     48  N16 Y5H d          -4.382  11.164  21.048  0.00  0.00    -0.224 NA
ATOM     49  C17 Y5H d          -4.562  11.634  22.266  0.00  0.00     0.186 A 
ATOM     50  O10 Y5H d          -5.797  12.151  22.486  0.00  0.00    -0.301 OA
ATOM     51  C9  Y5H d          -6.387  12.072  21.235  0.00  0.00     0.047 A 
ATOM     52  H3  Y5H d          -7.386  12.430  20.986  0.00  0.00     0.126 H 
BRANCH  49  53
ATOM     53  C20 Y5H d          -3.704  11.453  23.427  0.00  0.00     0.059 A 
ATOM     54  C22 Y5H d          -3.987  11.785  24.747  0.00  0.00    -0.060 A 
ATOM     55  C24 Y5H d          -3.000  11.350  25.661  0.00  0.00    -0.054 A 
ATOM     56  H2  Y5H d          -4.882  12.329  25.048  0.00  0.00     0.085 H 
ATOM     57  C25 Y5H d          -2.022  10.634  25.019  0.00  0.00     0.075 A 
ATOM     58  H1  Y5H d          -3.014  11.555  26.730  0.00  0.00     0.086 H 
ATOM     59 CL1  Y5H d          -0.626   9.855  25.731  0.00  0.00    -0.076 Cl
ATOM     60  S1  Y5H d          -2.221  10.563  23.291  0.00  0.00    -0.074 SA
ENDBRANCH  49  53
ENDBRANCH   1  47
TORSDOF 9
ENDMDL
MODEL 9
REMARK VINA RESULT:      -5.7      3.854      6.712
REMARK  9 active torsions:
REMARK  status: ('A' for Active; 'I' for Inactive)
REMARK    1  A    between atoms: C20_6  and  C17_7 
REMARK    2  A    between atoms: C4_11  and  C1_12 
REMARK    3  A    between atoms: N12_24  and  C19_25 
REMARK    4  A    between atoms: C19_25  and  C21_26 
REMARK    5  A    between atoms: C21_26  and  C23_27 
REMARK    6  A    between atoms: C23_27  and  N29_28 
REMARK    7  A    between atoms: N29_28  and  C32_29 
REMARK    8  A    between atoms: N29_28  and  C31_30 
REMARK    9  A    between atoms: N29_28  and  C30_31 
ROOT
ATOM      1  C1  Y5H d          -6.532  10.300  19.434  0.00  0.00     0.160 C 
ATOM      2  N3  Y5H d          -5.213   9.631  19.277  0.00  0.00    -0.055 N 
ATOM      3  C7  Y5H d          -5.149   9.347  17.833  0.00  0.00     0.117 C 
ATOM      4  C14 Y5H d          -5.994   8.076  17.636  0.00  0.00    -0.036 C 
ATOM      5  C15 Y5H d          -5.830   7.330  18.971  0.00  0.00    -0.040 C 
ATOM      6  C8  Y5H d          -5.143   8.307  19.945  0.00  0.00     0.085 C 
ATOM      7  C5  Y5H d          -5.696  10.580  17.123  0.00  0.00     0.066 A 
ATOM      8  C2  Y5H d          -6.559  11.276  18.210  0.00  0.00     0.071 A 
ATOM      9  C6  Y5H d          -5.852  12.612  18.392  0.00  0.00     0.234 A 
ATOM     10  O13 Y5H d          -6.169  13.539  19.118  0.00  0.00    -0.272 OA
ATOM     11  C11 Y5H d          -4.588  11.546  16.788  0.00  0.00     0.233 A 
ATOM     12  O18 Y5H d          -3.682  11.439  15.961  0.00  0.00    -0.272 OA
ATOM     13  N12 Y5H d          -4.692  12.689  17.604  0.00  0.00    -0.288 N 
ATOM     14  H4  Y5H d          -7.346   9.564  19.370  0.00  0.00     0.096 H 
ATOM     15  H5  Y5H d          -4.463  10.228  19.591  0.00  0.00     0.281 HD
ATOM     16  H6  Y5H d          -4.115   9.162  17.507  0.00  0.00     0.086 H 
ATOM     17  H7  Y5H d          -5.610   7.474  16.800  0.00  0.00     0.036 H 
ATOM     18  H8  Y5H d          -7.049   8.328  17.454  0.00  0.00     0.036 H 
ATOM     19  H9  Y5H d          -5.207   6.435  18.831  0.00  0.00     0.035 H 
ATOM     20  H10 Y5H d          -6.814   7.035  19.363  0.00  0.00     0.035 H 
ATOM     21  H11 Y5H d          -5.674   8.331  20.907  0.00  0.00     0.076 H 
ATOM     22  H12 Y5H d          -4.096   8.013  20.112  0.00  0.00     0.076 H 
ATOM     23  H13 Y5H d          -6.275  10.311  16.227  0.00  0.00     0.059 H 
ATOM     24  H14 Y5H d          -7.598  11.437  17.885  0.00  0.00     0.059 H 
ENDROOT
BRANCH  13  25
ATOM     25  C19 Y5H d          -3.799  13.858  17.577  0.00  0.00     0.007 C 
ATOM     26  H15 Y5H d          -4.323  14.725  18.007  0.00  0.00     0.065 H 
ATOM     27  H16 Y5H d          -3.521  14.077  16.535  0.00  0.00     0.065 H 
BRANCH  25  28
ATOM     28  C21 Y5H d          -2.527  13.582  18.392  0.00  0.00    -0.027 C 
ATOM     29  H17 Y5H d          -1.654  14.060  17.925  0.00  0.00     0.037 H 
ATOM     30  H18 Y5H d          -2.350  12.500  18.479  0.00  0.00     0.037 H 
BRANCH  28  31
ATOM     31  C23 Y5H d          -2.812  14.201  19.775  0.00  0.00     0.086 C 
ATOM     32  H19 Y5H d          -3.850  13.966  20.052  0.00  0.00     0.076 H 
ATOM     33  H20 Y5H d          -2.690  15.291  19.698  0.00  0.00     0.076 H 
BRANCH  31  34
ATOM     34  N29 Y5H d          -1.897  13.693  20.872  0.00  0.00    -0.079 N 
BRANCH  34  35
ATOM     35  C32 Y5H d          -0.462  13.883  20.471  0.00  0.00     0.067 C 
ATOM     36  H21 Y5H d           0.146  13.066  20.886  0.00  0.00     0.068 H 
ATOM     37  H22 Y5H d          -0.097  14.846  20.860  0.00  0.00     0.068 H 
ATOM     38  H23 Y5H d          -0.384  13.877  19.374  0.00  0.00     0.068 H 
ENDBRANCH  34  35
BRANCH  34  39
ATOM     39  C31 Y5H d          -2.138  12.204  20.961  0.00  0.00     0.067 C 
ATOM     40  H24 Y5H d          -1.352  11.742  21.577  0.00  0.00     0.068 H 
ATOM     41  H25 Y5H d          -2.116  11.768  19.951  0.00  0.00     0.068 H 
ATOM     42  H26 Y5H d          -3.120  12.018  21.419  0.00  0.00     0.068 H 
ENDBRANCH  34  39
BRANCH  34  43
ATOM     43  C30 Y5H d          -2.139  14.353  22.188  0.00  0.00     0.067 C 
ATOM     44  H27 Y5H d          -1.953  15.433  22.096  0.00  0.00     0.068 H 
ATOM     45  H28 Y5H d          -1.460  13.927  22.941  0.00  0.00     0.068 H 
ATOM     46  H29 Y5H d          -3.181  14.185  22.496  0.00  0.00     0.068 H 
ENDBRANCH  34  43
ENDBRANCH  31  34
ENDBRANCH  28  31
ENDBRANCH  25  28
ENDBRANCH  13  25
BRANCH   1  47
ATOM     47  C4  Y5H d          -6.667  11.061  20.728  0.00  0.00     0.091 A 
ATOM     48  N16 Y5H d          -5.599  11.417  21.521  0.00  0.00    -0.224 NA
ATOM     49  C17 Y5H d          -6.141  12.084  22.520  0.00  0.00     0.186 A 
ATOM     50  O10 Y5H d          -7.498  12.106  22.503  0.00  0.00    -0.301 OA
ATOM     51  C9  Y5H d          -7.798  11.465  21.312  0.00  0.00     0.047 A 
ATOM     52  H3  Y5H d          -8.801  11.315  20.914  0.00  0.00     0.126 H 
BRANCH  49  53
ATOM     53  C20 Y5H d          -5.485  12.579  23.721  0.00  0.00     0.059 A 
ATOM     54  C22 Y5H d          -4.265  12.170  24.246  0.00  0.00    -0.060 A 
ATOM     55  C24 Y5H d          -3.838  12.950  25.347  0.00  0.00    -0.054 A 
ATOM     56  H2  Y5H d          -3.694  11.332  23.850  0.00  0.00     0.085 H 
ATOM     57  C25 Y5H d          -4.713  13.978  25.586  0.00  0.00     0.075 A 
ATOM     58  H1  Y5H d          -2.936  12.759  25.925  0.00  0.00     0.086 H 
ATOM     59 CL1  Y5H d          -4.586  15.228  26.805  0.00  0.00    -0.076 Cl
ATOM     60  S1  Y5H d          -6.118  13.961  24.558  0.00  0.00    -0.074 SA
ENDBRANCH  49  53
ENDBRANCH   1  47
TORSDOF 9
ENDMDL
MODEL 10
REMARK VINA RESULT:      -5.7      4.170      7.237
REMARK  9 active torsions:
REMARK  status: ('A' for Active; 'I' for Inactive)
REMARK    1  A    between atoms: C20_6  and  C17_7 
REMARK    2  A    between atoms: C4_11  and  C1_12 
REMARK    3  A    between atoms: N12_24  and  C19_25 
REMARK    4  A    between atoms: C19_25  and  C21_26 
REMARK    5  A    between atoms: C21_26  and  C23_27 
REMARK    6  A    between atoms: C23_27  and  N29_28 
REMARK    7  A    between atoms: N29_28  and  C32_29 
REMARK    8  A    between atoms: N29_28  and  C31_30 
REMARK    9  A    between atoms: N29_28  and  C30_31 
ROOT
ATOM      1  C1  Y5H d          -6.579   9.730  18.796  0.00  0.00     0.160 C 
ATOM      2  N3  Y5H d          -5.237   9.145  18.534  0.00  0.00    -0.055 N 
ATOM      3  C7  Y5H d          -5.337   8.683  17.139  0.00  0.00     0.117 C 
ATOM      4  C14 Y5H d          -6.082   7.339  17.213  0.00  0.00    -0.036 C 
ATOM      5  C15 Y5H d          -5.678   6.785  18.590  0.00  0.00    -0.040 C 
ATOM      6  C8  Y5H d          -4.961   7.926  19.336  0.00  0.00     0.085 C 
ATOM      7  C5  Y5H d          -6.081   9.771  16.373  0.00  0.00     0.066 A 
ATOM      8  C2  Y5H d          -6.854  10.535  17.481  0.00  0.00     0.071 A 
ATOM      9  C6  Y5H d          -6.253  11.932  17.404  0.00  0.00     0.234 A 
ATOM     10  O13 Y5H d          -6.555  12.919  18.053  0.00  0.00    -0.272 OA
ATOM     11  C11 Y5H d          -5.118  10.765  15.775  0.00  0.00     0.233 A 
ATOM     12  O18 Y5H d          -4.322  10.619  14.847  0.00  0.00    -0.272 OA
ATOM     13  N12 Y5H d          -5.217  11.993  16.457  0.00  0.00    -0.288 N 
ATOM     14  H4  Y5H d          -7.325   8.934  18.934  0.00  0.00     0.096 H 
ATOM     15  H5  Y5H d          -4.510   9.831  18.667  0.00  0.00     0.281 HD
ATOM     16  H6  Y5H d          -4.342   8.534  16.694  0.00  0.00     0.086 H 
ATOM     17  H7  Y5H d          -5.758   6.664  16.408  0.00  0.00     0.036 H 
ATOM     18  H8  Y5H d          -7.170   7.487  17.153  0.00  0.00     0.036 H 
ATOM     19  H9  Y5H d          -5.001   5.927  18.470  0.00  0.00     0.035 H 
ATOM     20  H10 Y5H d          -6.572   6.471  19.149  0.00  0.00     0.035 H 
ATOM     21  H11 Y5H d          -5.362   8.035  20.354  0.00  0.00     0.076 H 
ATOM     22  H12 Y5H d          -3.879   7.735  19.388  0.00  0.00     0.076 H 
ATOM     23  H13 Y5H d          -6.745   9.348  15.605  0.00  0.00     0.059 H 
ATOM     24  H14 Y5H d          -7.936  10.577  17.290  0.00  0.00     0.059 H 
ENDROOT
BRANCH  13  25
ATOM     25  C19 Y5H d          -4.444  13.211  16.167  0.00  0.00     0.007 C 
ATOM     26  H15 Y5H d          -5.033  14.092  16.463  0.00  0.00     0.065 H 
ATOM     27  H16 Y5H d          -4.232  13.257  15.089  0.00  0.00     0.065 H 
BRANCH  25  28
ATOM     28  C21 Y5H d          -3.120  13.204  16.944  0.00  0.00    -0.027 C 
ATOM     29  H17 Y5H d          -2.958  12.229  17.427  0.00  0.00     0.037 H 
ATOM     30  H18 Y5H d          -3.113  13.997  17.706  0.00  0.00     0.037 H 
BRANCH  28  31
ATOM     31  C23 Y5H d          -2.043  13.467  15.874  0.00  0.00     0.086 C 
ATOM     32  H19 Y5H d          -2.398  14.273  15.215  0.00  0.00     0.076 H 
ATOM     33  H20 Y5H d          -1.905  12.547  15.288  0.00  0.00     0.076 H 
BRANCH  31  34
ATOM     34  N29 Y5H d          -0.699  13.876  16.446  0.00  0.00    -0.079 N 
BRANCH  34  35
ATOM     35  C32 Y5H d          -0.267  15.186  15.851  0.00  0.00     0.067 C 
ATOM     36  H21 Y5H d           0.744  15.082  15.430  0.00  0.00     0.068 H 
ATOM     37  H22 Y5H d          -0.261  15.960  16.634  0.00  0.00     0.068 H 
ATOM     38  H23 Y5H d          -0.968  15.475  15.054  0.00  0.00     0.068 H 
ENDBRANCH  34  35
BRANCH  34  39
ATOM     39  C31 Y5H d           0.288  12.832  15.978  0.00  0.00     0.067 C 
ATOM     40  H24 Y5H d           0.574  12.192  16.825  0.00  0.00     0.068 H 
ATOM     41  H25 Y5H d           1.183  13.328  15.575  0.00  0.00     0.068 H 
ATOM     42  H26 Y5H d          -0.174  12.216  15.193  0.00  0.00     0.068 H 
ENDBRANCH  34  39
BRANCH  34  43
ATOM     43  C30 Y5H d          -0.702  13.980  17.933  0.00  0.00     0.067 C 
ATOM     44  H27 Y5H d          -0.924  12.995  18.369  0.00  0.00     0.068 H 
ATOM     45  H28 Y5H d          -1.468  14.702  18.249  0.00  0.00     0.068 H 
ATOM     46  H29 Y5H d           0.286  14.318  18.278  0.00  0.00     0.068 H 
ENDBRANCH  34  43
ENDBRANCH  31  34
ENDBRANCH  28  31
ENDBRANCH  25  28
ENDBRANCH  13  25
BRANCH   1  47
ATOM     47  C4  Y5H d          -6.612  10.639  19.998  0.00  0.00     0.091 A 
ATOM     48  N16 Y5H d          -5.485  11.102  20.637  0.00  0.00    -0.224 NA
ATOM     49  C17 Y5H d          -5.947  11.877  21.597  0.00  0.00     0.186 A 
ATOM     50  O10 Y5H d          -7.300  11.879  21.707  0.00  0.00    -0.301 OA
ATOM     51  C9  Y5H d          -7.694  11.095  20.634  0.00  0.00     0.047 A 
ATOM     52  H3  Y5H d          -8.725  10.885  20.354  0.00  0.00     0.126 H 
BRANCH  49  53
ATOM     53  C20 Y5H d          -5.195  12.522  22.663  0.00  0.00     0.059 A 
ATOM     54  C22 Y5H d          -3.854  12.886  22.649  0.00  0.00    -0.060 A 
ATOM     55  C24 Y5H d          -3.461  13.624  23.789  0.00  0.00    -0.054 A 
ATOM     56  H2  Y5H d          -3.172  12.628  21.840  0.00  0.00     0.085 H 
ATOM     57  C25 Y5H d          -4.533  13.864  24.610  0.00  0.00     0.075 A 
ATOM     58  H1  Y5H d          -2.444  13.958  23.989  0.00  0.00     0.086 H 
ATOM     59 CL1  Y5H d          -4.552  14.773  26.106  0.00  0.00    -0.076 Cl
ATOM     60  S1  Y5H d          -6.010  13.114  24.076  0.00  0.00    -0.074 SA
ENDBRANCH  49  53
ENDBRANCH   1  47
TORSDOF 9
ENDMDL
