MODEL 1
REMARK VINA RESULT:      -7.3      0.000      0.000
REMARK  2 active torsions:
REMARK  status: ('A' for Active; 'I' for Inactive)
REMARK    1  A    between atoms: C6_6  and  S11_10 
REMARK    2  A    between atoms: C7_14  and  N15_15 
ROOT
ATOM      1  C1  MOL d         -20.531  -2.167 -24.643  0.00  0.00    -0.059 A 
ATOM      2  C2  MOL d         -20.204  -2.124 -25.998  0.00  0.00    -0.081 A 
ATOM      3  C3  MOL d         -20.663  -1.067 -26.781  0.00  0.00    -0.070 A 
ATOM      4  C4  MOL d         -21.444  -0.048 -26.216  0.00  0.00     0.002 A 
ATOM      5  C5  MOL d         -21.775  -0.090 -24.844  0.00  0.00     0.001 A 
ATOM      6  C6  MOL d         -21.306  -1.158 -24.051  0.00  0.00     0.091 A 
ATOM      7  C9  MOL d         -22.999   1.997 -25.105  0.00  0.00    -0.080 A 
ATOM      8  C10 MOL d         -22.555   0.945 -24.305  0.00  0.00    -0.070 A 
ATOM      9  C8  MOL d         -22.673   2.026 -26.461  0.00  0.00    -0.057 A 
ATOM     10  C7  MOL d         -21.897   1.009 -27.022  0.00  0.00     0.036 A 
ATOM     11  H1  MOL d         -20.180  -2.994 -24.036  0.00  0.00     0.086 H 
ATOM     12  H2  MOL d         -19.598  -2.906 -26.438  0.00  0.00     0.083 H 
ATOM     13  H3  MOL d         -20.414  -1.032 -27.835  0.00  0.00     0.084 H 
ATOM     14  H4  MOL d         -23.598   2.792 -24.673  0.00  0.00     0.083 H 
ATOM     15  H5  MOL d         -22.817   0.925 -23.253  0.00  0.00     0.084 H 
ATOM     16  H6  MOL d         -23.024   2.842 -27.082  0.00  0.00     0.086 H 
ENDROOT
BRANCH   6  17
ATOM     17  S11 MOL d         -21.630  -1.300 -22.471  0.00  0.00     0.138 S 
ATOM     18  O14 MOL d         -20.887  -0.247 -21.742  0.00  0.00    -0.591 OA
ATOM     19  O12 MOL d         -21.225  -2.660 -22.026  0.00  0.00    -0.591 OA
ATOM     20  O13 MOL d         -23.077  -1.143 -22.167  0.00  0.00    -0.591 OA
ENDBRANCH   6  17
BRANCH  10  21
ATOM     21  N15 MOL d         -21.602   1.076 -28.354  0.00  0.00    -0.398 N 
ATOM     22  H7  MOL d         -21.511   0.211 -28.905  0.00  0.00     0.156 HD
ATOM     23  H8  MOL d         -21.469   1.991 -28.807  0.00  0.00     0.156 HD
ENDBRANCH  10  21
TORSDOF 2
ENDMDL
MODEL 2
REMARK VINA RESULT:      -7.3      1.385      3.424
REMARK  2 active torsions:
REMARK  status: ('A' for Active; 'I' for Inactive)
REMARK    1  A    between atoms: C6_6  and  S11_10 
REMARK    2  A    between atoms: C7_14  and  N15_15 
ROOT
ATOM      1  C1  MOL d         -22.431   2.072 -24.639  0.00  0.00    -0.059 A 
ATOM      2  C2  MOL d         -22.752   2.030 -25.996  0.00  0.00    -0.081 A 
ATOM      3  C3  MOL d         -22.283   0.978 -26.779  0.00  0.00    -0.070 A 
ATOM      4  C4  MOL d         -21.497  -0.037 -26.212  0.00  0.00     0.002 A 
ATOM      5  C5  MOL d         -21.172   0.005 -24.839  0.00  0.00     0.001 A 
ATOM      6  C6  MOL d         -21.651   1.068 -24.046  0.00  0.00     0.091 A 
ATOM      7  C9  MOL d         -19.932  -2.073 -25.098  0.00  0.00    -0.080 A 
ATOM      8  C10 MOL d         -20.387  -1.026 -24.298  0.00  0.00    -0.070 A 
ATOM      9  C8  MOL d         -20.252  -2.102 -26.456  0.00  0.00    -0.057 A 
ATOM     10  C7  MOL d         -21.033  -1.090 -27.019  0.00  0.00     0.036 A 
ATOM     11  H1  MOL d         -22.790   2.896 -24.033  0.00  0.00     0.086 H 
ATOM     12  H2  MOL d         -23.362   2.809 -26.438  0.00  0.00     0.083 H 
ATOM     13  H3  MOL d         -22.526   0.943 -27.834  0.00  0.00     0.084 H 
ATOM     14  H4  MOL d         -19.330  -2.865 -24.665  0.00  0.00     0.083 H 
ATOM     15  H5  MOL d         -20.130  -1.006 -23.245  0.00  0.00     0.084 H 
ATOM     16  H6  MOL d         -19.894  -2.915 -27.077  0.00  0.00     0.086 H 
ENDROOT
BRANCH   6  17
ATOM     17  S11 MOL d         -21.335   1.210 -22.464  0.00  0.00     0.138 S 
ATOM     18  O14 MOL d         -22.063   0.141 -21.742  0.00  0.00    -0.591 OA
ATOM     19  O12 MOL d         -21.764   2.561 -22.016  0.00  0.00    -0.591 OA
ATOM     20  O13 MOL d         -19.887   1.075 -22.156  0.00  0.00    -0.591 OA
ENDBRANCH   6  17
BRANCH  10  21
ATOM     21  N15 MOL d         -21.322  -1.156 -28.352  0.00  0.00    -0.398 N 
ATOM     22  H7  MOL d         -22.220  -0.794 -28.702  0.00  0.00     0.156 HD
ATOM     23  H8  MOL d         -20.643  -1.569 -29.006  0.00  0.00     0.156 HD
ENDBRANCH  10  21
TORSDOF 2
ENDMDL
MODEL 3
REMARK VINA RESULT:      -7.2      1.378      3.246
REMARK  2 active torsions:
REMARK  status: ('A' for Active; 'I' for Inactive)
REMARK    1  A    between atoms: C6_6  and  S11_10 
REMARK    2  A    between atoms: C7_14  and  N15_15 
ROOT
ATOM      1  C1  MOL d         -22.433   2.073 -24.632  0.00  0.00    -0.059 A 
ATOM      2  C2  MOL d         -22.749   2.041 -25.989  0.00  0.00    -0.081 A 
ATOM      3  C3  MOL d         -22.280   0.995 -26.779  0.00  0.00    -0.070 A 
ATOM      4  C4  MOL d         -21.498  -0.026 -26.218  0.00  0.00     0.002 A 
ATOM      5  C5  MOL d         -21.177   0.004 -24.843  0.00  0.00     0.001 A 
ATOM      6  C6  MOL d         -21.656   1.063 -24.043  0.00  0.00     0.091 A 
ATOM      7  C9  MOL d         -19.940  -2.074 -25.115  0.00  0.00    -0.080 A 
ATOM      8  C10 MOL d         -20.395  -1.031 -24.308  0.00  0.00    -0.070 A 
ATOM      9  C8  MOL d         -20.256  -2.091 -26.474  0.00  0.00    -0.057 A 
ATOM     10  C7  MOL d         -21.033  -1.073 -27.031  0.00  0.00     0.036 A 
ATOM     11  H1  MOL d         -22.793   2.892 -24.020  0.00  0.00     0.086 H 
ATOM     12  H2  MOL d         -23.357   2.825 -26.427  0.00  0.00     0.083 H 
ATOM     13  H3  MOL d         -22.520   0.968 -27.835  0.00  0.00     0.084 H 
ATOM     14  H4  MOL d         -19.340  -2.869 -24.686  0.00  0.00     0.083 H 
ATOM     15  H5  MOL d         -20.141  -1.021 -23.254  0.00  0.00     0.084 H 
ATOM     16  H6  MOL d         -19.897  -2.900 -27.100  0.00  0.00     0.086 H 
ENDROOT
BRANCH   6  17
ATOM     17  S11 MOL d         -21.345   1.191 -22.460  0.00  0.00     0.138 S 
ATOM     18  O14 MOL d         -19.885   1.043 -22.254  0.00  0.00    -0.591 OA
ATOM     19  O12 MOL d         -22.107   0.135 -21.742  0.00  0.00    -0.591 OA
ATOM     20  O13 MOL d         -21.761   2.503 -21.899  0.00  0.00    -0.591 OA
ENDBRANCH   6  17
BRANCH  10  21
ATOM     21  N15 MOL d         -21.318  -1.129 -28.365  0.00  0.00    -0.398 N 
ATOM     22  H7  MOL d         -21.235  -2.021 -28.873  0.00  0.00     0.156 HD
ATOM     23  H8  MOL d         -21.616  -0.278 -28.864  0.00  0.00     0.156 HD
ENDBRANCH  10  21
TORSDOF 2
ENDMDL
MODEL 4
REMARK VINA RESULT:      -7.1      3.881      5.038
REMARK  2 active torsions:
REMARK  status: ('A' for Active; 'I' for Inactive)
REMARK    1  A    between atoms: C6_6  and  S11_10 
REMARK    2  A    between atoms: C7_14  and  N15_15 
ROOT
ATOM      1  C1  MOL d         -22.606   1.618 -27.064  0.00  0.00    -0.059 A 
ATOM      2  C2  MOL d         -22.950   2.339 -25.921  0.00  0.00    -0.081 A 
ATOM      3  C3  MOL d         -22.559   1.869 -24.670  0.00  0.00    -0.070 A 
ATOM      4  C4  MOL d         -21.819   0.683 -24.553  0.00  0.00     0.002 A 
ATOM      5  C5  MOL d         -21.469  -0.048 -25.710  0.00  0.00     0.001 A 
ATOM      6  C6  MOL d         -21.862   0.431 -26.977  0.00  0.00     0.091 A 
ATOM      7  C9  MOL d         -20.339  -1.680 -24.302  0.00  0.00    -0.080 A 
ATOM      8  C10 MOL d         -20.726  -1.230 -25.563  0.00  0.00    -0.070 A 
ATOM      9  C8  MOL d         -20.696  -0.955 -23.164  0.00  0.00    -0.057 A 
ATOM     10  C7  MOL d         -21.434   0.225 -23.282  0.00  0.00     0.036 A 
ATOM     11  H1  MOL d         -22.917   1.981 -28.037  0.00  0.00     0.086 H 
ATOM     12  H2  MOL d         -23.518   3.258 -26.006  0.00  0.00     0.083 H 
ATOM     13  H3  MOL d         -22.828   2.424 -23.779  0.00  0.00     0.084 H 
ATOM     14  H4  MOL d         -19.761  -2.593 -24.205  0.00  0.00     0.083 H 
ATOM     15  H5  MOL d         -20.450  -1.801 -26.443  0.00  0.00     0.084 H 
ATOM     16  H6  MOL d         -20.398  -1.309 -22.184  0.00  0.00     0.086 H 
ENDROOT
BRANCH   6  17
ATOM     17  S11 MOL d         -21.513  -0.331 -28.362  0.00  0.00     0.138 S 
ATOM     18  O14 MOL d         -20.041  -0.352 -28.529  0.00  0.00    -0.591 OA
ATOM     19  O12 MOL d         -22.178   0.391 -29.479  0.00  0.00    -0.591 OA
ATOM     20  O13 MOL d         -22.003  -1.734 -28.383  0.00  0.00    -0.591 OA
ENDBRANCH   6  17
BRANCH  10  21
ATOM     21  N15 MOL d         -21.764   0.903 -22.143  0.00  0.00    -0.398 N 
ATOM     22  H7  MOL d         -22.752   1.086 -21.921  0.00  0.00     0.156 HD
ATOM     23  H8  MOL d         -21.023   1.232 -21.508  0.00  0.00     0.156 HD
ENDBRANCH  10  21
TORSDOF 2
ENDMDL
MODEL 5
REMARK VINA RESULT:      -7.1      3.958      4.447
REMARK  2 active torsions:
REMARK  status: ('A' for Active; 'I' for Inactive)
REMARK    1  A    between atoms: C6_6  and  S11_10 
REMARK    2  A    between atoms: C7_14  and  N15_15 
ROOT
ATOM      1  C1  MOL d         -20.303  -1.650 -27.012  0.00  0.00    -0.059 A 
ATOM      2  C2  MOL d         -19.989  -2.383 -25.868  0.00  0.00    -0.081 A 
ATOM      3  C3  MOL d         -20.411  -1.925 -24.623  0.00  0.00    -0.070 A 
ATOM      4  C4  MOL d         -21.152  -0.738 -24.514  0.00  0.00     0.002 A 
ATOM      5  C5  MOL d         -21.471   0.004 -25.672  0.00  0.00     0.001 A 
ATOM      6  C6  MOL d         -21.046  -0.463 -26.933  0.00  0.00     0.091 A 
ATOM      7  C9  MOL d         -22.634   1.625 -24.278  0.00  0.00    -0.080 A 
ATOM      8  C10 MOL d         -22.215   1.186 -25.534  0.00  0.00    -0.070 A 
ATOM      9  C8  MOL d         -22.308   0.889 -23.139  0.00  0.00    -0.057 A 
ATOM     10  C7  MOL d         -21.569  -0.291 -23.249  0.00  0.00     0.036 A 
ATOM     11  H1  MOL d         -19.967  -2.005 -27.980  0.00  0.00     0.086 H 
ATOM     12  H2  MOL d         -19.421  -3.302 -25.947  0.00  0.00     0.083 H 
ATOM     13  H3  MOL d         -20.166  -2.489 -23.730  0.00  0.00     0.084 H 
ATOM     14  H4  MOL d         -23.212   2.538 -24.187  0.00  0.00     0.083 H 
ATOM     15  H5  MOL d         -22.468   1.766 -26.414  0.00  0.00     0.084 H 
ATOM     16  H6  MOL d         -22.630   1.234 -22.163  0.00  0.00     0.086 H 
ENDROOT
BRANCH   6  17
ATOM     17  S11 MOL d         -21.358   0.313 -28.319  0.00  0.00     0.138 S 
ATOM     18  O14 MOL d         -20.888  -0.527 -29.445  0.00  0.00    -0.591 OA
ATOM     19  O12 MOL d         -20.662   1.627 -28.292  0.00  0.00    -0.591 OA
ATOM     20  O13 MOL d         -22.808   0.578 -28.513  0.00  0.00    -0.591 OA
ENDBRANCH   6  17
BRANCH  10  21
ATOM     21  N15 MOL d         -21.270  -0.981 -22.108  0.00  0.00    -0.398 N 
ATOM     22  H7  MOL d         -20.652  -1.804 -22.151  0.00  0.00     0.156 HD
ATOM     23  H8  MOL d         -21.663  -0.678 -21.206  0.00  0.00     0.156 HD
ENDBRANCH  10  21
TORSDOF 2
ENDMDL
MODEL 6
REMARK VINA RESULT:      -6.6      0.774      2.922
REMARK  2 active torsions:
REMARK  status: ('A' for Active; 'I' for Inactive)
REMARK    1  A    between atoms: C6_6  and  S11_10 
REMARK    2  A    between atoms: C7_14  and  N15_15 
ROOT
ATOM      1  C1  MOL d         -22.635   1.199 -23.934  0.00  0.00    -0.059 A 
ATOM      2  C2  MOL d         -22.939   2.042 -25.003  0.00  0.00    -0.081 A 
ATOM      3  C3  MOL d         -22.507   1.709 -26.284  0.00  0.00    -0.070 A 
ATOM      4  C4  MOL d         -21.776   0.533 -26.506  0.00  0.00     0.002 A 
ATOM      5  C5  MOL d         -21.468  -0.323 -25.426  0.00  0.00     0.001 A 
ATOM      6  C6  MOL d         -21.909   0.014 -24.129  0.00  0.00     0.091 A 
ATOM      7  C9  MOL d         -20.320  -1.813 -26.970  0.00  0.00    -0.080 A 
ATOM      8  C10 MOL d         -20.737  -1.494 -25.678  0.00  0.00    -0.070 A 
ATOM      9  C8  MOL d         -20.623  -0.958 -28.030  0.00  0.00    -0.057 A 
ATOM     10  C7  MOL d         -21.349   0.214 -27.806  0.00  0.00     0.036 A 
ATOM     11  H1  MOL d         -22.965   1.464 -22.937  0.00  0.00     0.086 H 
ATOM     12  H2  MOL d         -23.507   2.950 -24.837  0.00  0.00     0.083 H 
ATOM     13  H3  MOL d         -22.738   2.364 -27.116  0.00  0.00     0.084 H 
ATOM     14  H4  MOL d         -19.760  -2.724 -27.150  0.00  0.00     0.083 H 
ATOM     15  H5  MOL d         -20.494  -2.160 -24.858  0.00  0.00     0.084 H 
ATOM     16  H6  MOL d         -20.293  -1.205 -29.032  0.00  0.00     0.086 H 
ENDROOT
BRANCH   6  17
ATOM     17  S11 MOL d         -21.608  -0.896 -22.825  0.00  0.00     0.138 S 
ATOM     18  O14 MOL d         -22.887  -1.142 -22.117  0.00  0.00    -0.591 OA
ATOM     19  O12 MOL d         -20.636  -0.176 -21.960  0.00  0.00    -0.591 OA
ATOM     20  O13 MOL d         -21.009  -2.212 -23.170  0.00  0.00    -0.591 OA
ENDBRANCH   6  17
BRANCH  10  21
ATOM     21  N15 MOL d         -21.623   1.023 -28.872  0.00  0.00    -0.398 N 
ATOM     22  H7  MOL d         -21.112   1.909 -28.990  0.00  0.00     0.156 HD
ATOM     23  H8  MOL d         -22.341   0.747 -29.557  0.00  0.00     0.156 HD
ENDBRANCH  10  21
TORSDOF 2
ENDMDL
MODEL 7
REMARK VINA RESULT:      -5.6      3.728      4.406
REMARK  2 active torsions:
REMARK  status: ('A' for Active; 'I' for Inactive)
REMARK    1  A    between atoms: C6_6  and  S11_10 
REMARK    2  A    between atoms: C7_14  and  N15_15 
ROOT
ATOM      1  C1  MOL d         -20.750  -0.680 -27.144  0.00  0.00    -0.059 A 
ATOM      2  C2  MOL d         -20.162  -1.753 -26.475  0.00  0.00    -0.081 A 
ATOM      3  C3  MOL d         -20.526  -2.025 -25.159  0.00  0.00    -0.070 A 
ATOM      4  C4  MOL d         -21.481  -1.231 -24.506  0.00  0.00     0.002 A 
ATOM      5  C5  MOL d         -22.079  -0.145 -25.182  0.00  0.00     0.001 A 
ATOM      6  C6  MOL d         -21.711   0.127 -26.517  0.00  0.00     0.091 A 
ATOM      7  C9  MOL d         -23.389   0.338 -23.189  0.00  0.00    -0.080 A 
ATOM      8  C10 MOL d         -23.033   0.630 -24.505  0.00  0.00    -0.070 A 
ATOM      9  C8  MOL d         -22.789  -0.734 -22.527  0.00  0.00    -0.057 A 
ATOM     10  C7  MOL d         -21.836  -1.521 -23.178  0.00  0.00     0.036 A 
ATOM     11  H1  MOL d         -20.459  -0.465 -28.166  0.00  0.00     0.086 H 
ATOM     12  H2  MOL d         -19.426  -2.371 -26.977  0.00  0.00     0.083 H 
ATOM     13  H3  MOL d         -20.068  -2.855 -24.635  0.00  0.00     0.084 H 
ATOM     14  H4  MOL d         -24.132   0.943 -22.681  0.00  0.00     0.083 H 
ATOM     15  H5  MOL d         -23.500   1.467 -25.012  0.00  0.00     0.084 H 
ATOM     16  H6  MOL d         -23.063  -0.956 -21.502  0.00  0.00     0.086 H 
ENDROOT
BRANCH   6  17
ATOM     17  S11 MOL d         -22.334   1.347 -27.378  0.00  0.00     0.138 S 
ATOM     18  O14 MOL d         -21.276   1.888 -28.263  0.00  0.00    -0.591 OA
ATOM     19  O12 MOL d         -22.838   2.382 -26.436  0.00  0.00    -0.591 OA
ATOM     20  O13 MOL d         -23.477   0.923 -28.229  0.00  0.00    -0.591 OA
ENDBRANCH   6  17
BRANCH  10  21
ATOM     21  N15 MOL d         -21.272  -2.559 -22.493  0.00  0.00    -0.398 N 
ATOM     22  H7  MOL d         -20.301  -2.839 -22.692  0.00  0.00     0.156 HD
ATOM     23  H8  MOL d         -21.818  -3.062 -21.779  0.00  0.00     0.156 HD
ENDBRANCH  10  21
TORSDOF 2
ENDMDL
MODEL 8
REMARK VINA RESULT:      -4.9      3.951      4.342
REMARK  2 active torsions:
REMARK  status: ('A' for Active; 'I' for Inactive)
REMARK    1  A    between atoms: C6_6  and  S11_10 
REMARK    2  A    between atoms: C7_14  and  N15_15 
ROOT
ATOM      1  C1  MOL d         -20.266  -1.737 -26.997  0.00  0.00    -0.059 A 
ATOM      2  C2  MOL d         -19.547  -1.899 -25.814  0.00  0.00    -0.081 A 
ATOM      3  C3  MOL d         -19.710  -0.980 -24.780  0.00  0.00    -0.070 A 
ATOM      4  C4  MOL d         -20.594   0.100 -24.921  0.00  0.00     0.002 A 
ATOM      5  C5  MOL d         -21.324   0.264 -26.118  0.00  0.00     0.001 A 
ATOM      6  C6  MOL d         -21.161  -0.669 -27.163  0.00  0.00     0.091 A 
ATOM      7  C9  MOL d         -22.358   2.259 -25.181  0.00  0.00    -0.080 A 
ATOM      8  C10 MOL d         -22.204   1.353 -26.230  0.00  0.00    -0.070 A 
ATOM      9  C8  MOL d         -21.627   2.092 -24.005  0.00  0.00    -0.057 A 
ATOM     10  C7  MOL d         -20.746   1.017 -23.867  0.00  0.00     0.036 A 
ATOM     11  H1  MOL d         -20.132  -2.450 -27.803  0.00  0.00     0.086 H 
ATOM     12  H2  MOL d         -18.865  -2.734 -25.699  0.00  0.00     0.083 H 
ATOM     13  H3  MOL d         -19.150  -1.099 -23.861  0.00  0.00     0.084 H 
ATOM     14  H4  MOL d         -23.045   3.092 -25.280  0.00  0.00     0.083 H 
ATOM     15  H5  MOL d         -22.771   1.491 -27.144  0.00  0.00     0.084 H 
ATOM     16  H6  MOL d         -21.745   2.800 -23.192  0.00  0.00     0.086 H 
ENDROOT
BRANCH   6  17
ATOM     17  S11 MOL d         -21.948  -0.571 -28.574  0.00  0.00     0.138 S 
ATOM     18  O14 MOL d         -21.493   0.648 -29.283  0.00  0.00    -0.591 OA
ATOM     19  O12 MOL d         -23.409  -0.527 -28.297  0.00  0.00    -0.591 OA
ATOM     20  O13 MOL d         -21.695  -1.741 -29.454  0.00  0.00    -0.591 OA
ENDBRANCH   6  17
BRANCH  10  21
ATOM     21  N15 MOL d         -20.049   0.892 -22.699  0.00  0.00    -0.398 N 
ATOM     22  H7  MOL d         -19.602  -0.004 -22.461  0.00  0.00     0.156 HD
ATOM     23  H8  MOL d         -19.972   1.693 -22.058  0.00  0.00     0.156 HD
ENDBRANCH  10  21
TORSDOF 2
ENDMDL
MODEL 9
REMARK VINA RESULT:      -4.5      2.303      3.073
REMARK  2 active torsions:
REMARK  status: ('A' for Active; 'I' for Inactive)
REMARK    1  A    between atoms: C6_6  and  S11_10 
REMARK    2  A    between atoms: C7_14  and  N15_15 
ROOT
ATOM      1  C1  MOL d         -22.467  -0.350 -23.245  0.00  0.00    -0.059 A 
ATOM      2  C2  MOL d         -23.216  -1.310 -23.925  0.00  0.00    -0.081 A 
ATOM      3  C3  MOL d         -23.112  -1.406 -25.311  0.00  0.00    -0.070 A 
ATOM      4  C4  MOL d         -22.257  -0.551 -26.022  0.00  0.00     0.002 A 
ATOM      5  C5  MOL d         -21.497   0.420 -25.335  0.00  0.00     0.001 A 
ATOM      6  C6  MOL d         -21.600   0.514 -23.931  0.00  0.00     0.091 A 
ATOM      7  C9  MOL d         -20.553   1.144 -27.458  0.00  0.00    -0.080 A 
ATOM      8  C10 MOL d         -20.648   1.261 -26.072  0.00  0.00    -0.070 A 
ATOM      9  C8  MOL d         -21.313   0.186 -28.129  0.00  0.00    -0.057 A 
ATOM     10  C7  MOL d         -22.166  -0.664 -27.420  0.00  0.00     0.036 A 
ATOM     11  H1  MOL d         -22.555  -0.272 -22.168  0.00  0.00     0.086 H 
ATOM     12  H2  MOL d         -23.875  -1.975 -23.380  0.00  0.00     0.083 H 
ATOM     13  H3  MOL d         -23.696  -2.148 -25.844  0.00  0.00     0.084 H 
ATOM     14  H4  MOL d         -19.889   1.797 -28.013  0.00  0.00     0.083 H 
ATOM     15  H5  MOL d         -20.058   2.010 -25.556  0.00  0.00     0.084 H 
ATOM     16  H6  MOL d         -21.242   0.100 -29.207  0.00  0.00     0.086 H 
ENDROOT
BRANCH   6  17
ATOM     17  S11 MOL d         -20.774   1.592 -23.050  0.00  0.00     0.138 S 
ATOM     18  O14 MOL d         -20.428   0.971 -21.750  0.00  0.00    -0.591 OA
ATOM     19  O12 MOL d         -21.621   2.801 -22.867  0.00  0.00    -0.591 OA
ATOM     20  O13 MOL d         -19.514   2.025 -23.708  0.00  0.00    -0.591 OA
ENDBRANCH   6  17
BRANCH  10  21
ATOM     21  N15 MOL d         -22.893  -1.586 -28.116  0.00  0.00    -0.398 N 
ATOM     22  H7  MOL d         -23.452  -1.293 -28.929  0.00  0.00     0.156 HD
ATOM     23  H8  MOL d         -22.882  -2.574 -27.827  0.00  0.00     0.156 HD
ENDBRANCH  10  21
TORSDOF 2
ENDMDL
MODEL 10
REMARK VINA RESULT:      -4.5      3.827      5.129
REMARK  2 active torsions:
REMARK  status: ('A' for Active; 'I' for Inactive)
REMARK    1  A    between atoms: C6_6  and  S11_10 
REMARK    2  A    between atoms: C7_14  and  N15_15 
ROOT
ATOM      1  C1  MOL d         -22.109   2.443 -24.983  0.00  0.00    -0.059 A 
ATOM      2  C2  MOL d         -22.041   2.377 -23.592  0.00  0.00    -0.081 A 
ATOM      3  C3  MOL d         -21.646   1.190 -22.979  0.00  0.00    -0.070 A 
ATOM      4  C4  MOL d         -21.312   0.067 -23.751  0.00  0.00     0.002 A 
ATOM      5  C5  MOL d         -21.379   0.133 -25.160  0.00  0.00     0.001 A 
ATOM      6  C6  MOL d         -21.775   1.336 -25.779  0.00  0.00     0.091 A 
ATOM      7  C9  MOL d         -20.637  -2.182 -25.274  0.00  0.00    -0.080 A 
ATOM      8  C10 MOL d         -21.036  -1.006 -25.906  0.00  0.00    -0.070 A 
ATOM      9  C8  MOL d         -20.581  -2.240 -23.881  0.00  0.00    -0.057 A 
ATOM     10  C7  MOL d         -20.916  -1.121 -23.114  0.00  0.00     0.036 A 
ATOM     11  H1  MOL d         -22.424   3.365 -25.458  0.00  0.00     0.086 H 
ATOM     12  H2  MOL d         -22.295   3.243 -22.992  0.00  0.00     0.083 H 
ATOM     13  H3  MOL d         -21.597   1.134 -21.898  0.00  0.00     0.084 H 
ATOM     14  H4  MOL d         -20.371  -3.052 -25.864  0.00  0.00     0.083 H 
ATOM     15  H5  MOL d         -21.083  -0.969 -26.989  0.00  0.00     0.084 H 
ATOM     16  H6  MOL d         -20.275  -3.157 -23.391  0.00  0.00     0.086 H 
ENDROOT
BRANCH   6  17
ATOM     17  S11 MOL d         -21.886   1.515 -27.384  0.00  0.00     0.138 S 
ATOM     18  O14 MOL d         -21.499   2.902 -27.731  0.00  0.00    -0.591 OA
ATOM     19  O12 MOL d         -23.284   1.219 -27.798  0.00  0.00    -0.591 OA
ATOM     20  O13 MOL d         -20.994   0.585 -28.127  0.00  0.00    -0.591 OA
ENDBRANCH   6  17
BRANCH  10  21
ATOM     21  N15 MOL d         -20.849  -1.220 -21.754  0.00  0.00    -0.398 N 
ATOM     22  H7  MOL d         -21.697  -1.433 -21.211  0.00  0.00     0.156 HD
ATOM     23  H8  MOL d         -19.950  -1.081 -21.272  0.00  0.00     0.156 HD
ENDBRANCH  10  21
TORSDOF 2
ENDMDL
