MODEL 1
REMARK VINA RESULT:      -8.7      0.000      0.000
REMARK  8 active torsions:
REMARK  status: ('A' for Active; 'I' for Inactive)
REMARK    1  A    between atoms: CAU_6  and  OAS_7 
REMARK    2  A    between atoms: OAS_7  and  CAV_8 
REMARK    3  A    between atoms: CAT_13  and  CAQ_14 
REMARK    4  A    between atoms: CAQ_14  and  CAP_15 
REMARK    5  A    between atoms: CAP_15  and  CAR_16 
REMARK    6  A    between atoms: CAR_16  and  CAW_17 
REMARK    7  A    between atoms: CAW_17  and  PAX_18 
REMARK    8  A    between atoms: CAW_17  and  SAY_22 
ROOT
ATOM      1  CAV B65 d          15.130  52.213  39.623  0.00  0.00     0.076 A 
ATOM      2  CAO B65 d          15.536  51.961  38.315  0.00  0.00    -0.044 A 
ATOM      3  CAN B65 d          15.832  51.650  40.682  0.00  0.00    -0.050 A 
ATOM      4  CAJ B65 d          16.927  50.835  40.424  0.00  0.00    -0.080 A 
ATOM      5  CAK B65 d          17.324  50.576  39.114  0.00  0.00    -0.077 A 
ATOM      6  CAT B65 d          16.623  51.143  38.055  0.00  0.00    -0.056 A 
ATOM      7  H6  B65 d          14.996  52.411  37.490  0.00  0.00     0.088 H 
ATOM      8  H7  B65 d          15.527  51.846  41.703  0.00  0.00     0.087 H 
ATOM      9  H8  B65 d          17.477  50.397  41.248  0.00  0.00     0.083 H 
ATOM     10  H9  B65 d          18.177  49.936  38.921  0.00  0.00     0.084 H 
ENDROOT
BRANCH   6  11
ATOM     11  CAQ B65 d          16.996  50.838  36.600  0.00  0.00    -0.041 C 
ATOM     12  H10 B65 d          16.132  51.060  35.956  0.00  0.00     0.040 H 
ATOM     13  H11 B65 d          17.252  49.772  36.513  0.00  0.00     0.040 H 
BRANCH  11  14
ATOM     14  CAP B65 d          18.190  51.674  36.134  0.00  0.00    -0.059 C 
ATOM     15  H12 B65 d          18.512  51.332  35.139  0.00  0.00     0.033 H 
ATOM     16  H13 B65 d          19.019  51.559  36.848  0.00  0.00     0.033 H 
BRANCH  14  17
ATOM     17  CAR B65 d          17.781  53.145  36.059  0.00  0.00    -0.034 C 
ATOM     18  H14 B65 d          16.985  53.327  36.797  0.00  0.00     0.036 H 
ATOM     19  H15 B65 d          17.399  53.353  35.049  0.00  0.00     0.036 H 
BRANCH  17  20
ATOM     20  CAW B65 d          18.944  54.098  36.350  0.00  0.00     0.169 C 
ATOM     21  H16 B65 d          19.759  53.885  35.643  0.00  0.00     0.090 H 
BRANCH  20  22
ATOM     22  PAX B65 d          19.578  53.867  38.060  0.00  0.00     0.281 P 
ATOM     23  OAB B65 d          20.452  52.515  38.063  0.00  0.00    -0.639 OA
ATOM     24  OAC B65 d          20.599  55.086  38.320  0.00  0.00    -0.639 OA
ATOM     25  OAA B65 d          18.489  53.826  39.065  0.00  0.00    -0.639 OA
ENDBRANCH  20  22
BRANCH  20  26
ATOM     26  SAY B65 d          18.387  55.823  36.111  0.00  0.00     0.119 S 
ATOM     27  OAF B65 d          19.523  56.660  35.869  0.00  0.00    -0.594 OA
ATOM     28  OAE B65 d          17.679  56.302  37.342  0.00  0.00    -0.594 OA
ATOM     29  OAD B65 d          17.432  55.886  34.952  0.00  0.00    -0.594 OA
ENDBRANCH  20  26
ENDBRANCH  17  20
ENDBRANCH  14  17
ENDBRANCH  11  14
ENDBRANCH   6  11
BRANCH   1  30
ATOM     30  OAS B65 d          13.977  52.911  39.794  0.00  0.00    -0.311 OA
BRANCH  30  31
ATOM     31  CAU B65 d          14.067  54.056  40.530  0.00  0.00     0.076 A 
ATOM     32  CAL B65 d          14.980  55.037  40.181  0.00  0.00    -0.050 A 
ATOM     33  CAH B65 d          14.939  56.275  40.827  0.00  0.00    -0.080 A 
ATOM     34  H1  B65 d          15.721  54.846  39.413  0.00  0.00     0.087 H 
ATOM     35  CAG B65 d          13.991  56.521  41.814  0.00  0.00    -0.083 A 
ATOM     36  H2  B65 d          15.649  57.048  40.557  0.00  0.00     0.083 H 
ATOM     37  CAI B65 d          13.081  55.534  42.163  0.00  0.00    -0.080 A 
ATOM     38  H3  B65 d          13.962  57.484  42.310  0.00  0.00     0.083 H 
ATOM     39  CAM B65 d          13.122  54.296  41.522  0.00  0.00    -0.050 A 
ATOM     40  H4  B65 d          12.341  55.724  42.931  0.00  0.00     0.083 H 
ATOM     41  H5  B65 d          12.416  53.520  41.797  0.00  0.00     0.087 H 
ENDBRANCH  30  31
ENDBRANCH   1  30
TORSDOF 8
ENDMDL
MODEL 2
REMARK VINA RESULT:      -8.6      1.771      2.941
REMARK  8 active torsions:
REMARK  status: ('A' for Active; 'I' for Inactive)
REMARK    1  A    between atoms: CAU_6  and  OAS_7 
REMARK    2  A    between atoms: OAS_7  and  CAV_8 
REMARK    3  A    between atoms: CAT_13  and  CAQ_14 
REMARK    4  A    between atoms: CAQ_14  and  CAP_15 
REMARK    5  A    between atoms: CAP_15  and  CAR_16 
REMARK    6  A    between atoms: CAR_16  and  CAW_17 
REMARK    7  A    between atoms: CAW_17  and  PAX_18 
REMARK    8  A    between atoms: CAW_17  and  SAY_22 
ROOT
ATOM      1  CAV B65 d          15.349  52.347  39.393  0.00  0.00     0.076 A 
ATOM      2  CAO B65 d          15.975  52.192  38.158  0.00  0.00    -0.044 A 
ATOM      3  CAN B65 d          15.819  51.643  40.495  0.00  0.00    -0.050 A 
ATOM      4  CAJ B65 d          16.903  50.786  40.352  0.00  0.00    -0.080 A 
ATOM      5  CAK B65 d          17.520  50.625  39.113  0.00  0.00    -0.077 A 
ATOM      6  CAT B65 d          17.051  51.332  38.011  0.00  0.00    -0.056 A 
ATOM      7  H6  B65 d          15.616  52.751  37.301  0.00  0.00     0.088 H 
ATOM      8  H7  B65 d          15.342  51.762  41.461  0.00  0.00     0.087 H 
ATOM      9  H8  B65 d          17.272  50.238  41.211  0.00  0.00     0.083 H 
ATOM     10  H9  B65 d          18.362  49.951  39.009  0.00  0.00     0.084 H 
ENDROOT
BRANCH   6  11
ATOM     11  CAQ B65 d          17.668  51.141  36.621  0.00  0.00    -0.041 C 
ATOM     12  H10 B65 d          16.919  50.685  35.958  0.00  0.00     0.040 H 
ATOM     13  H11 B65 d          18.537  50.472  36.707  0.00  0.00     0.040 H 
BRANCH  11  14
ATOM     14  CAP B65 d          18.123  52.471  36.015  0.00  0.00    -0.059 C 
ATOM     15  H12 B65 d          17.798  53.299  36.663  0.00  0.00     0.033 H 
ATOM     16  H13 B65 d          17.678  52.590  35.016  0.00  0.00     0.033 H 
BRANCH  14  17
ATOM     17  CAR B65 d          19.647  52.481  35.900  0.00  0.00    -0.034 C 
ATOM     18  H14 B65 d          19.969  53.479  35.565  0.00  0.00     0.036 H 
ATOM     19  H15 B65 d          19.948  51.730  35.155  0.00  0.00     0.036 H 
BRANCH  17  20
ATOM     20  CAW B65 d          20.342  52.161  37.226  0.00  0.00     0.169 C 
ATOM     21  H16 B65 d          19.731  51.432  37.778  0.00  0.00     0.090 H 
BRANCH  20  22
ATOM     22  PAX B65 d          20.527  53.672  38.258  0.00  0.00     0.281 P 
ATOM     23  OAB B65 d          20.086  54.924  37.348  0.00  0.00    -0.639 OA
ATOM     24  OAC B65 d          19.434  53.538  39.434  0.00  0.00    -0.639 OA
ATOM     25  OAA B65 d          21.902  53.829  38.788  0.00  0.00    -0.639 OA
ENDBRANCH  20  22
BRANCH  20  26
ATOM     26  SAY B65 d          21.982  51.424  36.887  0.00  0.00     0.119 S 
ATOM     27  OAF B65 d          22.840  52.417  36.317  0.00  0.00    -0.594 OA
ATOM     28  OAE B65 d          21.837  50.287  35.922  0.00  0.00    -0.594 OA
ATOM     29  OAD B65 d          22.568  50.897  38.167  0.00  0.00    -0.594 OA
ENDBRANCH  20  26
ENDBRANCH  17  20
ENDBRANCH  14  17
ENDBRANCH  11  14
ENDBRANCH   6  11
BRANCH   1  30
ATOM     30  OAS B65 d          14.219  53.100  39.428  0.00  0.00    -0.311 OA
BRANCH  30  31
ATOM     31  CAU B65 d          14.191  54.106  40.349  0.00  0.00     0.076 A 
ATOM     32  CAL B65 d          15.072  55.169  40.243  0.00  0.00    -0.050 A 
ATOM     33  CAH B65 d          14.915  56.277  41.080  0.00  0.00    -0.080 A 
ATOM     34  H1  B65 d          15.876  55.143  39.517  0.00  0.00     0.087 H 
ATOM     35  CAG B65 d          13.885  56.312  42.013  0.00  0.00    -0.083 A 
ATOM     36  H2  B65 d          15.600  57.114  41.001  0.00  0.00     0.083 H 
ATOM     37  CAI B65 d          13.008  55.242  42.118  0.00  0.00    -0.080 A 
ATOM     38  H3  B65 d          13.767  57.175  42.658  0.00  0.00     0.083 H 
ATOM     39  CAM B65 d          13.164  54.134  41.286  0.00  0.00    -0.050 A 
ATOM     40  H4  B65 d          12.204  55.268  42.844  0.00  0.00     0.083 H 
ATOM     41  H5  B65 d          12.484  53.294  41.370  0.00  0.00     0.087 H 
ENDBRANCH  30  31
ENDBRANCH   1  30
TORSDOF 8
ENDMDL
MODEL 3
REMARK VINA RESULT:      -8.5      2.891      4.195
REMARK  8 active torsions:
REMARK  status: ('A' for Active; 'I' for Inactive)
REMARK    1  A    between atoms: CAU_6  and  OAS_7 
REMARK    2  A    between atoms: OAS_7  and  CAV_8 
REMARK    3  A    between atoms: CAT_13  and  CAQ_14 
REMARK    4  A    between atoms: CAQ_14  and  CAP_15 
REMARK    5  A    between atoms: CAP_15  and  CAR_16 
REMARK    6  A    between atoms: CAR_16  and  CAW_17 
REMARK    7  A    between atoms: CAW_17  and  PAX_18 
REMARK    8  A    between atoms: CAW_17  and  SAY_22 
ROOT
ATOM      1  CAV B65 d          15.178  56.179  38.683  0.00  0.00     0.076 A 
ATOM      2  CAO B65 d          16.360  56.059  37.954  0.00  0.00    -0.044 A 
ATOM      3  CAN B65 d          13.993  56.487  38.026  0.00  0.00    -0.050 A 
ATOM      4  CAJ B65 d          14.000  56.679  36.650  0.00  0.00    -0.080 A 
ATOM      5  CAK B65 d          15.184  56.569  35.926  0.00  0.00    -0.077 A 
ATOM      6  CAT B65 d          16.370  56.259  36.583  0.00  0.00    -0.056 A 
ATOM      7  H6  B65 d          17.281  55.807  38.465  0.00  0.00     0.088 H 
ATOM      8  H7  B65 d          13.068  56.576  38.585  0.00  0.00     0.087 H 
ATOM      9  H8  B65 d          13.075  56.917  36.137  0.00  0.00     0.083 H 
ATOM     10  H9  B65 d          15.182  56.726  34.853  0.00  0.00     0.084 H 
ENDROOT
BRANCH   6  11
ATOM     11  CAQ B65 d          17.702  56.183  35.828  0.00  0.00    -0.041 C 
ATOM     12  H10 B65 d          17.710  56.950  35.041  0.00  0.00     0.040 H 
ATOM     13  H11 B65 d          17.795  55.187  35.370  0.00  0.00     0.040 H 
BRANCH  11  14
ATOM     14  CAP B65 d          18.894  56.414  36.760  0.00  0.00    -0.059 C 
ATOM     15  H12 B65 d          18.554  56.924  37.673  0.00  0.00     0.033 H 
ATOM     16  H13 B65 d          19.643  57.037  36.249  0.00  0.00     0.033 H 
BRANCH  14  17
ATOM     17  CAR B65 d          19.518  55.068  37.129  0.00  0.00    -0.034 C 
ATOM     18  H14 B65 d          20.613  55.161  37.078  0.00  0.00     0.036 H 
ATOM     19  H15 B65 d          19.180  54.313  36.405  0.00  0.00     0.036 H 
BRANCH  17  20
ATOM     20  CAW B65 d          19.131  54.604  38.537  0.00  0.00     0.169 C 
ATOM     21  H16 B65 d          18.319  55.246  38.909  0.00  0.00     0.090 H 
BRANCH  20  22
ATOM     22  PAX B65 d          20.555  54.733  39.691  0.00  0.00     0.281 P 
ATOM     23  OAB B65 d          20.085  54.106  41.097  0.00  0.00    -0.639 OA
ATOM     24  OAC B65 d          21.692  53.755  39.099  0.00  0.00    -0.639 OA
ATOM     25  OAA B65 d          21.039  56.126  39.839  0.00  0.00    -0.639 OA
ENDBRANCH  20  22
BRANCH  20  26
ATOM     26  SAY B65 d          18.534  52.877  38.461  0.00  0.00     0.119 S 
ATOM     27  OAF B65 d          17.443  52.791  37.539  0.00  0.00    -0.594 OA
ATOM     28  OAE B65 d          18.066  52.443  39.817  0.00  0.00    -0.594 OA
ATOM     29  OAD B65 d          19.658  51.977  38.030  0.00  0.00    -0.594 OA
ENDBRANCH  20  26
ENDBRANCH  17  20
ENDBRANCH  14  17
ENDBRANCH  11  14
ENDBRANCH   6  11
BRANCH   1  30
ATOM     30  OAS B65 d          15.272  56.106  40.036  0.00  0.00    -0.311 OA
BRANCH  30  31
ATOM     31  CAU B65 d          14.415  55.243  40.655  0.00  0.00     0.076 A 
ATOM     32  CAL B65 d          13.455  55.724  41.529  0.00  0.00    -0.050 A 
ATOM     33  CAH B65 d          12.472  54.857  42.014  0.00  0.00    -0.080 A 
ATOM     34  H1  B65 d          13.465  56.764  41.833  0.00  0.00     0.087 H 
ATOM     35  CAG B65 d          12.460  53.522  41.626  0.00  0.00    -0.083 A 
ATOM     36  H2  B65 d          11.716  55.228  42.697  0.00  0.00     0.083 H 
ATOM     37  CAI B65 d          13.427  53.044  40.754  0.00  0.00    -0.080 A 
ATOM     38  H3  B65 d          11.694  52.855  42.005  0.00  0.00     0.083 H 
ATOM     39  CAM B65 d          14.410  53.907  40.271  0.00  0.00    -0.050 A 
ATOM     40  H4  B65 d          13.418  52.004  40.450  0.00  0.00     0.083 H 
ATOM     41  H5  B65 d          15.172  53.535  39.594  0.00  0.00     0.087 H 
ENDBRANCH  30  31
ENDBRANCH   1  30
TORSDOF 8
ENDMDL
MODEL 4
REMARK VINA RESULT:      -8.4      1.043      2.373
REMARK  8 active torsions:
REMARK  status: ('A' for Active; 'I' for Inactive)
REMARK    1  A    between atoms: CAU_6  and  OAS_7 
REMARK    2  A    between atoms: OAS_7  and  CAV_8 
REMARK    3  A    between atoms: CAT_13  and  CAQ_14 
REMARK    4  A    between atoms: CAQ_14  and  CAP_15 
REMARK    5  A    between atoms: CAP_15  and  CAR_16 
REMARK    6  A    between atoms: CAR_16  and  CAW_17 
REMARK    7  A    between atoms: CAW_17  and  PAX_18 
REMARK    8  A    between atoms: CAW_17  and  SAY_22 
ROOT
ATOM      1  CAV B65 d          15.164  52.315  39.607  0.00  0.00     0.076 A 
ATOM      2  CAO B65 d          15.676  52.275  38.311  0.00  0.00    -0.044 A 
ATOM      3  CAN B65 d          15.788  51.591  40.615  0.00  0.00    -0.050 A 
ATOM      4  CAJ B65 d          16.911  50.829  40.320  0.00  0.00    -0.080 A 
ATOM      5  CAK B65 d          17.414  50.782  39.021  0.00  0.00    -0.077 A 
ATOM      6  CAT B65 d          16.791  51.509  38.013  0.00  0.00    -0.056 A 
ATOM      7  H6  B65 d          15.196  52.850  37.528  0.00  0.00     0.088 H 
ATOM      8  H7  B65 d          15.401  51.621  41.627  0.00  0.00     0.087 H 
ATOM      9  H8  B65 d          17.400  50.265  41.106  0.00  0.00     0.083 H 
ATOM     10  H9  B65 d          18.288  50.181  38.798  0.00  0.00     0.084 H 
ENDROOT
BRANCH   6  11
ATOM     11  CAQ B65 d          17.282  51.441  36.563  0.00  0.00    -0.041 C 
ATOM     12  H10 B65 d          16.887  52.307  36.011  0.00  0.00     0.040 H 
ATOM     13  H11 B65 d          16.910  50.513  36.104  0.00  0.00     0.040 H 
BRANCH  11  14
ATOM     14  CAP B65 d          18.811  51.456  36.481  0.00  0.00    -0.059 C 
ATOM     15  H12 B65 d          19.141  50.801  35.661  0.00  0.00     0.033 H 
ATOM     16  H13 B65 d          19.232  51.095  37.431  0.00  0.00     0.033 H 
BRANCH  14  17
ATOM     17  CAR B65 d          19.291  52.883  36.219  0.00  0.00    -0.034 C 
ATOM     18  H14 B65 d          18.977  53.180  35.206  0.00  0.00     0.036 H 
ATOM     19  H15 B65 d          20.388  52.902  36.283  0.00  0.00     0.036 H 
BRANCH  17  20
ATOM     20  CAW B65 d          18.724  53.891  37.223  0.00  0.00     0.169 C 
ATOM     21  H16 B65 d          17.796  53.481  37.648  0.00  0.00     0.090 H 
BRANCH  20  22
ATOM     22  PAX B65 d          18.336  55.492  36.406  0.00  0.00     0.281 P 
ATOM     23  OAB B65 d          17.488  55.155  35.080  0.00  0.00    -0.639 OA
ATOM     24  OAC B65 d          17.346  56.271  37.411  0.00  0.00    -0.639 OA
ATOM     25  OAA B65 d          19.554  56.279  36.100  0.00  0.00    -0.639 OA
ENDBRANCH  20  22
BRANCH  20  26
ATOM     26  SAY B65 d          19.933  54.147  38.571  0.00  0.00     0.119 S 
ATOM     27  OAF B65 d          19.391  53.646  39.797  0.00  0.00    -0.594 OA
ATOM     28  OAE B65 d          20.220  55.610  38.723  0.00  0.00    -0.594 OA
ATOM     29  OAD B65 d          21.215  53.438  38.235  0.00  0.00    -0.594 OA
ENDBRANCH  20  26
ENDBRANCH  17  20
ENDBRANCH  14  17
ENDBRANCH  11  14
ENDBRANCH   6  11
BRANCH   1  30
ATOM     30  OAS B65 d          13.992  52.975  39.793  0.00  0.00    -0.311 OA
BRANCH  30  31
ATOM     31  CAU B65 d          14.041  54.082  40.589  0.00  0.00     0.076 A 
ATOM     32  CAL B65 d          14.966  55.080  40.335  0.00  0.00    -0.050 A 
ATOM     33  CAH B65 d          14.889  56.284  41.040  0.00  0.00    -0.080 A 
ATOM     34  H1  B65 d          15.744  54.929  39.595  0.00  0.00     0.087 H 
ATOM     35  CAG B65 d          13.892  56.478  41.990  0.00  0.00    -0.083 A 
ATOM     36  H2  B65 d          15.608  57.071  40.844  0.00  0.00     0.083 H 
ATOM     37  CAI B65 d          12.971  55.473  42.244  0.00  0.00    -0.080 A 
ATOM     38  H3  B65 d          13.836  57.415  42.532  0.00  0.00     0.083 H 
ATOM     39  CAM B65 d          13.048  54.270  41.544  0.00  0.00    -0.050 A 
ATOM     40  H4  B65 d          12.193  55.623  42.984  0.00  0.00     0.083 H 
ATOM     41  H5  B65 d          12.333  53.480  41.745  0.00  0.00     0.087 H 
ENDBRANCH  30  31
ENDBRANCH   1  30
TORSDOF 8
ENDMDL
MODEL 5
REMARK VINA RESULT:      -8.3      2.602      4.207
REMARK  8 active torsions:
REMARK  status: ('A' for Active; 'I' for Inactive)
REMARK    1  A    between atoms: CAU_6  and  OAS_7 
REMARK    2  A    between atoms: OAS_7  and  CAV_8 
REMARK    3  A    between atoms: CAT_13  and  CAQ_14 
REMARK    4  A    between atoms: CAQ_14  and  CAP_15 
REMARK    5  A    between atoms: CAP_15  and  CAR_16 
REMARK    6  A    between atoms: CAR_16  and  CAW_17 
REMARK    7  A    between atoms: CAW_17  and  PAX_18 
REMARK    8  A    between atoms: CAW_17  and  SAY_22 
ROOT
ATOM      1  CAV B65 d          15.040  56.547  38.560  0.00  0.00     0.076 A 
ATOM      2  CAO B65 d          16.138  56.529  37.702  0.00  0.00    -0.044 A 
ATOM      3  CAN B65 d          13.757  56.617  38.032  0.00  0.00    -0.050 A 
ATOM      4  CAJ B65 d          13.582  56.678  36.655  0.00  0.00    -0.080 A 
ATOM      5  CAK B65 d          14.683  56.671  35.800  0.00  0.00    -0.077 A 
ATOM      6  CAT B65 d          15.967  56.598  36.330  0.00  0.00    -0.056 A 
ATOM      7  H6  B65 d          17.138  56.461  38.114  0.00  0.00     0.088 H 
ATOM      8  H7  B65 d          12.896  56.625  38.691  0.00  0.00     0.087 H 
ATOM      9  H8  B65 d          12.582  56.731  36.241  0.00  0.00     0.083 H 
ATOM     10  H9  B65 d          14.539  56.723  34.728  0.00  0.00     0.084 H 
ENDROOT
BRANCH   6  11
ATOM     11  CAQ B65 d          17.204  56.643  35.425  0.00  0.00    -0.041 C 
ATOM     12  H10 B65 d          17.591  57.672  35.402  0.00  0.00     0.040 H 
ATOM     13  H11 B65 d          16.913  56.338  34.409  0.00  0.00     0.040 H 
BRANCH  11  14
ATOM     14  CAP B65 d          18.307  55.708  35.927  0.00  0.00    -0.059 C 
ATOM     15  H12 B65 d          18.566  55.970  36.964  0.00  0.00     0.033 H 
ATOM     16  H13 B65 d          19.197  55.815  35.289  0.00  0.00     0.033 H 
BRANCH  14  17
ATOM     17  CAR B65 d          17.811  54.264  35.874  0.00  0.00    -0.034 C 
ATOM     18  H14 B65 d          18.341  53.739  35.064  0.00  0.00     0.036 H 
ATOM     19  H15 B65 d          16.732  54.269  35.663  0.00  0.00     0.036 H 
BRANCH  17  20
ATOM     20  CAW B65 d          18.050  53.508  37.184  0.00  0.00     0.169 C 
ATOM     21  H16 B65 d          18.185  54.239  37.994  0.00  0.00     0.090 H 
BRANCH  20  22
ATOM     22  PAX B65 d          19.561  52.465  37.081  0.00  0.00     0.281 P 
ATOM     23  OAB B65 d          19.778  52.097  35.529  0.00  0.00    -0.639 OA
ATOM     24  OAC B65 d          20.786  53.419  37.513  0.00  0.00    -0.639 OA
ATOM     25  OAA B65 d          19.470  51.254  37.931  0.00  0.00    -0.639 OA
ENDBRANCH  20  22
BRANCH  20  26
ATOM     26  SAY B65 d          16.592  52.470  37.559  0.00  0.00     0.119 S 
ATOM     27  OAF B65 d          15.401  53.172  37.187  0.00  0.00    -0.594 OA
ATOM     28  OAE B65 d          16.547  52.169  39.026  0.00  0.00    -0.594 OA
ATOM     29  OAD B65 d          16.693  51.173  36.804  0.00  0.00    -0.594 OA
ENDBRANCH  20  26
ENDBRANCH  17  20
ENDBRANCH  14  17
ENDBRANCH  11  14
ENDBRANCH   6  11
BRANCH   1  30
ATOM     30  OAS B65 d          15.291  56.616  39.893  0.00  0.00    -0.311 OA
BRANCH  30  31
ATOM     31  CAU B65 d          14.466  55.892  40.702  0.00  0.00     0.076 A 
ATOM     32  CAL B65 d          13.766  56.517  41.720  0.00  0.00    -0.050 A 
ATOM     33  CAH B65 d          12.791  55.804  42.422  0.00  0.00    -0.080 A 
ATOM     34  H1  B65 d          13.973  57.552  41.970  0.00  0.00     0.087 H 
ATOM     35  CAG B65 d          12.527  54.477  42.104  0.00  0.00    -0.083 A 
ATOM     36  H2  B65 d          12.238  56.289  43.219  0.00  0.00     0.083 H 
ATOM     37  CAI B65 d          13.233  53.854  41.087  0.00  0.00    -0.080 A 
ATOM     38  H3  B65 d          11.768  53.929  42.652  0.00  0.00     0.083 H 
ATOM     39  CAM B65 d          14.209  54.562  40.386  0.00  0.00    -0.050 A 
ATOM     40  H4  B65 d          13.028  52.819  40.837  0.00  0.00     0.083 H 
ATOM     41  H5  B65 d          14.767  54.075  39.594  0.00  0.00     0.087 H 
ENDBRANCH  30  31
ENDBRANCH   1  30
TORSDOF 8
ENDMDL
MODEL 6
REMARK VINA RESULT:      -8.3      2.823      4.179
REMARK  8 active torsions:
REMARK  status: ('A' for Active; 'I' for Inactive)
REMARK    1  A    between atoms: CAU_6  and  OAS_7 
REMARK    2  A    between atoms: OAS_7  and  CAV_8 
REMARK    3  A    between atoms: CAT_13  and  CAQ_14 
REMARK    4  A    between atoms: CAQ_14  and  CAP_15 
REMARK    5  A    between atoms: CAP_15  and  CAR_16 
REMARK    6  A    between atoms: CAR_16  and  CAW_17 
REMARK    7  A    between atoms: CAW_17  and  PAX_18 
REMARK    8  A    between atoms: CAW_17  and  SAY_22 
ROOT
ATOM      1  CAV B65 d          15.323  56.002  39.088  0.00  0.00     0.076 A 
ATOM      2  CAO B65 d          16.442  55.510  38.419  0.00  0.00    -0.044 A 
ATOM      3  CAN B65 d          14.291  56.585  38.363  0.00  0.00    -0.050 A 
ATOM      4  CAJ B65 d          14.389  56.679  36.981  0.00  0.00    -0.080 A 
ATOM      5  CAK B65 d          15.514  56.196  36.316  0.00  0.00    -0.077 A 
ATOM      6  CAT B65 d          16.546  55.609  37.041  0.00  0.00    -0.056 A 
ATOM      7  H6  B65 d          17.241  55.043  38.983  0.00  0.00     0.088 H 
ATOM      8  H7  B65 d          13.414  56.965  38.874  0.00  0.00     0.087 H 
ATOM      9  H8  B65 d          13.584  57.132  36.414  0.00  0.00     0.083 H 
ATOM     10  H9  B65 d          15.585  56.277  35.238  0.00  0.00     0.084 H 
ENDROOT
BRANCH   6  11
ATOM     11  CAQ B65 d          17.822  55.116  36.352  0.00  0.00    -0.041 C 
ATOM     12  H10 B65 d          17.962  55.677  35.416  0.00  0.00     0.040 H 
ATOM     13  H11 B65 d          17.713  54.045  36.124  0.00  0.00     0.040 H 
BRANCH  11  14
ATOM     14  CAP B65 d          19.056  55.310  37.237  0.00  0.00    -0.059 C 
ATOM     15  H12 B65 d          18.840  56.066  38.006  0.00  0.00     0.033 H 
ATOM     16  H13 B65 d          19.902  55.648  36.619  0.00  0.00     0.033 H 
BRANCH  14  17
ATOM     17  CAR B65 d          19.412  53.985  37.909  0.00  0.00    -0.034 C 
ATOM     18  H14 B65 d          19.109  54.033  38.966  0.00  0.00     0.036 H 
ATOM     19  H15 B65 d          20.500  53.840  37.847  0.00  0.00     0.036 H 
BRANCH  17  20
ATOM     20  CAW B65 d          18.720  52.785  37.255  0.00  0.00     0.169 C 
ATOM     21  H16 B65 d          18.012  53.156  36.500  0.00  0.00     0.090 H 
BRANCH  20  22
ATOM     22  PAX B65 d          17.789  51.800  38.498  0.00  0.00     0.281 P 
ATOM     23  OAB B65 d          18.034  52.491  39.930  0.00  0.00    -0.639 OA
ATOM     24  OAC B65 d          16.231  52.000  38.141  0.00  0.00    -0.639 OA
ATOM     25  OAA B65 d          18.184  50.372  38.496  0.00  0.00    -0.639 OA
ENDBRANCH  20  22
BRANCH  20  26
ATOM     26  SAY B65 d          19.973  51.739  36.431  0.00  0.00     0.119 S 
ATOM     27  OAF B65 d          20.746  52.542  35.534  0.00  0.00    -0.594 OA
ATOM     28  OAE B65 d          19.295  50.651  35.656  0.00  0.00    -0.594 OA
ATOM     29  OAD B65 d          20.861  51.109  37.468  0.00  0.00    -0.594 OA
ENDBRANCH  20  26
ENDBRANCH  17  20
ENDBRANCH  14  17
ENDBRANCH  11  14
ENDBRANCH   6  11
BRANCH   1  30
ATOM     30  OAS B65 d          15.355  55.993  40.445  0.00  0.00    -0.311 OA
BRANCH  30  31
ATOM     31  CAU B65 d          14.195  55.650  41.075  0.00  0.00     0.076 A 
ATOM     32  CAL B65 d          13.590  54.434  40.805  0.00  0.00    -0.050 A 
ATOM     33  CAH B65 d          12.508  54.016  41.584  0.00  0.00    -0.080 A 
ATOM     34  H1  B65 d          13.954  53.810  39.996  0.00  0.00     0.087 H 
ATOM     35  CAG B65 d          12.040  54.816  42.621  0.00  0.00    -0.083 A 
ATOM     36  H2  B65 d          12.031  53.064  41.379  0.00  0.00     0.083 H 
ATOM     37  CAI B65 d          12.646  56.035  42.885  0.00  0.00    -0.080 A 
ATOM     38  H3  B65 d          11.201  54.486  43.223  0.00  0.00     0.083 H 
ATOM     39  CAM B65 d          13.724  56.455  42.107  0.00  0.00    -0.050 A 
ATOM     40  H4  B65 d          12.282  56.659  43.693  0.00  0.00     0.083 H 
ATOM     41  H5  B65 d          14.196  57.411  42.306  0.00  0.00     0.087 H 
ENDBRANCH  30  31
ENDBRANCH   1  30
TORSDOF 8
ENDMDL
MODEL 7
REMARK VINA RESULT:      -7.9      2.304      3.157
REMARK  8 active torsions:
REMARK  status: ('A' for Active; 'I' for Inactive)
REMARK    1  A    between atoms: CAU_6  and  OAS_7 
REMARK    2  A    between atoms: OAS_7  and  CAV_8 
REMARK    3  A    between atoms: CAT_13  and  CAQ_14 
REMARK    4  A    between atoms: CAQ_14  and  CAP_15 
REMARK    5  A    between atoms: CAP_15  and  CAR_16 
REMARK    6  A    between atoms: CAR_16  and  CAW_17 
REMARK    7  A    between atoms: CAW_17  and  PAX_18 
REMARK    8  A    between atoms: CAW_17  and  SAY_22 
ROOT
ATOM      1  CAV B65 d          15.572  53.368  39.158  0.00  0.00     0.076 A 
ATOM      2  CAO B65 d          15.558  52.705  37.933  0.00  0.00    -0.044 A 
ATOM      3  CAN B65 d          16.045  52.714  40.289  0.00  0.00    -0.050 A 
ATOM      4  CAJ B65 d          16.492  51.402  40.187  0.00  0.00    -0.080 A 
ATOM      5  CAK B65 d          16.467  50.738  38.963  0.00  0.00    -0.077 A 
ATOM      6  CAT B65 d          15.996  51.395  37.831  0.00  0.00    -0.056 A 
ATOM      7  H6  B65 d          15.200  53.220  37.049  0.00  0.00     0.088 H 
ATOM      8  H7  B65 d          16.066  53.224  41.245  0.00  0.00     0.087 H 
ATOM      9  H8  B65 d          16.864  50.891  41.068  0.00  0.00     0.083 H 
ATOM     10  H9  B65 d          16.813  49.714  38.893  0.00  0.00     0.084 H 
ENDROOT
BRANCH   6  11
ATOM     11  CAQ B65 d          15.902  50.680  36.478  0.00  0.00    -0.041 C 
ATOM     12  H10 B65 d          15.664  51.420  35.700  0.00  0.00     0.040 H 
ATOM     13  H11 B65 d          15.099  49.930  36.527  0.00  0.00     0.040 H 
BRANCH  11  14
ATOM     14  CAP B65 d          17.214  49.981  36.114  0.00  0.00    -0.059 C 
ATOM     15  H12 B65 d          17.004  49.133  35.446  0.00  0.00     0.033 H 
ATOM     16  H13 B65 d          17.701  49.615  37.030  0.00  0.00     0.033 H 
BRANCH  14  17
ATOM     17  CAR B65 d          18.137  50.972  35.406  0.00  0.00    -0.034 C 
ATOM     18  H14 B65 d          17.761  51.992  35.582  0.00  0.00     0.036 H 
ATOM     19  H15 B65 d          18.122  50.758  34.328  0.00  0.00     0.036 H 
BRANCH  17  20
ATOM     20  CAW B65 d          19.584  50.891  35.902  0.00  0.00     0.169 C 
ATOM     21  H16 B65 d          19.668  50.050  36.605  0.00  0.00     0.090 H 
BRANCH  20  22
ATOM     22  PAX B65 d          20.073  52.434  36.773  0.00  0.00     0.281 P 
ATOM     23  OAB B65 d          19.486  52.341  38.269  0.00  0.00    -0.639 OA
ATOM     24  OAC B65 d          21.679  52.381  36.896  0.00  0.00    -0.639 OA
ATOM     25  OAA B65 d          19.606  53.652  36.069  0.00  0.00    -0.639 OA
ENDBRANCH  20  22
BRANCH  20  26
ATOM     26  SAY B65 d          20.694  50.590  34.481  0.00  0.00     0.119 S 
ATOM     27  OAF B65 d          19.995  49.840  33.482  0.00  0.00    -0.594 OA
ATOM     28  OAE B65 d          21.893  49.811  34.930  0.00  0.00    -0.594 OA
ATOM     29  OAD B65 d          21.158  51.905  33.920  0.00  0.00    -0.594 OA
ENDBRANCH  20  26
ENDBRANCH  17  20
ENDBRANCH  14  17
ENDBRANCH  11  14
ENDBRANCH   6  11
BRANCH   1  30
ATOM     30  OAS B65 d          15.001  54.599  39.206  0.00  0.00    -0.311 OA
BRANCH  30  31
ATOM     31  CAU B65 d          14.501  54.987  40.415  0.00  0.00     0.076 A 
ATOM     32  CAL B65 d          14.989  56.125  41.036  0.00  0.00    -0.050 A 
ATOM     33  CAH B65 d          14.348  56.611  42.179  0.00  0.00    -0.080 A 
ATOM     34  H1  B65 d          15.860  56.633  40.639  0.00  0.00     0.087 H 
ATOM     35  CAG B65 d          13.232  55.958  42.690  0.00  0.00    -0.083 A 
ATOM     36  H2  B65 d          14.724  57.502  42.669  0.00  0.00     0.083 H 
ATOM     37  CAI B65 d          12.750  54.817  42.066  0.00  0.00    -0.080 A 
ATOM     38  H3  B65 d          12.739  56.341  43.576  0.00  0.00     0.083 H 
ATOM     39  CAM B65 d          13.389  54.328  40.928  0.00  0.00    -0.050 A 
ATOM     40  H4  B65 d          11.880  54.307  42.463  0.00  0.00     0.083 H 
ATOM     41  H5  B65 d          13.019  53.432  40.442  0.00  0.00     0.087 H 
ENDBRANCH  30  31
ENDBRANCH   1  30
TORSDOF 8
ENDMDL
MODEL 8
REMARK VINA RESULT:      -7.6      2.508      4.042
REMARK  8 active torsions:
REMARK  status: ('A' for Active; 'I' for Inactive)
REMARK    1  A    between atoms: CAU_6  and  OAS_7 
REMARK    2  A    between atoms: OAS_7  and  CAV_8 
REMARK    3  A    between atoms: CAT_13  and  CAQ_14 
REMARK    4  A    between atoms: CAQ_14  and  CAP_15 
REMARK    5  A    between atoms: CAP_15  and  CAR_16 
REMARK    6  A    between atoms: CAR_16  and  CAW_17 
REMARK    7  A    between atoms: CAW_17  and  PAX_18 
REMARK    8  A    between atoms: CAW_17  and  SAY_22 
ROOT
ATOM      1  CAV B65 d          14.582  55.304  40.334  0.00  0.00     0.076 A 
ATOM      2  CAO B65 d          15.281  54.179  39.901  0.00  0.00    -0.044 A 
ATOM      3  CAN B65 d          13.442  55.146  41.113  0.00  0.00    -0.050 A 
ATOM      4  CAJ B65 d          13.007  53.869  41.445  0.00  0.00    -0.080 A 
ATOM      5  CAK B65 d          13.702  52.747  41.001  0.00  0.00    -0.077 A 
ATOM      6  CAT B65 d          14.844  52.905  40.224  0.00  0.00    -0.056 A 
ATOM      7  H6  B65 d          16.177  54.303  39.304  0.00  0.00     0.088 H 
ATOM      8  H7  B65 d          12.895  56.015  41.461  0.00  0.00     0.087 H 
ATOM      9  H8  B65 d          12.119  53.745  42.055  0.00  0.00     0.083 H 
ATOM     10  H9  B65 d          13.354  51.754  41.260  0.00  0.00     0.084 H 
ENDROOT
BRANCH   6  11
ATOM     11  CAQ B65 d          15.605  51.694  39.671  0.00  0.00    -0.041 C 
ATOM     12  H10 B65 d          15.577  51.727  38.572  0.00  0.00     0.040 H 
ATOM     13  H11 B65 d          15.114  50.775  40.022  0.00  0.00     0.040 H 
BRANCH  11  14
ATOM     14  CAP B65 d          17.065  51.683  40.131  0.00  0.00    -0.059 C 
ATOM     15  H12 B65 d          17.227  50.839  40.817  0.00  0.00     0.033 H 
ATOM     16  H13 B65 d          17.292  52.627  40.650  0.00  0.00     0.033 H 
BRANCH  14  17
ATOM     17  CAR B65 d          17.979  51.536  38.915  0.00  0.00    -0.034 C 
ATOM     18  H14 B65 d          17.613  50.701  38.299  0.00  0.00     0.036 H 
ATOM     19  H15 B65 d          18.997  51.315  39.265  0.00  0.00     0.036 H 
BRANCH  17  20
ATOM     20  CAW B65 d          18.021  52.800  38.051  0.00  0.00     0.169 C 
ATOM     21  H16 B65 d          17.146  53.421  38.291  0.00  0.00     0.090 H 
BRANCH  20  22
ATOM     22  PAX B65 d          17.970  52.381  36.262  0.00  0.00     0.281 P 
ATOM     23  OAB B65 d          17.360  50.897  36.140  0.00  0.00    -0.639 OA
ATOM     24  OAC B65 d          16.894  53.385  35.605  0.00  0.00    -0.639 OA
ATOM     25  OAA B65 d          19.300  52.490  35.618  0.00  0.00    -0.639 OA
ENDBRANCH  20  22
BRANCH  20  26
ATOM     26  SAY B65 d          19.541  53.744  38.435  0.00  0.00     0.119 S 
ATOM     27  OAF B65 d          20.687  52.957  38.093  0.00  0.00    -0.594 OA
ATOM     28  OAE B65 d          19.583  54.063  39.898  0.00  0.00    -0.594 OA
ATOM     29  OAD B65 d          19.539  55.032  37.661  0.00  0.00    -0.594 OA
ENDBRANCH  20  26
ENDBRANCH  17  20
ENDBRANCH  14  17
ENDBRANCH  11  14
ENDBRANCH   6  11
BRANCH   1  30
ATOM     30  OAS B65 d          14.990  56.511  39.865  0.00  0.00    -0.311 OA
BRANCH  30  31
ATOM     31  CAU B65 d          14.963  56.673  38.510  0.00  0.00     0.076 A 
ATOM     32  CAL B65 d          16.143  56.662  37.785  0.00  0.00    -0.050 A 
ATOM     33  CAH B65 d          16.091  56.647  36.389  0.00  0.00    -0.080 A 
ATOM     34  H1  B65 d          17.099  56.664  38.297  0.00  0.00     0.087 H 
ATOM     35  CAG B65 d          14.866  56.646  35.732  0.00  0.00    -0.083 A 
ATOM     36  H2  B65 d          17.011  56.636  35.815  0.00  0.00     0.083 H 
ATOM     37  CAI B65 d          13.687  56.662  36.463  0.00  0.00    -0.080 A 
ATOM     38  H3  B65 d          14.832  56.633  34.649  0.00  0.00     0.083 H 
ATOM     39  CAM B65 d          13.736  56.679  37.857  0.00  0.00    -0.050 A 
ATOM     40  H4  B65 d          12.731  56.660  35.953  0.00  0.00     0.083 H 
ATOM     41  H5  B65 d          12.816  56.698  38.431  0.00  0.00     0.087 H 
ENDBRANCH  30  31
ENDBRANCH   1  30
TORSDOF 8
ENDMDL
MODEL 9
REMARK VINA RESULT:      -7.3      1.099      2.096
REMARK  8 active torsions:
REMARK  status: ('A' for Active; 'I' for Inactive)
REMARK    1  A    between atoms: CAU_6  and  OAS_7 
REMARK    2  A    between atoms: OAS_7  and  CAV_8 
REMARK    3  A    between atoms: CAT_13  and  CAQ_14 
REMARK    4  A    between atoms: CAQ_14  and  CAP_15 
REMARK    5  A    between atoms: CAP_15  and  CAR_16 
REMARK    6  A    between atoms: CAR_16  and  CAW_17 
REMARK    7  A    between atoms: CAW_17  and  PAX_18 
REMARK    8  A    between atoms: CAW_17  and  SAY_22 
ROOT
ATOM      1  CAV B65 d          14.994  52.239  39.574  0.00  0.00     0.076 A 
ATOM      2  CAO B65 d          15.366  51.807  38.302  0.00  0.00    -0.044 A 
ATOM      3  CAN B65 d          15.737  51.844  40.679  0.00  0.00    -0.050 A 
ATOM      4  CAJ B65 d          16.839  51.015  40.506  0.00  0.00    -0.080 A 
ATOM      5  CAK B65 d          17.202  50.576  39.234  0.00  0.00    -0.077 A 
ATOM      6  CAT B65 d          16.459  50.975  38.128  0.00  0.00    -0.056 A 
ATOM      7  H6  B65 d          14.793  52.126  37.439  0.00  0.00     0.088 H 
ATOM      8  H7  B65 d          15.459  52.180  41.671  0.00  0.00     0.087 H 
ATOM      9  H8  B65 d          17.421  50.708  41.367  0.00  0.00     0.083 H 
ATOM     10  H9  B65 d          18.060  49.926  39.108  0.00  0.00     0.084 H 
ENDROOT
BRANCH   6  11
ATOM     11  CAQ B65 d          16.794  50.469  36.721  0.00  0.00    -0.041 C 
ATOM     12  H10 B65 d          15.943  50.676  36.055  0.00  0.00     0.040 H 
ATOM     13  H11 B65 d          16.969  49.384  36.764  0.00  0.00     0.040 H 
BRANCH  11  14
ATOM     14  CAP B65 d          18.043  51.150  36.156  0.00  0.00    -0.059 C 
ATOM     15  H12 B65 d          18.200  50.826  35.117  0.00  0.00     0.033 H 
ATOM     16  H13 B65 d          18.919  50.873  36.763  0.00  0.00     0.033 H 
BRANCH  14  17
ATOM     17  CAR B65 d          17.855  52.667  36.195  0.00  0.00    -0.034 C 
ATOM     18  H14 B65 d          17.134  52.912  36.990  0.00  0.00     0.036 H 
ATOM     19  H15 B65 d          17.458  52.997  35.225  0.00  0.00     0.036 H 
BRANCH  17  20
ATOM     20  CAW B65 d          19.161  53.417  36.472  0.00  0.00     0.169 C 
ATOM     21  H16 B65 d          19.416  54.018  35.587  0.00  0.00     0.090 H 
BRANCH  20  22
ATOM     22  PAX B65 d          20.540  52.247  36.802  0.00  0.00     0.281 P 
ATOM     23  OAB B65 d          19.949  51.067  37.723  0.00  0.00    -0.639 OA
ATOM     24  OAC B65 d          20.911  51.590  35.378  0.00  0.00    -0.639 OA
ATOM     25  OAA B65 d          21.706  52.911  37.432  0.00  0.00    -0.639 OA
ENDBRANCH  20  22
BRANCH  20  26
ATOM     26  SAY B65 d          18.926  54.535  37.900  0.00  0.00     0.119 S 
ATOM     27  OAF B65 d          18.762  53.757  39.090  0.00  0.00    -0.594 OA
ATOM     28  OAE B65 d          17.704  55.375  37.690  0.00  0.00    -0.594 OA
ATOM     29  OAD B65 d          20.118  55.442  38.028  0.00  0.00    -0.594 OA
ENDBRANCH  20  26
ENDBRANCH  17  20
ENDBRANCH  14  17
ENDBRANCH  11  14
ENDBRANCH   6  11
BRANCH   1  30
ATOM     30  OAS B65 d          13.834  52.938  39.680  0.00  0.00    -0.311 OA
BRANCH  30  31
ATOM     31  CAU B65 d          13.909  54.140  40.320  0.00  0.00     0.076 A 
ATOM     32  CAL B65 d          13.106  54.394  41.419  0.00  0.00    -0.050 A 
ATOM     33  CAH B65 d          13.319  55.551  42.173  0.00  0.00    -0.080 A 
ATOM     34  H1  B65 d          12.320  53.700  41.693  0.00  0.00     0.087 H 
ATOM     35  CAG B65 d          14.327  56.442  41.821  0.00  0.00    -0.083 A 
ATOM     36  H2  B65 d          12.696  55.755  43.036  0.00  0.00     0.083 H 
ATOM     37  CAI B65 d          15.125  56.186  40.716  0.00  0.00    -0.080 A 
ATOM     38  H3  B65 d          14.488  57.338  42.410  0.00  0.00     0.083 H 
ATOM     39  CAM B65 d          14.913  55.033  39.961  0.00  0.00    -0.050 A 
ATOM     40  H4  B65 d          15.911  56.880  40.441  0.00  0.00     0.083 H 
ATOM     41  H5  B65 d          15.531  54.833  39.093  0.00  0.00     0.087 H 
ENDBRANCH  30  31
ENDBRANCH   1  30
TORSDOF 8
ENDMDL
MODEL 10
REMARK VINA RESULT:      -7.2      2.270      3.738
REMARK  8 active torsions:
REMARK  status: ('A' for Active; 'I' for Inactive)
REMARK    1  A    between atoms: CAU_6  and  OAS_7 
REMARK    2  A    between atoms: OAS_7  and  CAV_8 
REMARK    3  A    between atoms: CAT_13  and  CAQ_14 
REMARK    4  A    between atoms: CAQ_14  and  CAP_15 
REMARK    5  A    between atoms: CAP_15  and  CAR_16 
REMARK    6  A    between atoms: CAR_16  and  CAW_17 
REMARK    7  A    between atoms: CAW_17  and  PAX_18 
REMARK    8  A    between atoms: CAW_17  and  SAY_22 
ROOT
ATOM      1  CAV B65 d          15.697  51.817  38.493  0.00  0.00     0.076 A 
ATOM      2  CAO B65 d          17.051  51.683  38.192  0.00  0.00    -0.044 A 
ATOM      3  CAN B65 d          14.769  50.993  37.868  0.00  0.00    -0.050 A 
ATOM      4  CAJ B65 d          15.200  50.050  36.943  0.00  0.00    -0.080 A 
ATOM      5  CAK B65 d          16.553  49.926  36.636  0.00  0.00    -0.077 A 
ATOM      6  CAT B65 d          17.481  50.749  37.264  0.00  0.00    -0.056 A 
ATOM      7  H6  B65 d          17.775  52.317  38.689  0.00  0.00     0.088 H 
ATOM      8  H7  B65 d          13.714  51.085  38.101  0.00  0.00     0.087 H 
ATOM      9  H8  B65 d          14.477  49.405  36.457  0.00  0.00     0.083 H 
ATOM     10  H9  B65 d          16.880  49.192  35.910  0.00  0.00     0.084 H 
ENDROOT
BRANCH   6  11
ATOM     11  CAQ B65 d          18.972  50.680  36.913  0.00  0.00    -0.041 C 
ATOM     12  H10 B65 d          19.236  49.637  36.685  0.00  0.00     0.040 H 
ATOM     13  H11 B65 d          19.558  51.026  37.777  0.00  0.00     0.040 H 
BRANCH  11  14
ATOM     14  CAP B65 d          19.310  51.554  35.702  0.00  0.00    -0.059 C 
ATOM     15  H12 B65 d          18.383  51.966  35.277  0.00  0.00     0.033 H 
ATOM     16  H13 B65 d          19.823  50.945  34.942  0.00  0.00     0.033 H 
BRANCH  14  17
ATOM     17  CAR B65 d          20.223  52.698  36.141  0.00  0.00    -0.034 C 
ATOM     18  H14 B65 d          19.678  53.647  36.027  0.00  0.00     0.036 H 
ATOM     19  H15 B65 d          21.112  52.706  35.495  0.00  0.00     0.036 H 
BRANCH  17  20
ATOM     20  CAW B65 d          20.677  52.566  37.598  0.00  0.00     0.169 C 
ATOM     21  H16 B65 d          19.998  51.875  38.118  0.00  0.00     0.090 H 
BRANCH  20  22
ATOM     22  PAX B65 d          20.631  54.191  38.456  0.00  0.00     0.281 P 
ATOM     23  OAB B65 d          19.835  55.210  37.497  0.00  0.00    -0.639 OA
ATOM     24  OAC B65 d          19.719  53.971  39.767  0.00  0.00    -0.639 OA
ATOM     25  OAA B65 d          21.984  54.690  38.794  0.00  0.00    -0.639 OA
ENDBRANCH  20  22
BRANCH  20  26
ATOM     26  SAY B65 d          22.371  51.877  37.643  0.00  0.00     0.119 S 
ATOM     27  OAF B65 d          22.317  50.466  37.411  0.00  0.00    -0.594 OA
ATOM     28  OAE B65 d          22.986  52.131  38.986  0.00  0.00    -0.594 OA
ATOM     29  OAD B65 d          23.213  52.549  36.594  0.00  0.00    -0.594 OA
ENDBRANCH  20  26
ENDBRANCH  17  20
ENDBRANCH  14  17
ENDBRANCH  11  14
ENDBRANCH   6  11
BRANCH   1  30
ATOM     30  OAS B65 d          15.338  52.844  39.307  0.00  0.00    -0.311 OA
BRANCH  30  31
ATOM     31  CAU B65 d          15.170  54.058  38.709  0.00  0.00     0.076 A 
ATOM     32  CAL B65 d          14.900  55.179  39.476  0.00  0.00    -0.050 A 
ATOM     33  CAH B65 d          14.910  56.441  38.876  0.00  0.00    -0.080 A 
ATOM     34  H1  B65 d          14.684  55.079  40.534  0.00  0.00     0.087 H 
ATOM     35  CAG B65 d          15.185  56.570  37.519  0.00  0.00    -0.083 A 
ATOM     36  H2  B65 d          14.701  57.323  39.471  0.00  0.00     0.083 H 
ATOM     37  CAI B65 d          15.450  55.444  36.754  0.00  0.00    -0.080 A 
ATOM     38  H3  B65 d          15.192  57.552  37.059  0.00  0.00     0.083 H 
ATOM     39  CAM B65 d          15.438  54.184  37.350  0.00  0.00    -0.050 A 
ATOM     40  H4  B65 d          15.665  55.544  35.697  0.00  0.00     0.083 H 
ATOM     41  H5  B65 d          15.639  53.301  36.754  0.00  0.00     0.087 H 
ENDBRANCH  30  31
ENDBRANCH   1  30
TORSDOF 8
ENDMDL
