MODEL 1
REMARK VINA RESULT:      -8.4      0.000      0.000
REMARK  4 active torsions:
REMARK  status: ('A' for Active; 'I' for Inactive)
REMARK    1  A    between atoms: S5_2  and  N21_4 
REMARK    2  A    between atoms: S5_2  and  C5_12 
REMARK    3  A    between atoms: C22_5  and  C2M_6 
REMARK    4  A    between atoms: C4_14  and  CM_15 
ROOT
ATOM      1  N21 H52 d          10.172   9.416   3.674  0.00  0.00    -0.301 N 
ATOM      2  C22 H52 d          10.501   7.945   3.888  0.00  0.00     0.042 C 
ATOM      3  C23 H52 d          11.959   7.530   3.656  0.00  0.00     0.100 C 
ATOM      4  N24 H52 d          12.811   8.192   4.721  0.00  0.00    -0.073 N 
ATOM      5  C25 H52 d          13.358   9.500   4.172  0.00  0.00     0.083 C 
ATOM      6  C26 H52 d          12.314  10.629   4.109  0.00  0.00    -0.027 C 
ATOM      7  C27 H52 d          11.213  10.312   3.105  0.00  0.00     0.007 C 
ATOM      8  H1  H52 d          10.312   7.770   4.958  0.00  0.00     0.075 H 
ATOM      9  H5  H52 d          12.287   7.858   2.659  0.00  0.00     0.078 H 
ATOM     10  H6  H52 d          12.052   6.436   3.731  0.00  0.00     0.078 H 
ATOM     11  H7  H52 d          13.575   7.583   4.970  0.00  0.00     0.277 HD
ATOM     12  H8  H52 d          12.249   8.377   5.537  0.00  0.00     0.277 HD
ATOM     13  H9  H52 d          13.736   9.318   3.156  0.00  0.00     0.075 H 
ATOM     14  H10 H52 d          14.186   9.828   4.818  0.00  0.00     0.075 H 
ATOM     15  H11 H52 d          12.814  11.563   3.809  0.00  0.00     0.037 H 
ATOM     16  H12 H52 d          11.864  10.757   5.105  0.00  0.00     0.037 H 
ATOM     17  H13 H52 d          10.737  11.253   2.792  0.00  0.00     0.065 H 
ATOM     18  H14 H52 d          11.663   9.821   2.229  0.00  0.00     0.065 H 
ENDROOT
BRANCH   1  19
ATOM     19  S5  H52 d           8.785  10.012   4.482  0.00  0.00     0.262 S 
ATOM     20  O1  H52 d           8.918  11.409   4.975  0.00  0.00    -0.200 OA
ATOM     21  O2  H52 d           8.469   8.970   5.467  0.00  0.00    -0.200 OA
BRANCH  19  22
ATOM     22  C5  H52 d           7.443   9.942   3.308  0.00  0.00     0.091 A 
ATOM     23  C10 H52 d           6.004   9.953   3.619  0.00  0.00     0.006 A 
ATOM     24  C4  H52 d           5.312  10.094   4.890  0.00  0.00    -0.032 A 
ATOM     25  C9  H52 d           5.116   9.796   2.512  0.00  0.00    -0.006 A 
ATOM     26  C3  H52 d           3.937  10.045   4.979  0.00  0.00     0.008 A 
ATOM     27  N2  H52 d           3.161   9.859   3.892  0.00  0.00    -0.272 NA
ATOM     28  H22 H52 d           3.467  10.160   5.949  0.00  0.00     0.115 H 
ATOM     29  C1  H52 d           3.702   9.771   2.701  0.00  0.00     0.013 A 
ATOM     30  H21 H52 d           3.056   9.676   1.835  0.00  0.00     0.116 H 
ATOM     31  C8  H52 d           5.615   9.648   1.188  0.00  0.00    -0.071 A 
ATOM     32  C7  H52 d           6.959   9.640   0.940  0.00  0.00    -0.081 A 
ATOM     33  H18 H52 d           4.920   9.541   0.363  0.00  0.00     0.084 H 
ATOM     34  C6  H52 d           7.877   9.759   2.012  0.00  0.00    -0.059 A 
ATOM     35  H19 H52 d           7.323   9.542  -0.076  0.00  0.00     0.083 H 
ATOM     36  H20 H52 d           8.941   9.707   1.810  0.00  0.00     0.085 H 
BRANCH  24  37
ATOM     37  CM  H52 d           5.929  10.324   6.236  0.00  0.00    -0.049 C 
ATOM     38  H15 H52 d           6.807  10.978   6.130  0.00  0.00     0.033 H 
ATOM     39  H16 H52 d           6.239   9.361   6.667  0.00  0.00     0.033 H 
ATOM     40  H17 H52 d           5.194  10.802   6.900  0.00  0.00     0.033 H 
ENDBRANCH  24  37
ENDBRANCH  19  22
ENDBRANCH   1  19
BRANCH   2  41
ATOM     41  C2M H52 d           9.580   6.999   3.139  0.00  0.00    -0.055 C 
ATOM     42  H2  H52 d          10.026   6.745   2.166  0.00  0.00     0.030 H 
ATOM     43  H3  H52 d           8.607   7.485   2.979  0.00  0.00     0.030 H 
ATOM     44  H4  H52 d           9.440   6.081   3.728  0.00  0.00     0.030 H 
ENDBRANCH   2  41
TORSDOF 4
ENDMDL
MODEL 2
REMARK VINA RESULT:      -7.9      2.396      3.150
REMARK  4 active torsions:
REMARK  status: ('A' for Active; 'I' for Inactive)
REMARK    1  A    between atoms: S5_2  and  N21_4 
REMARK    2  A    between atoms: S5_2  and  C5_12 
REMARK    3  A    between atoms: C22_5  and  C2M_6 
REMARK    4  A    between atoms: C4_14  and  CM_15 
ROOT
ATOM      1  N21 H52 d          11.101   9.107   2.096  0.00  0.00    -0.301 N 
ATOM      2  C22 H52 d          11.749   9.727   0.866  0.00  0.00     0.042 C 
ATOM      3  C23 H52 d          13.218  10.145   1.005  0.00  0.00     0.100 C 
ATOM      4  N24 H52 d          14.048   8.890   1.189  0.00  0.00    -0.073 N 
ATOM      5  C25 H52 d          14.239   8.639   2.676  0.00  0.00     0.083 C 
ATOM      6  C26 H52 d          12.987   8.080   3.375  0.00  0.00    -0.027 C 
ATOM      7  C27 H52 d          11.852   9.096   3.379  0.00  0.00     0.007 C 
ATOM      8  H1  H52 d          11.742   8.924   0.112  0.00  0.00     0.075 H 
ATOM      9  H5  H52 d          13.338  10.803   1.878  0.00  0.00     0.078 H 
ATOM     10  H6  H52 d          13.541  10.678   0.098  0.00  0.00     0.078 H 
ATOM     11  H7  H52 d          14.946   9.012   0.748  0.00  0.00     0.277 HD
ATOM     12  H8  H52 d          13.572   8.106   0.772  0.00  0.00     0.277 HD
ATOM     13  H9  H52 d          14.509   9.591   3.157  0.00  0.00     0.075 H 
ATOM     14  H10 H52 d          15.060   7.918   2.804  0.00  0.00     0.075 H 
ATOM     15  H11 H52 d          13.241   7.823   4.414  0.00  0.00     0.037 H 
ATOM     16  H12 H52 d          12.655   7.175   2.844  0.00  0.00     0.037 H 
ATOM     17  H13 H52 d          11.156   8.847   4.194  0.00  0.00     0.065 H 
ATOM     18  H14 H52 d          12.274  10.097   3.550  0.00  0.00     0.065 H 
ENDROOT
BRANCH   1  19
ATOM     19  S5  H52 d           9.739   8.106   1.816  0.00  0.00     0.262 S 
ATOM     20  O1  H52 d           9.637   6.942   2.738  0.00  0.00    -0.200 OA
ATOM     21  O2  H52 d           9.786   7.831   0.375  0.00  0.00    -0.200 OA
BRANCH  19  22
ATOM     22  C5  H52 d           8.298   9.136   2.030  0.00  0.00     0.091 A 
ATOM     23  C10 H52 d           7.631   9.459   3.302  0.00  0.00     0.006 A 
ATOM     24  C4  H52 d           7.984   9.112   4.670  0.00  0.00    -0.032 A 
ATOM     25  C9  H52 d           6.436  10.234   3.211  0.00  0.00    -0.006 A 
ATOM     26  C3  H52 d           7.200   9.486   5.740  0.00  0.00     0.008 A 
ATOM     27  N2  H52 d           6.062  10.190   5.575  0.00  0.00    -0.272 NA
ATOM     28  H22 H52 d           7.507   9.207   6.741  0.00  0.00     0.115 H 
ATOM     29  C1  H52 d           5.696  10.586   4.380  0.00  0.00     0.013 A 
ATOM     30  H21 H52 d           4.807  11.197   4.277  0.00  0.00     0.116 H 
ATOM     31  C8  H52 d           5.939  10.669   1.951  0.00  0.00    -0.071 A 
ATOM     32  C7  H52 d           6.585  10.346   0.791  0.00  0.00    -0.081 A 
ATOM     33  H18 H52 d           5.034  11.265   1.910  0.00  0.00     0.084 H 
ATOM     34  C6  H52 d           7.757   9.551   0.831  0.00  0.00    -0.059 A 
ATOM     35  H19 H52 d           6.202  10.699  -0.159  0.00  0.00     0.083 H 
ATOM     36  H20 H52 d           8.237   9.264  -0.097  0.00  0.00     0.085 H 
BRANCH  24  37
ATOM     37  CM  H52 d           9.193   8.354   5.128  0.00  0.00    -0.049 C 
ATOM     38  H15 H52 d           8.956   7.281   5.178  0.00  0.00     0.033 H 
ATOM     39  H16 H52 d           9.493   8.710   6.125  0.00  0.00     0.033 H 
ATOM     40  H17 H52 d          10.017   8.515   4.418  0.00  0.00     0.033 H 
ENDBRANCH  24  37
ENDBRANCH  19  22
ENDBRANCH   1  19
BRANCH   2  41
ATOM     41  C2M H52 d          10.951  10.871   0.267  0.00  0.00    -0.055 C 
ATOM     42  H2  H52 d          11.426  11.827   0.530  0.00  0.00     0.030 H 
ATOM     43  H3  H52 d           9.926  10.851   0.665  0.00  0.00     0.030 H 
ATOM     44  H4  H52 d          10.922  10.765  -0.827  0.00  0.00     0.030 H 
ENDBRANCH   2  41
TORSDOF 4
ENDMDL
MODEL 3
REMARK VINA RESULT:      -7.7      0.967      2.160
REMARK  4 active torsions:
REMARK  status: ('A' for Active; 'I' for Inactive)
REMARK    1  A    between atoms: S5_2  and  N21_4 
REMARK    2  A    between atoms: S5_2  and  C5_12 
REMARK    3  A    between atoms: C22_5  and  C2M_6 
REMARK    4  A    between atoms: C4_14  and  CM_15 
ROOT
ATOM      1  N21 H52 d          10.333   9.446   3.797  0.00  0.00    -0.301 N 
ATOM      2  C22 H52 d          10.995  10.348   2.765  0.00  0.00     0.042 C 
ATOM      3  C23 H52 d          11.875   9.656   1.716  0.00  0.00     0.100 C 
ATOM      4  N24 H52 d          10.979   8.800   0.843  0.00  0.00    -0.073 N 
ATOM      5  C25 H52 d          10.959   7.385   1.396  0.00  0.00     0.083 C 
ATOM      6  C26 H52 d          10.104   7.228   2.666  0.00  0.00    -0.027 C 
ATOM      7  C27 H52 d          10.697   8.005   3.835  0.00  0.00     0.007 C 
ATOM      8  H1  H52 d          10.159  10.790   2.202  0.00  0.00     0.075 H 
ATOM      9  H5  H52 d          12.624   9.024   2.215  0.00  0.00     0.078 H 
ATOM     10  H6  H52 d          12.385  10.412   1.100  0.00  0.00     0.078 H 
ATOM     11  H7  H52 d          11.335   8.791  -0.099  0.00  0.00     0.277 HD
ATOM     12  H8  H52 d          10.044   9.177   0.846  0.00  0.00     0.277 HD
ATOM     13  H9  H52 d          11.992   7.090   1.634  0.00  0.00     0.075 H 
ATOM     14  H10 H52 d          10.557   6.715   0.622  0.00  0.00     0.075 H 
ATOM     15  H11 H52 d          10.052   6.162   2.934  0.00  0.00     0.037 H 
ATOM     16  H12 H52 d           9.090   7.605   2.464  0.00  0.00     0.037 H 
ATOM     17  H13 H52 d          10.325   7.570   4.774  0.00  0.00     0.065 H 
ATOM     18  H14 H52 d          11.793   7.916   3.799  0.00  0.00     0.065 H 
ENDROOT
BRANCH   1  19
ATOM     19  S5  H52 d           8.925  10.061   4.554  0.00  0.00     0.262 S 
ATOM     20  O1  H52 d           9.049  11.467   5.024  0.00  0.00    -0.200 OA
ATOM     21  O2  H52 d           8.577   9.038   5.549  0.00  0.00    -0.200 OA
BRANCH  19  22
ATOM     22  C5  H52 d           7.617   9.972   3.344  0.00  0.00     0.091 A 
ATOM     23  C10 H52 d           6.170   9.972   3.614  0.00  0.00     0.006 A 
ATOM     24  C4  H52 d           5.441  10.113   4.865  0.00  0.00    -0.032 A 
ATOM     25  C9  H52 d           5.315   9.801   2.484  0.00  0.00    -0.006 A 
ATOM     26  C3  H52 d           4.065  10.051   4.916  0.00  0.00     0.008 A 
ATOM     27  N2  H52 d           3.322   9.852   3.809  0.00  0.00    -0.272 NA
ATOM     28  H22 H52 d           3.567  10.165   5.872  0.00  0.00     0.115 H 
ATOM     29  C1  H52 d           3.896   9.763   2.634  0.00  0.00     0.013 A 
ATOM     30  H21 H52 d           3.275   9.658   1.751  0.00  0.00     0.116 H 
ATOM     31  C8  H52 d           5.852   9.652   1.175  0.00  0.00    -0.071 A 
ATOM     32  C7  H52 d           7.202   9.655   0.965  0.00  0.00    -0.081 A 
ATOM     33  H18 H52 d           5.180   9.534   0.332  0.00  0.00     0.084 H 
ATOM     34  C6  H52 d           8.089   9.788   2.061  0.00  0.00    -0.059 A 
ATOM     35  H19 H52 d           7.594   9.555  -0.040  0.00  0.00     0.083 H 
ATOM     36  H20 H52 d           9.158   9.745   1.889  0.00  0.00     0.085 H 
BRANCH  24  37
ATOM     37  CM  H52 d           6.019  10.354   6.227  0.00  0.00    -0.049 C 
ATOM     38  H15 H52 d           6.402   9.408   6.636  0.00  0.00     0.033 H 
ATOM     39  H16 H52 d           5.238  10.752   6.891  0.00  0.00     0.033 H 
ATOM     40  H17 H52 d           6.841  11.081   6.152  0.00  0.00     0.033 H 
ENDBRANCH  24  37
ENDBRANCH  19  22
ENDBRANCH   1  19
BRANCH   2  41
ATOM     41  C2M H52 d          11.755  11.514   3.373  0.00  0.00    -0.055 C 
ATOM     42  H2  H52 d          12.416  11.957   2.614  0.00  0.00     0.030 H 
ATOM     43  H3  H52 d          12.357  11.157   4.221  0.00  0.00     0.030 H 
ATOM     44  H4  H52 d          11.040  12.273   3.724  0.00  0.00     0.030 H 
ENDBRANCH   2  41
TORSDOF 4
ENDMDL
MODEL 4
REMARK VINA RESULT:      -7.4      2.353      3.806
REMARK  4 active torsions:
REMARK  status: ('A' for Active; 'I' for Inactive)
REMARK    1  A    between atoms: S5_2  and  N21_4 
REMARK    2  A    between atoms: S5_2  and  C5_12 
REMARK    3  A    between atoms: C22_5  and  C2M_6 
REMARK    4  A    between atoms: C4_14  and  CM_15 
ROOT
ATOM      1  N21 H52 d          11.775   9.143   2.646  0.00  0.00    -0.301 N 
ATOM      2  C22 H52 d          12.474  10.373   2.085  0.00  0.00     0.042 C 
ATOM      3  C23 H52 d          13.995  10.279   1.918  0.00  0.00     0.100 C 
ATOM      4  N24 H52 d          14.287   9.247   0.847  0.00  0.00    -0.073 N 
ATOM      5  C25 H52 d          14.528   7.901   1.511  0.00  0.00     0.083 C 
ATOM      6  C26 H52 d          13.241   7.220   2.013  0.00  0.00    -0.027 C 
ATOM      7  C27 H52 d          12.600   8.011   3.146  0.00  0.00     0.007 C 
ATOM      8  H1  H52 d          12.072  10.482   1.066  0.00  0.00     0.075 H 
ATOM      9  H5  H52 d          14.457   9.972   2.868  0.00  0.00     0.078 H 
ATOM     10  H6  H52 d          14.398  11.257   1.614  0.00  0.00     0.078 H 
ATOM     11  H7  H52 d          15.107   9.520   0.328  0.00  0.00     0.277 HD
ATOM     12  H8  H52 d          13.500   9.179   0.220  0.00  0.00     0.277 HD
ATOM     13  H9  H52 d          15.198   8.054   2.370  0.00  0.00     0.075 H 
ATOM     14  H10 H52 d          15.012   7.236   0.782  0.00  0.00     0.075 H 
ATOM     15  H11 H52 d          13.489   6.211   2.376  0.00  0.00     0.037 H 
ATOM     16  H12 H52 d          12.528   7.145   1.179  0.00  0.00     0.037 H 
ATOM     17  H13 H52 d          11.957   7.335   3.729  0.00  0.00     0.065 H 
ATOM     18  H14 H52 d          13.395   8.410   3.793  0.00  0.00     0.065 H 
ENDROOT
BRANCH   1  19
ATOM     19  S5  H52 d          10.110   8.979   2.281  0.00  0.00     0.262 S 
ATOM     20  O1  H52 d           9.712   7.615   1.839  0.00  0.00    -0.200 OA
ATOM     21  O2  H52 d           9.830  10.098   1.373  0.00  0.00    -0.200 OA
BRANCH  19  22
ATOM     22  C5  H52 d           9.220   9.380   3.775  0.00  0.00     0.091 A 
ATOM     23  C10 H52 d           7.793   9.725   3.881  0.00  0.00     0.006 A 
ATOM     24  C4  H52 d           6.751   9.760   2.867  0.00  0.00    -0.032 A 
ATOM     25  C9  H52 d           7.326  10.098   5.177  0.00  0.00    -0.006 A 
ATOM     26  C3  H52 d           5.462  10.148   3.162  0.00  0.00     0.008 A 
ATOM     27  N2  H52 d           5.100  10.522   4.407  0.00  0.00    -0.272 NA
ATOM     28  H22 H52 d           4.719  10.153   2.373  0.00  0.00     0.115 H 
ATOM     29  C1  H52 d           5.966  10.473   5.390  0.00  0.00     0.013 A 
ATOM     30  H21 H52 d           5.639  10.726   6.392  0.00  0.00     0.116 H 
ATOM     31  C8  H52 d           8.206  10.118   6.295  0.00  0.00    -0.071 A 
ATOM     32  C7  H52 d           9.526   9.794   6.156  0.00  0.00    -0.081 A 
ATOM     33  H18 H52 d           7.824  10.395   7.271  0.00  0.00     0.084 H 
ATOM     34  C6  H52 d          10.040   9.450   4.882  0.00  0.00    -0.059 A 
ATOM     35  H19 H52 d          10.180   9.799   7.020  0.00  0.00     0.083 H 
ATOM     36  H20 H52 d          11.098   9.237   4.774  0.00  0.00     0.085 H 
BRANCH  24  37
ATOM     37  CM  H52 d           6.881   9.384   1.422  0.00  0.00    -0.049 C 
ATOM     38  H15 H52 d           7.609   8.566   1.321  0.00  0.00     0.033 H 
ATOM     39  H16 H52 d           7.224  10.255   0.846  0.00  0.00     0.033 H 
ATOM     40  H17 H52 d           5.903   9.054   1.040  0.00  0.00     0.033 H 
ENDBRANCH  24  37
ENDBRANCH  19  22
ENDBRANCH   1  19
BRANCH   2  41
ATOM     41  C2M H52 d          12.123  11.659   2.813  0.00  0.00    -0.055 C 
ATOM     42  H2  H52 d          11.580  12.330   2.132  0.00  0.00     0.030 H 
ATOM     43  H3  H52 d          13.045  12.151   3.153  0.00  0.00     0.030 H 
ATOM     44  H4  H52 d          11.489  11.427   3.681  0.00  0.00     0.030 H 
ENDBRANCH   2  41
TORSDOF 4
ENDMDL
MODEL 5
REMARK VINA RESULT:      -7.3      2.181      2.748
REMARK  4 active torsions:
REMARK  status: ('A' for Active; 'I' for Inactive)
REMARK    1  A    between atoms: S5_2  and  N21_4 
REMARK    2  A    between atoms: S5_2  and  C5_12 
REMARK    3  A    between atoms: C22_5  and  C2M_6 
REMARK    4  A    between atoms: C4_14  and  CM_15 
ROOT
ATOM      1  N21 H52 d          11.385   8.562   2.671  0.00  0.00    -0.301 N 
ATOM      2  C22 H52 d          12.336   7.786   3.571  0.00  0.00     0.042 C 
ATOM      3  C23 H52 d          13.218   8.617   4.510  0.00  0.00     0.100 C 
ATOM      4  N24 H52 d          12.317   9.290   5.527  0.00  0.00    -0.073 N 
ATOM      5  C25 H52 d          11.968  10.683   5.029  0.00  0.00     0.083 C 
ATOM      6  C26 H52 d          10.927  10.692   3.895  0.00  0.00    -0.027 C 
ATOM      7  C27 H52 d          11.478  10.045   2.631  0.00  0.00     0.007 C 
ATOM      8  H1  H52 d          11.680   7.196   4.228  0.00  0.00     0.075 H 
ATOM      9  H5  H52 d          13.765   9.378   3.934  0.00  0.00     0.078 H 
ATOM     10  H6  H52 d          13.937   7.961   5.025  0.00  0.00     0.078 H 
ATOM     11  H7  H52 d          12.796   9.357   6.411  0.00  0.00     0.277 HD
ATOM     12  H8  H52 d          11.474   8.750   5.641  0.00  0.00     0.277 HD
ATOM     13  H9  H52 d          12.888  11.161   4.661  0.00  0.00     0.075 H 
ATOM     14  H10 H52 d          11.567  11.263   5.873  0.00  0.00     0.075 H 
ATOM     15  H11 H52 d          10.649  11.734   3.672  0.00  0.00     0.037 H 
ATOM     16  H12 H52 d          10.036  10.137   4.223  0.00  0.00     0.037 H 
ATOM     17  H13 H52 d          10.905  10.412   1.767  0.00  0.00     0.065 H 
ATOM     18  H14 H52 d          12.534  10.331   2.518  0.00  0.00     0.065 H 
ENDROOT
BRANCH   1  19
ATOM     19  S5  H52 d          10.015   7.708   2.095  0.00  0.00     0.262 S 
ATOM     20  O1  H52 d           9.612   6.556   2.945  0.00  0.00    -0.200 OA
ATOM     21  O2  H52 d          10.328   7.438   0.686  0.00  0.00    -0.200 OA
BRANCH  19  22
ATOM     22  C5  H52 d           8.672   8.880   2.041  0.00  0.00     0.091 A 
ATOM     23  C10 H52 d           7.827   9.300   3.171  0.00  0.00     0.006 A 
ATOM     24  C4  H52 d           7.896   8.955   4.582  0.00  0.00    -0.032 A 
ATOM     25  C9  H52 d           6.751  10.186   2.863  0.00  0.00    -0.006 A 
ATOM     26  C3  H52 d           6.978   9.432   5.493  0.00  0.00     0.008 A 
ATOM     27  N2  H52 d           5.964  10.240   5.122  0.00  0.00    -0.272 NA
ATOM     28  H22 H52 d           7.073   9.150   6.535  0.00  0.00     0.115 H 
ATOM     29  C1  H52 d           5.856  10.639   3.878  0.00  0.00     0.013 A 
ATOM     30  H21 H52 d           5.066  11.332   3.614  0.00  0.00     0.116 H 
ATOM     31  C8  H52 d           6.531  10.635   1.531  0.00  0.00    -0.071 A 
ATOM     32  C7  H52 d           7.336  10.221   0.507  0.00  0.00    -0.081 A 
ATOM     33  H18 H52 d           5.713  11.317   1.325  0.00  0.00     0.084 H 
ATOM     34  C6  H52 d           8.395   9.316   0.762  0.00  0.00    -0.059 A 
ATOM     35  H19 H52 d           7.164  10.585  -0.499  0.00  0.00     0.083 H 
ATOM     36  H20 H52 d           9.000   8.959  -0.064  0.00  0.00     0.085 H 
BRANCH  24  37
ATOM     37  CM  H52 d           8.921   8.094   5.254  0.00  0.00    -0.049 C 
ATOM     38  H15 H52 d           8.603   7.883   6.286  0.00  0.00     0.033 H 
ATOM     39  H16 H52 d           9.888   8.619   5.269  0.00  0.00     0.033 H 
ATOM     40  H17 H52 d           9.026   7.149   4.702  0.00  0.00     0.033 H 
ENDBRANCH  24  37
ENDBRANCH  19  22
ENDBRANCH   1  19
BRANCH   2  41
ATOM     41  C2M H52 d          13.197   6.781   2.825  0.00  0.00    -0.055 C 
ATOM     42  H2  H52 d          14.133   6.617   3.379  0.00  0.00     0.030 H 
ATOM     43  H3  H52 d          13.428   7.168   1.823  0.00  0.00     0.030 H 
ATOM     44  H4  H52 d          12.654   5.829   2.735  0.00  0.00     0.030 H 
ENDBRANCH   2  41
TORSDOF 4
ENDMDL
MODEL 6
REMARK VINA RESULT:      -7.3      1.602      3.476
REMARK  4 active torsions:
REMARK  status: ('A' for Active; 'I' for Inactive)
REMARK    1  A    between atoms: S5_2  and  N21_4 
REMARK    2  A    between atoms: S5_2  and  C5_12 
REMARK    3  A    between atoms: C22_5  and  C2M_6 
REMARK    4  A    between atoms: C4_14  and  CM_15 
ROOT
ATOM      1  N21 H52 d          10.758   8.676   4.401  0.00  0.00    -0.301 N 
ATOM      2  C22 H52 d          12.108   8.641   3.701  0.00  0.00     0.042 C 
ATOM      3  C23 H52 d          12.412   7.392   2.864  0.00  0.00     0.100 C 
ATOM      4  N24 H52 d          11.457   7.372   1.687  0.00  0.00    -0.073 N 
ATOM      5  C25 H52 d          10.245   6.529   2.050  0.00  0.00     0.083 C 
ATOM      6  C26 H52 d           9.267   7.231   3.009  0.00  0.00    -0.027 C 
ATOM      7  C27 H52 d           9.900   7.462   4.375  0.00  0.00     0.007 C 
ATOM      8  H1  H52 d          12.073   9.474   2.983  0.00  0.00     0.075 H 
ATOM      9  H5  H52 d          12.269   6.488   3.475  0.00  0.00     0.078 H 
ATOM     10  H6  H52 d          13.450   7.429   2.502  0.00  0.00     0.078 H 
ATOM     11  H7  H52 d          11.918   6.974   0.884  0.00  0.00     0.277 HD
ATOM     12  H8  H52 d          11.163   8.312   1.474  0.00  0.00     0.277 HD
ATOM     13  H9  H52 d          10.598   5.603   2.528  0.00  0.00     0.075 H 
ATOM     14  H10 H52 d           9.706   6.280   1.124  0.00  0.00     0.075 H 
ATOM     15  H11 H52 d           8.372   6.603   3.130  0.00  0.00     0.037 H 
ATOM     16  H12 H52 d           8.979   8.202   2.579  0.00  0.00     0.037 H 
ATOM     17  H13 H52 d           9.099   7.579   5.121  0.00  0.00     0.065 H 
ATOM     18  H14 H52 d          10.516   6.588   4.633  0.00  0.00     0.065 H 
ENDROOT
BRANCH   1  19
ATOM     19  S5  H52 d          10.150  10.226   4.806  0.00  0.00     0.262 S 
ATOM     20  O1  H52 d          10.704  11.334   3.981  0.00  0.00    -0.200 OA
ATOM     21  O2  H52 d          10.320  10.309   6.262  0.00  0.00    -0.200 OA
BRANCH  19  22
ATOM     22  C5  H52 d           8.384  10.159   4.563  0.00  0.00     0.091 A 
ATOM     23  C10 H52 d           7.671  10.223   3.276  0.00  0.00     0.006 A 
ATOM     24  C4  H52 d           8.181  10.280   1.915  0.00  0.00    -0.032 A 
ATOM     25  C9  H52 d           6.246  10.242   3.342  0.00  0.00    -0.006 A 
ATOM     26  C3  H52 d           7.340  10.373   0.827  0.00  0.00     0.008 A 
ATOM     27  N2  H52 d           5.999  10.420   0.968  0.00  0.00    -0.272 NA
ATOM     28  H22 H52 d           7.767  10.408  -0.168  0.00  0.00     0.115 H 
ATOM     29  C1  H52 d           5.455  10.326   2.156  0.00  0.00     0.013 A 
ATOM     30  H21 H52 d           4.375  10.311   2.241  0.00  0.00     0.116 H 
ATOM     31  C8  H52 d           5.569  10.188   4.592  0.00  0.00    -0.071 A 
ATOM     32  C7  H52 d           6.266  10.131   5.766  0.00  0.00    -0.081 A 
ATOM     33  H18 H52 d           4.485  10.193   4.614  0.00  0.00     0.084 H 
ATOM     34  C6  H52 d           7.682  10.145   5.750  0.00  0.00    -0.059 A 
ATOM     35  H19 H52 d           5.735  10.076   6.710  0.00  0.00     0.083 H 
ATOM     36  H20 H52 d           8.225  10.144   6.689  0.00  0.00     0.085 H 
BRANCH  24  37
ATOM     37  CM  H52 d           9.615  10.231   1.483  0.00  0.00    -0.049 C 
ATOM     38  H15 H52 d           9.874   9.202   1.192  0.00  0.00     0.033 H 
ATOM     39  H16 H52 d          10.260  10.551   2.314  0.00  0.00     0.033 H 
ATOM     40  H17 H52 d           9.762  10.903   0.624  0.00  0.00     0.033 H 
ENDBRANCH  24  37
ENDBRANCH  19  22
ENDBRANCH   1  19
BRANCH   2  41
ATOM     41  C2M H52 d          13.281   8.930   4.622  0.00  0.00    -0.055 C 
ATOM     42  H2  H52 d          13.793   9.844   4.287  0.00  0.00     0.030 H 
ATOM     43  H3  H52 d          13.984   8.086   4.596  0.00  0.00     0.030 H 
ATOM     44  H4  H52 d          12.914   9.072   5.649  0.00  0.00     0.030 H 
ENDBRANCH   2  41
TORSDOF 4
ENDMDL
MODEL 7
REMARK VINA RESULT:      -6.9      2.062      6.377
REMARK  4 active torsions:
REMARK  status: ('A' for Active; 'I' for Inactive)
REMARK    1  A    between atoms: S5_2  and  N21_4 
REMARK    2  A    between atoms: S5_2  and  C5_12 
REMARK    3  A    between atoms: C22_5  and  C2M_6 
REMARK    4  A    between atoms: C4_14  and  CM_15 
ROOT
ATOM      1  N21 H52 d           7.038   9.808   3.757  0.00  0.00    -0.301 N 
ATOM      2  C22 H52 d           6.343   9.984   5.100  0.00  0.00     0.042 C 
ATOM      3  C23 H52 d           4.924  10.564   5.064  0.00  0.00     0.100 C 
ATOM      4  N24 H52 d           4.022   9.554   4.382  0.00  0.00    -0.073 N 
ATOM      5  C25 H52 d           3.929   9.895   2.903  0.00  0.00     0.083 C 
ATOM      6  C26 H52 d           5.188   9.518   2.102  0.00  0.00    -0.027 C 
ATOM      7  C27 H52 d           6.391  10.348   2.533  0.00  0.00     0.007 C 
ATOM      8  H1  H52 d           6.233   8.962   5.493  0.00  0.00     0.075 H 
ATOM      9  H5  H52 d           4.920  11.508   4.500  0.00  0.00     0.078 H 
ATOM     10  H6  H52 d           4.570  10.748   6.089  0.00  0.00     0.078 H 
ATOM     11  H7  H52 d           3.103   9.589   4.795  0.00  0.00     0.277 HD
ATOM     12  H8  H52 d           4.405   8.629   4.492  0.00  0.00     0.277 HD
ATOM     13  H9  H52 d           3.767  10.979   2.807  0.00  0.00     0.075 H 
ATOM     14  H10 H52 d           3.071   9.357   2.476  0.00  0.00     0.075 H 
ATOM     15  H11 H52 d           4.998   9.693   1.032  0.00  0.00     0.037 H 
ATOM     16  H12 H52 d           5.411   8.454   2.265  0.00  0.00     0.037 H 
ATOM     17  H13 H52 d           7.127  10.355   1.716  0.00  0.00     0.065 H 
ATOM     18  H14 H52 d           6.057  11.377   2.734  0.00  0.00     0.065 H 
ENDROOT
BRANCH   1  19
ATOM     19  S5  H52 d           8.298   8.648   3.698  0.00  0.00     0.262 S 
ATOM     20  O1  H52 d           8.172   7.666   2.588  0.00  0.00    -0.200 OA
ATOM     21  O2  H52 d           8.367   8.123   5.068  0.00  0.00    -0.200 OA
BRANCH  19  22
ATOM     22  C5  H52 d           9.818   9.559   3.489  0.00  0.00     0.091 A 
ATOM     23  C10 H52 d          10.416   9.988   2.214  0.00  0.00     0.006 A 
ATOM     24  C4  H52 d           9.925   9.864   0.850  0.00  0.00    -0.032 A 
ATOM     25  C9  H52 d          11.689  10.628   2.295  0.00  0.00    -0.006 A 
ATOM     26  C3  H52 d          10.660  10.305  -0.229  0.00  0.00     0.008 A 
ATOM     27  N2  H52 d          11.875  10.871  -0.079  0.00  0.00    -0.272 NA
ATOM     28  H22 H52 d          10.250  10.194  -1.227  0.00  0.00     0.115 H 
ATOM     29  C1  H52 d          12.370  11.065   1.119  0.00  0.00     0.013 A 
ATOM     30  H21 H52 d          13.323  11.571   1.220  0.00  0.00     0.116 H 
ATOM     31  C8  H52 d          12.324  10.840   3.551  0.00  0.00    -0.071 A 
ATOM     32  C7  H52 d          11.737  10.425   4.713  0.00  0.00    -0.081 A 
ATOM     33  H18 H52 d          13.286  11.338   3.586  0.00  0.00     0.084 H 
ATOM     34  C6  H52 d          10.490   9.755   4.677  0.00  0.00    -0.059 A 
ATOM     35  H19 H52 d          12.227  10.608   5.663  0.00  0.00     0.083 H 
ATOM     36  H20 H52 d          10.054   9.391   5.601  0.00  0.00     0.085 H 
BRANCH  24  37
ATOM     37  CM  H52 d           8.613   9.291   0.409  0.00  0.00    -0.049 C 
ATOM     38  H15 H52 d           8.195   8.669   1.215  0.00  0.00     0.033 H 
ATOM     39  H16 H52 d           8.764   8.675  -0.489  0.00  0.00     0.033 H 
ATOM     40  H17 H52 d           7.915  10.110   0.178  0.00  0.00     0.033 H 
ENDBRANCH  24  37
ENDBRANCH  19  22
ENDBRANCH   1  19
BRANCH   2  41
ATOM     41  C2M H52 d           7.173  10.739   6.122  0.00  0.00    -0.055 C 
ATOM     42  H2  H52 d           6.517  11.389   6.720  0.00  0.00     0.030 H 
ATOM     43  H3  H52 d           7.923  11.355   5.603  0.00  0.00     0.030 H 
ATOM     44  H4  H52 d           7.681  10.023   6.784  0.00  0.00     0.030 H 
ENDBRANCH   2  41
TORSDOF 4
ENDMDL
MODEL 8
REMARK VINA RESULT:      -6.7      2.126      2.896
REMARK  4 active torsions:
REMARK  status: ('A' for Active; 'I' for Inactive)
REMARK    1  A    between atoms: S5_2  and  N21_4 
REMARK    2  A    between atoms: S5_2  and  C5_12 
REMARK    3  A    between atoms: C22_5  and  C2M_6 
REMARK    4  A    between atoms: C4_14  and  CM_15 
ROOT
ATOM      1  N21 H52 d          11.542   8.796   3.171  0.00  0.00    -0.301 N 
ATOM      2  C22 H52 d          11.327  10.297   3.049  0.00  0.00     0.042 C 
ATOM      3  C23 H52 d          12.548  11.133   2.650  0.00  0.00     0.100 C 
ATOM      4  N24 H52 d          12.926  10.763   1.229  0.00  0.00    -0.073 N 
ATOM      5  C25 H52 d          13.992   9.681   1.269  0.00  0.00     0.083 C 
ATOM      6  C26 H52 d          13.447   8.288   1.634  0.00  0.00    -0.027 C 
ATOM      7  C27 H52 d          12.923   8.254   3.063  0.00  0.00     0.007 C 
ATOM      8  H1  H52 d          10.609  10.411   2.223  0.00  0.00     0.075 H 
ATOM      9  H5  H52 d          13.387  10.917   3.327  0.00  0.00     0.078 H 
ATOM     10  H6  H52 d          12.301  12.204   2.704  0.00  0.00     0.078 H 
ATOM     11  H7  H52 d          13.285  11.575   0.753  0.00  0.00     0.277 HD
ATOM     12  H8  H52 d          12.113  10.420   0.742  0.00  0.00     0.277 HD
ATOM     13  H9  H52 d          14.748   9.965   2.016  0.00  0.00     0.075 H 
ATOM     14  H10 H52 d          14.463   9.620   0.276  0.00  0.00     0.075 H 
ATOM     15  H11 H52 d          14.255   7.549   1.531  0.00  0.00     0.037 H 
ATOM     16  H12 H52 d          12.627   8.033   0.946  0.00  0.00     0.037 H 
ATOM     17  H13 H52 d          12.922   7.212   3.416  0.00  0.00     0.065 H 
ATOM     18  H14 H52 d          13.589   8.856   3.699  0.00  0.00     0.065 H 
ENDROOT
BRANCH   1  19
ATOM     19  S5  H52 d          10.150   7.810   3.005  0.00  0.00     0.262 S 
ATOM     20  O1  H52 d           9.600   7.310   4.294  0.00  0.00    -0.200 OA
ATOM     21  O2  H52 d          10.533   6.815   1.996  0.00  0.00    -0.200 OA
BRANCH  19  22
ATOM     22  C5  H52 d           8.911   8.811   2.201  0.00  0.00     0.091 A 
ATOM     23  C10 H52 d           7.726   9.415   2.832  0.00  0.00     0.006 A 
ATOM     24  C4  H52 d           7.298   9.429   4.222  0.00  0.00    -0.032 A 
ATOM     25  C9  H52 d           6.827  10.102   1.962  0.00  0.00    -0.006 A 
ATOM     26  C3  H52 d           6.121  10.028   4.614  0.00  0.00     0.008 A 
ATOM     27  N2  H52 d           5.301  10.630   3.728  0.00  0.00    -0.272 NA
ATOM     28  H22 H52 d           5.846  10.016   5.662  0.00  0.00     0.115 H 
ATOM     29  C1  H52 d           5.635  10.706   2.463  0.00  0.00     0.013 A 
ATOM     30  H21 H52 d           4.987  11.242   1.779  0.00  0.00     0.116 H 
ATOM     31  C8  H52 d           7.086  10.195   0.566  0.00  0.00    -0.071 A 
ATOM     32  C7  H52 d           8.197   9.619   0.017  0.00  0.00    -0.081 A 
ATOM     33  H18 H52 d           6.392  10.731  -0.072  0.00  0.00     0.084 H 
ATOM     34  C6  H52 d           9.099   8.899   0.838  0.00  0.00    -0.059 A 
ATOM     35  H19 H52 d           8.387   9.712  -1.045  0.00  0.00     0.083 H 
ATOM     36  H20 H52 d           9.954   8.408   0.386  0.00  0.00     0.085 H 
BRANCH  24  37
ATOM     37  CM  H52 d           8.023   8.850   5.398  0.00  0.00    -0.049 C 
ATOM     38  H15 H52 d           9.108   8.944   5.242  0.00  0.00     0.033 H 
ATOM     39  H16 H52 d           7.760   7.787   5.506  0.00  0.00     0.033 H 
ATOM     40  H17 H52 d           7.735   9.393   6.310  0.00  0.00     0.033 H 
ENDBRANCH  24  37
ENDBRANCH  19  22
ENDBRANCH   1  19
BRANCH   2  41
ATOM     41  C2M H52 d          10.664  10.918   4.267  0.00  0.00    -0.055 C 
ATOM     42  H2  H52 d           9.893  10.236   4.654  0.00  0.00     0.030 H 
ATOM     43  H3  H52 d          10.198  11.873   3.983  0.00  0.00     0.030 H 
ATOM     44  H4  H52 d          11.420  11.096   5.045  0.00  0.00     0.030 H 
ENDBRANCH   2  41
TORSDOF 4
ENDMDL
MODEL 9
REMARK VINA RESULT:      -6.3      2.248      3.557
REMARK  4 active torsions:
REMARK  status: ('A' for Active; 'I' for Inactive)
REMARK    1  A    between atoms: S5_2  and  N21_4 
REMARK    2  A    between atoms: S5_2  and  C5_12 
REMARK    3  A    between atoms: C22_5  and  C2M_6 
REMARK    4  A    between atoms: C4_14  and  CM_15 
ROOT
ATOM      1  N21 H52 d          12.177   8.971   2.540  0.00  0.00    -0.301 N 
ATOM      2  C22 H52 d          13.020   7.800   3.026  0.00  0.00     0.042 C 
ATOM      3  C23 H52 d          13.994   8.089   4.175  0.00  0.00     0.100 C 
ATOM      4  N24 H52 d          13.178   8.413   5.411  0.00  0.00    -0.073 N 
ATOM      5  C25 H52 d          13.008   9.920   5.509  0.00  0.00     0.083 C 
ATOM      6  C26 H52 d          11.983  10.492   4.513  0.00  0.00    -0.027 C 
ATOM      7  C27 H52 d          12.455  10.330   3.074  0.00  0.00     0.007 C 
ATOM      8  H1  H52 d          12.292   7.081   3.432  0.00  0.00     0.075 H 
ATOM      9  H5  H52 d          14.634   8.945   3.916  0.00  0.00     0.078 H 
ATOM     10  H6  H52 d          14.622   7.205   4.363  0.00  0.00     0.078 H 
ATOM     11  H7  H52 d          13.657   8.072   6.230  0.00  0.00     0.277 HD
ATOM     12  H8  H52 d          12.274   7.974   5.344  0.00  0.00     0.277 HD
ATOM     13  H9  H52 d          13.982  10.392   5.315  0.00  0.00     0.075 H 
ATOM     14  H10 H52 d          12.678  10.167   6.528  0.00  0.00     0.075 H 
ATOM     15  H11 H52 d          11.838  11.563   4.724  0.00  0.00     0.037 H 
ATOM     16  H12 H52 d          11.027   9.961   4.639  0.00  0.00     0.037 H 
ATOM     17  H13 H52 d          11.937  11.070   2.446  0.00  0.00     0.065 H 
ATOM     18  H14 H52 d          13.539  10.511   3.035  0.00  0.00     0.065 H 
ENDROOT
BRANCH   1  19
ATOM     19  S5  H52 d          10.715   8.576   1.739  0.00  0.00     0.262 S 
ATOM     20  O1  H52 d          10.666   7.188   1.206  0.00  0.00    -0.200 OA
ATOM     21  O2  H52 d          10.518   9.678   0.789  0.00  0.00    -0.200 OA
BRANCH  19  22
ATOM     22  C5  H52 d           9.408   8.778   2.937  0.00  0.00     0.091 A 
ATOM     23  C10 H52 d           8.103   9.421   2.712  0.00  0.00     0.006 A 
ATOM     24  C4  H52 d           7.517   9.972   1.501  0.00  0.00    -0.032 A 
ATOM     25  C9  H52 d           7.254   9.544   3.853  0.00  0.00    -0.006 A 
ATOM     26  C3  H52 d           6.276  10.571   1.502  0.00  0.00     0.008 A 
ATOM     27  N2  H52 d           5.542  10.684   2.628  0.00  0.00    -0.272 NA
ATOM     28  H22 H52 d           5.879  10.964   0.573  0.00  0.00     0.115 H 
ATOM     29  C1  H52 d           5.975  10.171   3.754  0.00  0.00     0.013 A 
ATOM     30  H21 H52 d           5.345  10.225   4.634  0.00  0.00     0.116 H 
ATOM     31  C8  H52 d           7.661   9.057   5.126  0.00  0.00    -0.071 A 
ATOM     32  C7  H52 d           8.882   8.468   5.295  0.00  0.00    -0.081 A 
ATOM     33  H18 H52 d           6.993   9.154   5.974  0.00  0.00     0.084 H 
ATOM     34  C6  H52 d           9.771   8.354   4.198  0.00  0.00    -0.059 A 
ATOM     35  H19 H52 d           9.171   8.088   6.268  0.00  0.00     0.083 H 
ATOM     36  H20 H52 d          10.755   7.925   4.353  0.00  0.00     0.085 H 
BRANCH  24  37
ATOM     37  CM  H52 d           8.109   9.966   0.125  0.00  0.00    -0.049 C 
ATOM     38  H15 H52 d           8.705  10.879  -0.022  0.00  0.00     0.033 H 
ATOM     39  H16 H52 d           7.303   9.930  -0.622  0.00  0.00     0.033 H 
ATOM     40  H17 H52 d           8.756   9.084   0.008  0.00  0.00     0.033 H 
ENDBRANCH  24  37
ENDBRANCH  19  22
ENDBRANCH   1  19
BRANCH   2  41
ATOM     41  C2M H52 d          13.752   7.072   1.913  0.00  0.00    -0.055 C 
ATOM     42  H2  H52 d          14.607   7.677   1.579  0.00  0.00     0.030 H 
ATOM     43  H3  H52 d          13.066   6.909   1.068  0.00  0.00     0.030 H 
ATOM     44  H4  H52 d          14.113   6.102   2.284  0.00  0.00     0.030 H 
ENDBRANCH   2  41
TORSDOF 4
ENDMDL
MODEL 10
REMARK VINA RESULT:      -6.2      2.189      3.461
REMARK  4 active torsions:
REMARK  status: ('A' for Active; 'I' for Inactive)
REMARK    1  A    between atoms: S5_2  and  N21_4 
REMARK    2  A    between atoms: S5_2  and  C5_12 
REMARK    3  A    between atoms: C22_5  and  C2M_6 
REMARK    4  A    between atoms: C4_14  and  CM_15 
ROOT
ATOM      1  N21 H52 d          11.247   8.737   3.494  0.00  0.00    -0.301 N 
ATOM      2  C22 H52 d          12.586   8.173   3.041  0.00  0.00     0.042 C 
ATOM      3  C23 H52 d          13.839   8.898   3.544  0.00  0.00     0.100 C 
ATOM      4  N24 H52 d          13.920   8.709   5.046  0.00  0.00    -0.073 N 
ATOM      5  C25 H52 d          13.262   9.897   5.729  0.00  0.00     0.083 C 
ATOM      6  C26 H52 d          11.724   9.871   5.669  0.00  0.00    -0.027 C 
ATOM      7  C27 H52 d          11.221  10.023   4.240  0.00  0.00     0.007 C 
ATOM      8  H1  H52 d          12.630   7.167   3.485  0.00  0.00     0.075 H 
ATOM      9  H5  H52 d          13.771   9.971   3.307  0.00  0.00     0.078 H 
ATOM     10  H6  H52 d          14.734   8.474   3.065  0.00  0.00     0.078 H 
ATOM     11  H7  H52 d          14.886   8.649   5.328  0.00  0.00     0.277 HD
ATOM     12  H8  H52 d          13.441   7.861   5.306  0.00  0.00     0.277 HD
ATOM     13  H9  H52 d          13.613  10.817   5.240  0.00  0.00     0.075 H 
ATOM     14  H10 H52 d          13.569   9.904   6.785  0.00  0.00     0.075 H 
ATOM     15  H11 H52 d          11.328  10.698   6.278  0.00  0.00     0.037 H 
ATOM     16  H12 H52 d          11.366   8.913   6.075  0.00  0.00     0.037 H 
ATOM     17  H13 H52 d          10.186  10.396   4.266  0.00  0.00     0.065 H 
ATOM     18  H14 H52 d          11.859  10.749   3.715  0.00  0.00     0.065 H 
ENDROOT
BRANCH   1  19
ATOM     19  S5  H52 d           9.919   7.654   3.478  0.00  0.00     0.262 S 
ATOM     20  O1  H52 d           9.949   6.634   4.561  0.00  0.00    -0.200 OA
ATOM     21  O2  H52 d           9.866   7.173   2.091  0.00  0.00    -0.200 OA
BRANCH  19  22
ATOM     22  C5  H52 d           8.450   8.648   3.665  0.00  0.00     0.091 A 
ATOM     23  C10 H52 d           7.821   9.489   2.633  0.00  0.00     0.006 A 
ATOM     24  C4  H52 d           8.158   9.674   1.230  0.00  0.00    -0.032 A 
ATOM     25  C9  H52 d           6.698  10.266   3.048  0.00  0.00    -0.006 A 
ATOM     26  C3  H52 d           7.458  10.545   0.424  0.00  0.00     0.008 A 
ATOM     27  N2  H52 d           6.426  11.276   0.894  0.00  0.00    -0.272 NA
ATOM     28  H22 H52 d           7.744  10.647  -0.617  0.00  0.00     0.115 H 
ATOM     29  C1  H52 d           6.026  11.134   2.135  0.00  0.00     0.013 A 
ATOM     30  H21 H52 d           5.161  11.690   2.476  0.00  0.00     0.116 H 
ATOM     31  C8  H52 d           6.222  10.210   4.387  0.00  0.00    -0.071 A 
ATOM     32  C7  H52 d           6.835   9.419   5.318  0.00  0.00    -0.081 A 
ATOM     33  H18 H52 d           5.361  10.802   4.674  0.00  0.00     0.084 H 
ATOM     34  C6  H52 d           7.973   8.655   4.959  0.00  0.00    -0.059 A 
ATOM     35  H19 H52 d           6.450   9.375   6.330  0.00  0.00     0.083 H 
ATOM     36  H20 H52 d           8.477   8.065   5.716  0.00  0.00     0.085 H 
BRANCH  24  37
ATOM     37  CM  H52 d           9.240   8.981   0.460  0.00  0.00    -0.049 C 
ATOM     38  H15 H52 d           8.796   8.437  -0.387  0.00  0.00     0.033 H 
ATOM     39  H16 H52 d           9.763   8.272   1.118  0.00  0.00     0.033 H 
ATOM     40  H17 H52 d           9.956   9.726   0.083  0.00  0.00     0.033 H 
ENDBRANCH  24  37
ENDBRANCH  19  22
ENDBRANCH   1  19
BRANCH   2  41
ATOM     41  C2M H52 d          12.686   7.972   1.539  0.00  0.00    -0.055 C 
ATOM     42  H2  H52 d          12.754   8.950   1.041  0.00  0.00     0.030 H 
ATOM     43  H3  H52 d          11.793   7.440   1.180  0.00  0.00     0.030 H 
ATOM     44  H4  H52 d          13.584   7.380   1.307  0.00  0.00     0.030 H 
ENDBRANCH   2  41
TORSDOF 4
ENDMDL
