MODEL 1
REMARK VINA RESULT:     -11.7      0.000      0.000
REMARK  3 active torsions:
REMARK  status: ('A' for Active; 'I' for Inactive)
REMARK    1  A    between atoms: C14_16  and  N2_2 
REMARK    2  A    between atoms: C8_10  and  C18_20 
REMARK    3  A    between atoms: C18_20  and  C10_12 
ROOT
ATOM      1  N1  HUX d           5.544  69.769  65.232  0.00  0.00    -0.252 NA
ATOM      2  C1  HUX d           6.208  70.792  68.739  0.00  0.00     0.036 A 
ATOM      3  C2  HUX d           6.388  70.503  67.294  0.00  0.00    -0.033 A 
ATOM      4  C3  HUX d           5.259  70.058  66.634  0.00  0.00     0.071 A 
ATOM      5  C4  HUX d           4.528  69.284  64.487  0.00  0.00     0.044 A 
ATOM      6  C5  HUX d           4.957  68.973  62.952  0.00  0.00    -0.018 C 
ATOM      7  C6  HUX d           4.008  67.968  62.278  0.00  0.00    -0.032 C 
ATOM      8  C7  HUX d           4.027  66.458  62.998  0.00  0.00    -0.096 C 
ATOM      9  C8  HUX d           3.194  66.004  63.937  0.00  0.00    -0.083 C 
ATOM     10  C9  HUX d           2.104  66.955  64.378  0.00  0.00    -0.037 C 
ATOM     11  C11 HUX d           2.197  68.414  63.956  0.00  0.00    -0.020 C 
ATOM     12  C12 HUX d           2.584  68.468  62.414  0.00  0.00    -0.051 C 
ATOM     13  C13 HUX d           3.235  69.021  64.906  0.00  0.00    -0.002 A 
ATOM     14  C14 HUX d           2.947  69.341  66.346  0.00  0.00     0.047 A 
ATOM     15  C15 HUX d           4.001  69.847  67.145  0.00  0.00     0.019 A 
ATOM     16  C16 HUX d           3.775  70.162  68.603  0.00  0.00    -0.067 A 
ATOM     17  C17 HUX d           4.830  70.597  69.316  0.00  0.00    -0.061 A 
ATOM     18 CL1  HUX d           7.450  71.274  69.736  0.00  0.00    -0.084 Cl
ATOM     19  H3  HUX d           7.340  70.633  66.791  0.00  0.00     0.089 H 
ATOM     20  H4  HUX d           5.976  68.557  62.946  0.00  0.00     0.043 H 
ATOM     21  H5  HUX d           4.941  69.913  62.382  0.00  0.00     0.043 H 
ATOM     22  H6  HUX d           4.283  67.873  61.217  0.00  0.00     0.046 H 
ATOM     23  H7  HUX d           4.804  65.771  62.665  0.00  0.00     0.077 H 
ATOM     24  H8  HUX d           2.083  66.936  65.478  0.00  0.00     0.040 H 
ATOM     25  H9  HUX d           1.154  66.563  63.986  0.00  0.00     0.040 H 
ATOM     26  H13 HUX d           1.231  68.924  64.094  0.00  0.00     0.048 H 
ATOM     27  H14 HUX d           1.905  67.826  61.834  0.00  0.00     0.035 H 
ATOM     28  H15 HUX d           2.515  69.503  62.046  0.00  0.00     0.035 H 
ATOM     29  H16 HUX d           2.799  70.043  69.059  0.00  0.00     0.085 H 
ATOM     30  H17 HUX d           4.679  70.820  70.366  0.00  0.00     0.086 H 
ENDROOT
BRANCH   9  31
ATOM     31  C18 HUX d           3.412  64.547  64.503  0.00  0.00    -0.048 C 
ATOM     32  H18 HUX d           2.568  63.939  64.143  0.00  0.00     0.039 H 
ATOM     33  H19 HUX d           3.366  64.624  65.599  0.00  0.00     0.039 H 
BRANCH  31  34
ATOM     34  C10 HUX d           4.699  63.758  64.169  0.00  0.00    -0.073 C 
ATOM     35  H10 HUX d           5.566  64.265  64.616  0.00  0.00     0.028 H 
ATOM     36  H11 HUX d           4.825  63.707  63.077  0.00  0.00     0.028 H 
ATOM     37  H12 HUX d           4.620  62.739  64.577  0.00  0.00     0.028 H 
ENDBRANCH  31  34
ENDBRANCH   9  31
BRANCH  14  38
ATOM     38  N2  HUX d           1.667  69.085  66.804  0.00  0.00    -0.398 N 
ATOM     39  H1  HUX d           0.866  69.160  66.162  0.00  0.00     0.156 HD
ATOM     40  H2  HUX d           1.516  68.819  67.788  0.00  0.00     0.156 HD
ENDBRANCH  14  38
TORSDOF 3
ENDMDL
