MODEL 1
REMARK VINA RESULT:     -10.3      0.000      0.000
REMARK  15 active torsions:
REMARK  status: ('A' for Active; 'I' for Inactive)
REMARK    1  A    between atoms: C10_11  and  N17_7 
REMARK    2  A    between atoms: N17_7  and  C24_8 
REMARK    3  A    between atoms: C24_8  and  C63_13 
REMARK    4  A    between atoms: C63_13  and  C64_28 
REMARK    5  A    between atoms: N40_26  and  C37_23 
REMARK    6  A    between atoms: C41_27  and  N40_26 
REMARK    7  A    between atoms: C72_36  and  C41_27 
REMARK    8  A    between atoms: C64_28  and  C65_29 
REMARK    9  A    between atoms: C65_29  and  C66_30 
REMARK   10  A    between atoms: C66_30  and  C67_31 
REMARK   11  A    between atoms: C67_31  and  C68_32 
REMARK   12  A    between atoms: C68_32  and  C69_33 
REMARK   13  A    between atoms: C69_33  and  C70_34 
REMARK   14  A    between atoms: C70_34  and  C71_35 
REMARK   15  A    between atoms: C71_35  and  C72_36 
ROOT
ATOM      1  C67 E12 d           3.354  62.532  69.234  0.00  0.00    -0.065 C 
ATOM      2  H37 E12 d           3.076  63.163  68.376  0.00  0.00     0.033 H 
ATOM      3  H38 E12 d           3.942  61.672  68.881  0.00  0.00     0.033 H 
ENDROOT
BRANCH   1   4
ATOM      4  C66 E12 d           2.089  62.016  69.882  0.00  0.00    -0.065 C 
ATOM      5  H35 E12 d           1.466  61.525  69.119  0.00  0.00     0.033 H 
ATOM      6  H36 E12 d           2.354  61.288  70.662  0.00  0.00     0.033 H 
BRANCH   4   7
ATOM      7  C65 E12 d           1.308  63.146  70.505  0.00  0.00    -0.065 C 
ATOM      8  H33 E12 d           2.015  63.885  70.912  0.00  0.00     0.033 H 
ATOM      9  H34 E12 d           0.687  63.619  69.731  0.00  0.00     0.033 H 
BRANCH   7  10
ATOM     10  C64 E12 d           0.406  62.658  71.630  0.00  0.00    -0.064 C 
ATOM     11  H31 E12 d          -0.573  62.375  71.214  0.00  0.00     0.033 H 
ATOM     12  H32 E12 d           0.866  61.782  72.110  0.00  0.00     0.033 H 
BRANCH  10  13
ATOM     13  C63 E12 d           0.216  63.747  72.657  0.00  0.00    -0.043 C 
ATOM     14  H15 E12 d           0.935  64.557  72.461  0.00  0.00     0.035 H 
ATOM     15  H16 E12 d          -0.808  64.140  72.580  0.00  0.00     0.035 H 
BRANCH  13  16
ATOM     16  C24 E12 d           0.443  63.210  74.083  0.00  0.00     0.083 C 
ATOM     17  H7  E12 d           0.434  64.032  74.813  0.00  0.00     0.075 H 
ATOM     18  H8  E12 d          -0.333  62.476  74.348  0.00  0.00     0.075 H 
BRANCH  16  19
ATOM     19  N17 E12 d           1.826  62.543  74.034  0.00  0.00    -0.067 N 
ATOM     20  H5  E12 d           2.133  62.594  73.076  0.00  0.00     0.277 HD
ATOM     21  H6  E12 d           2.433  63.103  74.612  0.00  0.00     0.277 HD
BRANCH  19  22
ATOM     22  C10 E12 d           2.025  61.110  74.469  0.00  0.00     0.129 C 
ATOM     23  C4  E12 d           2.589  60.273  73.301  0.00  0.00    -0.005 A 
ATOM     24  C3  E12 d           1.937  59.146  72.834  0.00  0.00     0.020 A 
ATOM     25  C5  E12 d           3.916  60.594  72.700  0.00  0.00    -0.068 A 
ATOM     26  N2  E12 d           2.492  58.408  71.827  0.00  0.00    -0.327 N 
ATOM     27  C9  E12 d           0.591  58.660  73.388  0.00  0.00    -0.026 C 
ATOM     28  C1  E12 d           3.704  58.624  71.192  0.00  0.00     0.245 A 
ATOM     29  H1  E12 d           1.961  57.621  71.511  0.00  0.00     0.169 HD
ATOM     30  C6  E12 d           4.464  59.831  71.694  0.00  0.00    -0.017 A 
ATOM     31  O7  E12 d           4.080  57.883  70.262  0.00  0.00    -0.268 OA
ATOM     32  H9  E12 d           5.430  60.093  71.265  0.00  0.00     0.092 H 
ATOM     33  C14 E12 d          -0.191  59.814  74.040  0.00  0.00    -0.058 C 
ATOM     34  H10 E12 d           0.774  57.879  74.140  0.00  0.00     0.042 H 
ATOM     35  H11 E12 d          -0.006  58.242  72.564  0.00  0.00     0.042 H 
ATOM     36  C13 E12 d           0.704  60.566  75.078  0.00  0.00    -0.034 C 
ATOM     37  H3  E12 d          -0.512  60.520  73.260  0.00  0.00     0.033 H 
ATOM     38  H4  E12 d          -1.075  59.408  74.553  0.00  0.00     0.033 H 
ATOM     39  H13 E12 d           0.131  61.414  75.484  0.00  0.00     0.036 H 
ATOM     40  H14 E12 d           0.956  59.871  75.892  0.00  0.00     0.036 H 
ATOM     41  H2  E12 d           4.468  61.458  73.068  0.00  0.00     0.084 H 
ATOM     42  H12 E12 d           2.780  61.099  75.269  0.00  0.00     0.092 H 
ENDBRANCH  19  22
ENDBRANCH  16  19
ENDBRANCH  13  16
ENDBRANCH  10  13
ENDBRANCH   7  10
ENDBRANCH   4   7
ENDBRANCH   1   4
BRANCH   1  43
ATOM     43  C68 E12 d           4.211  63.350  70.176  0.00  0.00    -0.065 C 
ATOM     44  H39 E12 d           5.056  62.728  70.506  0.00  0.00     0.033 H 
ATOM     45  H40 E12 d           3.601  63.632  71.047  0.00  0.00     0.033 H 
BRANCH  43  46
ATOM     46  C69 E12 d           4.764  64.617  69.546  0.00  0.00    -0.065 C 
ATOM     47  H41 E12 d           4.693  64.537  68.451  0.00  0.00     0.033 H 
ATOM     48  H42 E12 d           5.818  64.735  69.836  0.00  0.00     0.033 H 
BRANCH  46  49
ATOM     49  C70 E12 d           3.982  65.835  70.008  0.00  0.00    -0.065 C 
ATOM     50  H43 E12 d           4.676  66.686  70.079  0.00  0.00     0.033 H 
ATOM     51  H44 E12 d           3.560  65.620  71.001  0.00  0.00     0.033 H 
BRANCH  49  52
ATOM     52  C71 E12 d           2.839  66.224  69.075  0.00  0.00    -0.064 C 
ATOM     53  H45 E12 d           1.942  65.657  69.366  0.00  0.00     0.033 H 
ATOM     54  H46 E12 d           3.122  65.958  68.045  0.00  0.00     0.033 H 
BRANCH  52  55
ATOM     55  C72 E12 d           2.503  67.727  69.116  0.00  0.00    -0.043 C 
ATOM     56  H47 E12 d           3.283  68.244  69.693  0.00  0.00     0.035 H 
ATOM     57  H48 E12 d           1.532  67.854  69.617  0.00  0.00     0.035 H 
BRANCH  55  58
ATOM     58  C41 E12 d           2.421  68.366  67.725  0.00  0.00     0.083 C 
ATOM     59  H29 E12 d           2.482  69.461  67.806  0.00  0.00     0.075 H 
ATOM     60  H30 E12 d           1.479  68.086  67.233  0.00  0.00     0.075 H 
BRANCH  58  61
ATOM     61  N40 E12 d           3.578  67.844  66.955  0.00  0.00    -0.067 N 
ATOM     62  H27 E12 d           3.806  66.942  67.342  0.00  0.00     0.277 HD
ATOM     63  H28 E12 d           4.345  68.480  67.109  0.00  0.00     0.277 HD
BRANCH  61  64
ATOM     64  C37 E12 d           3.448  67.661  65.455  0.00  0.00     0.129 C 
ATOM     65  C38 E12 d           4.189  68.834  64.779  0.00  0.00    -0.034 C 
ATOM     66  C39 E12 d           4.264  68.629  63.262  0.00  0.00    -0.058 C 
ATOM     67  H23 E12 d           5.210  68.897  65.185  0.00  0.00     0.036 H 
ATOM     68  H24 E12 d           3.652  69.770  64.990  0.00  0.00     0.036 H 
ATOM     69  C36 E12 d           5.075  67.361  62.936  0.00  0.00    -0.026 C 
ATOM     70  H25 E12 d           3.246  68.524  62.859  0.00  0.00     0.033 H 
ATOM     71  H26 E12 d           4.753  69.501  62.801  0.00  0.00     0.033 H 
ATOM     72  C31 E12 d           4.568  66.156  63.756  0.00  0.00     0.020 A 
ATOM     73  H20 E12 d           4.974  67.135  61.864  0.00  0.00     0.042 H 
ATOM     74  H21 E12 d           6.134  67.539  63.174  0.00  0.00     0.042 H 
ATOM     75  C32 E12 d           3.833  66.279  64.935  0.00  0.00    -0.005 A 
ATOM     76  N30 E12 d           4.869  64.910  63.290  0.00  0.00    -0.327 N 
ATOM     77  C33 E12 d           3.411  65.038  65.632  0.00  0.00    -0.068 A 
ATOM     78  C34 E12 d           3.719  63.801  65.151  0.00  0.00    -0.017 A 
ATOM     79  H18 E12 d           2.838  65.119  66.555  0.00  0.00     0.084 H 
ATOM     80  C29 E12 d           4.501  63.695  63.858  0.00  0.00     0.245 A 
ATOM     81  H19 E12 d           3.409  62.905  65.687  0.00  0.00     0.092 H 
ATOM     82  O35 E12 d           4.740  62.633  63.267  0.00  0.00    -0.268 OA
ATOM     83  H17 E12 d           5.413  64.866  62.451  0.00  0.00     0.169 HD
ATOM     84  H22 E12 d           2.382  67.776  65.213  0.00  0.00     0.092 H 
ENDBRANCH  61  64
ENDBRANCH  58  61
ENDBRANCH  55  58
ENDBRANCH  52  55
ENDBRANCH  49  52
ENDBRANCH  46  49
ENDBRANCH  43  46
ENDBRANCH   1  43
TORSDOF 15
ENDMDL
MODEL 2
REMARK VINA RESULT:     -10.0      1.845      9.613
REMARK  15 active torsions:
REMARK  status: ('A' for Active; 'I' for Inactive)
REMARK    1  A    between atoms: C10_11  and  N17_7 
REMARK    2  A    between atoms: N17_7  and  C24_8 
REMARK    3  A    between atoms: C24_8  and  C63_13 
REMARK    4  A    between atoms: C63_13  and  C64_28 
REMARK    5  A    between atoms: N40_26  and  C37_23 
REMARK    6  A    between atoms: C41_27  and  N40_26 
REMARK    7  A    between atoms: C72_36  and  C41_27 
REMARK    8  A    between atoms: C64_28  and  C65_29 
REMARK    9  A    between atoms: C65_29  and  C66_30 
REMARK   10  A    between atoms: C66_30  and  C67_31 
REMARK   11  A    between atoms: C67_31  and  C68_32 
REMARK   12  A    between atoms: C68_32  and  C69_33 
REMARK   13  A    between atoms: C69_33  and  C70_34 
REMARK   14  A    between atoms: C70_34  and  C71_35 
REMARK   15  A    between atoms: C71_35  and  C72_36 
ROOT
ATOM      1  C67 E12 d           5.258  65.032  69.104  0.00  0.00    -0.065 C 
ATOM      2  H37 E12 d           6.076  65.751  69.261  0.00  0.00     0.033 H 
ATOM      3  H38 E12 d           5.541  64.321  68.315  0.00  0.00     0.033 H 
ENDROOT
BRANCH   1   4
ATOM      4  C66 E12 d           4.030  65.790  68.652  0.00  0.00    -0.065 C 
ATOM      5  H35 E12 d           4.331  66.576  67.943  0.00  0.00     0.033 H 
ATOM      6  H36 E12 d           3.339  65.093  68.155  0.00  0.00     0.033 H 
BRANCH   4   7
ATOM      7  C65 E12 d           3.331  66.426  69.827  0.00  0.00    -0.065 C 
ATOM      8  H33 E12 d           3.001  65.635  70.517  0.00  0.00     0.033 H 
ATOM      9  H34 E12 d           4.039  67.092  70.344  0.00  0.00     0.033 H 
BRANCH   7  10
ATOM     10  C64 E12 d           2.119  67.238  69.393  0.00  0.00    -0.064 C 
ATOM     11  H31 E12 d           1.397  66.575  68.894  0.00  0.00     0.033 H 
ATOM     12  H32 E12 d           1.650  67.691  70.278  0.00  0.00     0.033 H 
BRANCH  10  13
ATOM     13  C63 E12 d           2.537  68.330  68.437  0.00  0.00    -0.043 C 
ATOM     14  H15 E12 d           2.267  69.306  68.865  0.00  0.00     0.035 H 
ATOM     15  H16 E12 d           3.626  68.282  68.291  0.00  0.00     0.035 H 
BRANCH  13  16
ATOM     16  C24 E12 d           1.839  68.168  67.074  0.00  0.00     0.083 C 
ATOM     17  H7  E12 d           1.156  67.306  67.088  0.00  0.00     0.075 H 
ATOM     18  H8  E12 d           1.277  69.078  66.815  0.00  0.00     0.075 H 
BRANCH  16  19
ATOM     19  N17 E12 d           2.983  67.936  66.074  0.00  0.00    -0.067 N 
ATOM     20  H5  E12 d           3.478  68.810  66.000  0.00  0.00     0.277 HD
ATOM     21  H6  E12 d           3.586  67.242  66.488  0.00  0.00     0.277 HD
BRANCH  19  22
ATOM     22  C10 E12 d           2.712  67.478  64.661  0.00  0.00     0.129 C 
ATOM     23  C4  E12 d           3.400  66.121  64.400  0.00  0.00    -0.005 A 
ATOM     24  C3  E12 d           4.311  65.955  63.373  0.00  0.00     0.020 A 
ATOM     25  C5  E12 d           3.026  64.910  65.187  0.00  0.00    -0.068 A 
ATOM     26  N2  E12 d           4.865  64.725  63.148  0.00  0.00    -0.327 N 
ATOM     27  C9  E12 d           4.755  67.093  62.446  0.00  0.00    -0.026 C 
ATOM     28  C1  E12 d           4.602  63.545  63.824  0.00  0.00     0.245 A 
ATOM     29  H1  E12 d           5.539  64.672  62.411  0.00  0.00     0.169 HD
ATOM     30  C6  E12 d           3.587  63.678  64.937  0.00  0.00    -0.017 A 
ATOM     31  O7  E12 d           5.204  62.493  63.532  0.00  0.00    -0.268 OA
ATOM     32  H9  E12 d           3.305  62.811  65.534  0.00  0.00     0.092 H 
ATOM     33  C14 E12 d           4.561  68.465  63.118  0.00  0.00    -0.058 C 
ATOM     34  H10 E12 d           4.158  67.058  61.523  0.00  0.00     0.042 H 
ATOM     35  H11 E12 d           5.818  66.961  62.199  0.00  0.00     0.042 H 
ATOM     36  C13 E12 d           3.105  68.606  63.668  0.00  0.00    -0.034 C 
ATOM     37  H3  E12 d           5.274  68.563  63.950  0.00  0.00     0.033 H 
ATOM     38  H4  E12 d           4.748  69.258  62.380  0.00  0.00     0.033 H 
ATOM     39  H13 E12 d           3.019  69.573  64.185  0.00  0.00     0.036 H 
ATOM     40  H14 E12 d           2.407  68.582  62.819  0.00  0.00     0.036 H 
ATOM     41  H2  E12 d           2.289  65.003  65.982  0.00  0.00     0.084 H 
ATOM     42  H12 E12 d           1.629  67.316  64.556  0.00  0.00     0.092 H 
ENDBRANCH  19  22
ENDBRANCH  16  19
ENDBRANCH  13  16
ENDBRANCH  10  13
ENDBRANCH   7  10
ENDBRANCH   4   7
ENDBRANCH   1   4
BRANCH   1  43
ATOM     43  C68 E12 d           5.039  64.264  70.390  0.00  0.00    -0.065 C 
ATOM     44  H39 E12 d           4.341  64.833  71.022  0.00  0.00     0.033 H 
ATOM     45  H40 E12 d           6.005  64.166  70.907  0.00  0.00     0.033 H 
BRANCH  43  46
ATOM     46  C69 E12 d           4.467  62.873  70.174  0.00  0.00    -0.065 C 
ATOM     47  H41 E12 d           4.950  62.416  69.298  0.00  0.00     0.033 H 
ATOM     48  H42 E12 d           3.384  62.952  69.996  0.00  0.00     0.033 H 
BRANCH  46  49
ATOM     49  C70 E12 d           4.708  61.995  71.390  0.00  0.00    -0.065 C 
ATOM     50  H43 E12 d           3.773  61.939  71.968  0.00  0.00     0.033 H 
ATOM     51  H44 E12 d           5.493  62.462  72.005  0.00  0.00     0.033 H 
BRANCH  49  52
ATOM     52  C71 E12 d           5.147  60.574  71.048  0.00  0.00    -0.064 C 
ATOM     53  H45 E12 d           6.218  60.474  71.281  0.00  0.00     0.033 H 
ATOM     54  H46 E12 d           4.989  60.409  69.972  0.00  0.00     0.033 H 
BRANCH  52  55
ATOM     55  C72 E12 d           4.374  59.493  71.826  0.00  0.00    -0.043 C 
ATOM     56  H47 E12 d           5.069  58.995  72.517  0.00  0.00     0.035 H 
ATOM     57  H48 E12 d           3.982  58.758  71.107  0.00  0.00     0.035 H 
BRANCH  55  58
ATOM     58  C41 E12 d           3.200  60.056  72.637  0.00  0.00     0.083 C 
ATOM     59  H29 E12 d           3.271  61.151  72.698  0.00  0.00     0.075 H 
ATOM     60  H30 E12 d           3.201  59.631  73.651  0.00  0.00     0.075 H 
BRANCH  58  61
ATOM     61  N40 E12 d           1.964  59.660  71.916  0.00  0.00    -0.067 N 
ATOM     62  H27 E12 d           1.877  58.661  72.008  0.00  0.00     0.277 HD
ATOM     63  H28 E12 d           2.101  59.898  70.946  0.00  0.00     0.277 HD
BRANCH  61  64
ATOM     64  C37 E12 d           0.637  60.261  72.336  0.00  0.00     0.129 C 
ATOM     65  C38 E12 d           0.342  59.778  73.772  0.00  0.00    -0.034 C 
ATOM     66  C39 E12 d          -0.892  60.485  74.342  0.00  0.00    -0.058 C 
ATOM     67  H23 E12 d           1.211  59.998  74.411  0.00  0.00     0.036 H 
ATOM     68  H24 E12 d           0.162  58.693  73.758  0.00  0.00     0.036 H 
ATOM     69  C36 E12 d          -0.640  62.001  74.440  0.00  0.00    -0.026 C 
ATOM     70  H25 E12 d          -1.753  60.302  73.682  0.00  0.00     0.033 H 
ATOM     71  H26 E12 d          -1.107  60.087  75.345  0.00  0.00     0.033 H 
ATOM     72  C31 E12 d          -0.098  62.557  73.105  0.00  0.00     0.020 A 
ATOM     73  H20 E12 d          -1.584  62.509  74.684  0.00  0.00     0.042 H 
ATOM     74  H21 E12 d           0.096  62.193  75.234  0.00  0.00     0.042 H 
ATOM     75  C32 E12 d           0.514  61.769  72.132  0.00  0.00    -0.005 A 
ATOM     76  N30 E12 d          -0.230  63.897  72.886  0.00  0.00    -0.327 N 
ATOM     77  C33 E12 d           0.997  62.430  70.893  0.00  0.00    -0.068 A 
ATOM     78  C34 E12 d           0.855  63.769  70.690  0.00  0.00    -0.017 A 
ATOM     79  H18 E12 d           1.479  61.826  70.125  0.00  0.00     0.084 H 
ATOM     80  C29 E12 d           0.169  64.600  71.755  0.00  0.00     0.245 A 
ATOM     81  H19 E12 d           1.229  64.235  69.779  0.00  0.00     0.092 H 
ATOM     82  O35 E12 d          -0.118  65.799  71.633  0.00  0.00    -0.268 OA
ATOM     83  H17 E12 d          -0.659  64.429  73.617  0.00  0.00     0.169 HD
ATOM     84  H22 E12 d          -0.131  59.816  71.686  0.00  0.00     0.092 H 
ENDBRANCH  61  64
ENDBRANCH  58  61
ENDBRANCH  55  58
ENDBRANCH  52  55
ENDBRANCH  49  52
ENDBRANCH  46  49
ENDBRANCH  43  46
ENDBRANCH   1  43
TORSDOF 15
ENDMDL
MODEL 3
REMARK VINA RESULT:      -9.9      1.651      3.133
REMARK  15 active torsions:
REMARK  status: ('A' for Active; 'I' for Inactive)
REMARK    1  A    between atoms: C10_11  and  N17_7 
REMARK    2  A    between atoms: N17_7  and  C24_8 
REMARK    3  A    between atoms: C24_8  and  C63_13 
REMARK    4  A    between atoms: C63_13  and  C64_28 
REMARK    5  A    between atoms: N40_26  and  C37_23 
REMARK    6  A    between atoms: C41_27  and  N40_26 
REMARK    7  A    between atoms: C72_36  and  C41_27 
REMARK    8  A    between atoms: C64_28  and  C65_29 
REMARK    9  A    between atoms: C65_29  and  C66_30 
REMARK   10  A    between atoms: C66_30  and  C67_31 
REMARK   11  A    between atoms: C67_31  and  C68_32 
REMARK   12  A    between atoms: C68_32  and  C69_33 
REMARK   13  A    between atoms: C69_33  and  C70_34 
REMARK   14  A    between atoms: C70_34  and  C71_35 
REMARK   15  A    between atoms: C71_35  and  C72_36 
ROOT
ATOM      1  C67 E12 d           3.811  63.485  69.014  0.00  0.00    -0.065 C 
ATOM      2  H37 E12 d           2.905  64.035  68.719  0.00  0.00     0.033 H 
ATOM      3  H38 E12 d           4.319  63.105  68.115  0.00  0.00     0.033 H 
ENDROOT
BRANCH   1   4
ATOM      4  C66 E12 d           3.402  62.307  69.870  0.00  0.00    -0.065 C 
ATOM      5  H35 E12 d           2.304  62.236  69.886  0.00  0.00     0.033 H 
ATOM      6  H36 E12 d           3.823  61.386  69.441  0.00  0.00     0.033 H 
BRANCH   4   7
ATOM      7  C65 E12 d           3.907  62.472  71.282  0.00  0.00    -0.065 C 
ATOM      8  H33 E12 d           4.452  63.424  71.356  0.00  0.00     0.033 H 
ATOM      9  H34 E12 d           3.047  62.486  71.968  0.00  0.00     0.033 H 
BRANCH   7  10
ATOM     10  C64 E12 d           4.839  61.338  71.685  0.00  0.00    -0.064 C 
ATOM     11  H31 E12 d           5.882  61.674  71.588  0.00  0.00     0.033 H 
ATOM     12  H32 E12 d           4.640  61.058  72.729  0.00  0.00     0.033 H 
BRANCH  10  13
ATOM     13  C63 E12 d           4.617  60.138  70.795  0.00  0.00    -0.043 C 
ATOM     14  H15 E12 d           3.852  60.384  70.044  0.00  0.00     0.035 H 
ATOM     15  H16 E12 d           5.560  59.887  70.289  0.00  0.00     0.035 H 
BRANCH  13  16
ATOM     16  C24 E12 d           4.146  58.922  71.615  0.00  0.00     0.083 C 
ATOM     17  H7  E12 d           4.589  57.995  71.221  0.00  0.00     0.075 H 
ATOM     18  H8  E12 d           4.420  59.039  72.674  0.00  0.00     0.075 H 
BRANCH  16  19
ATOM     19  N17 E12 d           2.619  58.906  71.448  0.00  0.00    -0.067 N 
ATOM     20  H5  E12 d           2.386  59.703  70.876  0.00  0.00     0.277 HD
ATOM     21  H6  E12 d           2.395  58.058  70.951  0.00  0.00     0.277 HD
BRANCH  19  22
ATOM     22  C10 E12 d           1.696  58.957  72.643  0.00  0.00     0.129 C 
ATOM     23  C4  E12 d           1.214  60.403  72.883  0.00  0.00    -0.005 A 
ATOM     24  C3  E12 d           1.423  61.047  74.090  0.00  0.00     0.020 A 
ATOM     25  C5  E12 d           0.414  61.125  71.852  0.00  0.00    -0.068 A 
ATOM     26  N2  E12 d           0.943  62.313  74.276  0.00  0.00    -0.327 N 
ATOM     27  C9  E12 d           2.182  60.415  75.263  0.00  0.00    -0.026 C 
ATOM     28  C1  E12 d           0.204  63.075  73.386  0.00  0.00     0.245 A 
ATOM     29  H1  E12 d           1.149  62.738  75.158  0.00  0.00     0.169 HD
ATOM     30  C6  E12 d          -0.071  62.395  72.064  0.00  0.00    -0.017 A 
ATOM     31  O7  E12 d          -0.149  64.235  73.677  0.00  0.00    -0.268 OA
ATOM     32  H9  E12 d          -0.645  62.904  71.290  0.00  0.00     0.092 H 
ATOM     33  C14 E12 d           3.145  59.316  74.775  0.00  0.00    -0.058 C 
ATOM     34  H10 E12 d           1.458  59.973  75.963  0.00  0.00     0.042 H 
ATOM     35  H11 E12 d           2.761  61.196  75.778  0.00  0.00     0.042 H 
ATOM     36  C13 E12 d           2.393  58.294  73.862  0.00  0.00    -0.034 C 
ATOM     37  H3  E12 d           3.962  59.780  74.203  0.00  0.00     0.033 H 
ATOM     38  H4  E12 d           3.560  58.788  75.645  0.00  0.00     0.033 H 
ATOM     39  H13 E12 d           3.120  57.556  73.492  0.00  0.00     0.036 H 
ATOM     40  H14 E12 d           1.628  57.783  74.466  0.00  0.00     0.036 H 
ATOM     41  H2  E12 d           0.207  60.632  70.903  0.00  0.00     0.084 H 
ATOM     42  H12 E12 d           0.805  58.354  72.411  0.00  0.00     0.092 H 
ENDBRANCH  19  22
ENDBRANCH  16  19
ENDBRANCH  13  16
ENDBRANCH  10  13
ENDBRANCH   7  10
ENDBRANCH   4   7
ENDBRANCH   1   4
BRANCH   1  43
ATOM     43  C68 E12 d           4.745  64.440  69.728  0.00  0.00    -0.065 C 
ATOM     44  H39 E12 d           5.759  64.300  69.326  0.00  0.00     0.033 H 
ATOM     45  H40 E12 d           4.738  64.197  70.801  0.00  0.00     0.033 H 
BRANCH  43  46
ATOM     46  C69 E12 d           4.359  65.900  69.562  0.00  0.00    -0.065 C 
ATOM     47  H41 E12 d           4.553  66.210  68.524  0.00  0.00     0.033 H 
ATOM     48  H42 E12 d           4.963  66.513  70.246  0.00  0.00     0.033 H 
BRANCH  46  49
ATOM     49  C70 E12 d           2.888  66.108  69.877  0.00  0.00    -0.065 C 
ATOM     50  H43 E12 d           2.727  65.889  70.943  0.00  0.00     0.033 H 
ATOM     51  H44 E12 d           2.299  65.408  69.265  0.00  0.00     0.033 H 
BRANCH  49  52
ATOM     52  C71 E12 d           2.391  67.524  69.597  0.00  0.00    -0.064 C 
ATOM     53  H45 E12 d           3.263  68.190  69.517  0.00  0.00     0.033 H 
ATOM     54  H46 E12 d           1.760  67.846  70.438  0.00  0.00     0.033 H 
BRANCH  52  55
ATOM     55  C72 E12 d           1.570  67.636  68.298  0.00  0.00    -0.043 C 
ATOM     56  H47 E12 d           0.561  67.990  68.552  0.00  0.00     0.035 H 
ATOM     57  H48 E12 d           1.504  66.639  67.839  0.00  0.00     0.035 H 
BRANCH  55  58
ATOM     58  C41 E12 d           2.183  68.603  67.278  0.00  0.00     0.083 C 
ATOM     59  H29 E12 d           2.541  69.512  67.783  0.00  0.00     0.075 H 
ATOM     60  H30 E12 d           1.436  68.875  66.517  0.00  0.00     0.075 H 
BRANCH  58  61
ATOM     61  N40 E12 d           3.319  67.884  66.649  0.00  0.00    -0.067 N 
ATOM     62  H27 E12 d           3.380  66.983  67.096  0.00  0.00     0.277 HD
ATOM     63  H28 E12 d           4.150  68.416  66.849  0.00  0.00     0.277 HD
BRANCH  61  64
ATOM     64  C37 E12 d           3.301  67.634  65.153  0.00  0.00     0.129 C 
ATOM     65  C38 E12 d           4.073  68.790  64.481  0.00  0.00    -0.034 C 
ATOM     66  C39 E12 d           4.261  68.522  62.983  0.00  0.00    -0.058 C 
ATOM     67  H23 E12 d           5.061  68.888  64.957  0.00  0.00     0.036 H 
ATOM     68  H24 E12 d           3.508  69.725  64.611  0.00  0.00     0.036 H 
ATOM     69  C36 E12 d           5.111  67.255  62.773  0.00  0.00    -0.026 C 
ATOM     70  H25 E12 d           3.277  68.381  62.513  0.00  0.00     0.033 H 
ATOM     71  H26 E12 d           4.770  69.381  62.522  0.00  0.00     0.033 H 
ATOM     72  C31 E12 d           4.562  66.077  63.607  0.00  0.00     0.020 A 
ATOM     73  H20 E12 d           5.091  66.980  61.708  0.00  0.00     0.042 H 
ATOM     74  H21 E12 d           6.147  67.461  63.079  0.00  0.00     0.042 H 
ATOM     75  C32 E12 d           3.742  66.238  64.724  0.00  0.00    -0.005 A 
ATOM     76  N30 E12 d           4.915  64.818  63.219  0.00  0.00    -0.327 N 
ATOM     77  C33 E12 d           3.287  65.021  65.442  0.00  0.00    -0.068 A 
ATOM     78  C34 E12 d           3.647  63.770  65.040  0.00  0.00    -0.017 A 
ATOM     79  H18 E12 d           2.647  65.132  66.317  0.00  0.00     0.084 H 
ATOM     80  C29 E12 d           4.523  63.622  63.812  0.00  0.00     0.245 A 
ATOM     81  H19 E12 d           3.312  62.892  65.590  0.00  0.00     0.092 H 
ATOM     82  O35 E12 d           4.819  62.540  63.288  0.00  0.00    -0.268 OA
ATOM     83  H17 E12 d           5.518  64.747  62.425  0.00  0.00     0.169 HD
ATOM     84  H22 E12 d           2.254  67.721  64.830  0.00  0.00     0.092 H 
ENDBRANCH  61  64
ENDBRANCH  58  61
ENDBRANCH  55  58
ENDBRANCH  52  55
ENDBRANCH  49  52
ENDBRANCH  46  49
ENDBRANCH  43  46
ENDBRANCH   1  43
TORSDOF 15
ENDMDL
MODEL 4
REMARK VINA RESULT:      -9.9      2.670      4.409
REMARK  15 active torsions:
REMARK  status: ('A' for Active; 'I' for Inactive)
REMARK    1  A    between atoms: C10_11  and  N17_7 
REMARK    2  A    between atoms: N17_7  and  C24_8 
REMARK    3  A    between atoms: C24_8  and  C63_13 
REMARK    4  A    between atoms: C63_13  and  C64_28 
REMARK    5  A    between atoms: N40_26  and  C37_23 
REMARK    6  A    between atoms: C41_27  and  N40_26 
REMARK    7  A    between atoms: C72_36  and  C41_27 
REMARK    8  A    between atoms: C64_28  and  C65_29 
REMARK    9  A    between atoms: C65_29  and  C66_30 
REMARK   10  A    between atoms: C66_30  and  C67_31 
REMARK   11  A    between atoms: C67_31  and  C68_32 
REMARK   12  A    between atoms: C68_32  and  C69_33 
REMARK   13  A    between atoms: C69_33  and  C70_34 
REMARK   14  A    between atoms: C70_34  and  C71_35 
REMARK   15  A    between atoms: C71_35  and  C72_36 
ROOT
ATOM      1  C67 E12 d           4.569  65.950  69.715  0.00  0.00    -0.065 C 
ATOM      2  H37 E12 d           4.493  65.237  70.550  0.00  0.00     0.033 H 
ATOM      3  H38 E12 d           5.301  66.731  69.965  0.00  0.00     0.033 H 
ENDROOT
BRANCH   1   4
ATOM      4  C66 E12 d           3.219  66.601  69.513  0.00  0.00    -0.065 C 
ATOM      5  H35 E12 d           3.036  67.313  70.332  0.00  0.00     0.033 H 
ATOM      6  H36 E12 d           3.217  67.138  68.554  0.00  0.00     0.033 H 
BRANCH   4   7
ATOM      7  C65 E12 d           2.122  65.566  69.504  0.00  0.00    -0.065 C 
ATOM      8  H33 E12 d           1.822  65.375  68.463  0.00  0.00     0.033 H 
ATOM      9  H34 E12 d           2.505  64.638  69.952  0.00  0.00     0.033 H 
BRANCH   7  10
ATOM     10  C64 E12 d           0.903  66.027  70.291  0.00  0.00    -0.064 C 
ATOM     11  H31 E12 d           1.218  66.748  71.060  0.00  0.00     0.033 H 
ATOM     12  H32 E12 d           0.190  66.509  69.606  0.00  0.00     0.033 H 
BRANCH  10  13
ATOM     13  C63 E12 d           0.235  64.847  70.956  0.00  0.00    -0.043 C 
ATOM     14  H15 E12 d          -0.305  65.196  71.848  0.00  0.00     0.035 H 
ATOM     15  H16 E12 d          -0.476  64.392  70.251  0.00  0.00     0.035 H 
BRANCH  13  16
ATOM     16  C24 E12 d           1.272  63.789  71.377  0.00  0.00     0.083 C 
ATOM     17  H7  E12 d           2.285  64.218  71.377  0.00  0.00     0.075 H 
ATOM     18  H8  E12 d           1.041  63.396  72.378  0.00  0.00     0.075 H 
BRANCH  16  19
ATOM     19  N17 E12 d           1.153  62.681  70.319  0.00  0.00    -0.067 N 
ATOM     20  H5  E12 d           0.233  62.283  70.427  0.00  0.00     0.277 HD
ATOM     21  H6  E12 d           1.219  63.136  69.422  0.00  0.00     0.277 HD
BRANCH  19  22
ATOM     22  C10 E12 d           2.118  61.521  70.282  0.00  0.00     0.129 C 
ATOM     23  C4  E12 d           2.214  60.863  71.675  0.00  0.00    -0.005 A 
ATOM     24  C3  E12 d           3.421  60.742  72.339  0.00  0.00     0.020 A 
ATOM     25  C5  E12 d           1.017  60.241  72.312  0.00  0.00    -0.068 A 
ATOM     26  N2  E12 d           3.470  60.114  73.552  0.00  0.00    -0.327 N 
ATOM     27  C9  E12 d           4.746  61.285  71.787  0.00  0.00    -0.026 C 
ATOM     28  C1  E12 d           2.423  59.517  74.236  0.00  0.00     0.245 A 
ATOM     29  H1  E12 d           4.364  60.083  73.998  0.00  0.00     0.169 HD
ATOM     30  C6  E12 d           1.089  59.602  73.529  0.00  0.00    -0.017 A 
ATOM     31  O7  E12 d           2.603  59.001  75.357  0.00  0.00    -0.268 OA
ATOM     32  H9  E12 d           0.198  59.166  73.978  0.00  0.00     0.092 H 
ATOM     33  C14 E12 d           4.503  62.430  70.787  0.00  0.00    -0.058 C 
ATOM     34  H10 E12 d           5.283  60.471  71.279  0.00  0.00     0.042 H 
ATOM     35  H11 E12 d           5.355  61.660  72.622  0.00  0.00     0.042 H 
ATOM     36  C13 E12 d           3.475  61.995  69.694  0.00  0.00    -0.034 C 
ATOM     37  H3  E12 d           4.111  63.304  71.327  0.00  0.00     0.033 H 
ATOM     38  H4  E12 d           5.455  62.695  70.304  0.00  0.00     0.033 H 
ATOM     39  H13 E12 d           3.287  62.852  69.030  0.00  0.00     0.036 H 
ATOM     40  H14 E12 d           3.910  61.170  69.112  0.00  0.00     0.036 H 
ATOM     41  H2  E12 d           0.058  60.293  71.799  0.00  0.00     0.084 H 
ATOM     42  H12 E12 d           1.713  60.763  69.594  0.00  0.00     0.092 H 
ENDBRANCH  19  22
ENDBRANCH  16  19
ENDBRANCH  13  16
ENDBRANCH  10  13
ENDBRANCH   7  10
ENDBRANCH   4   7
ENDBRANCH   1   4
BRANCH   1  43
ATOM     43  C68 E12 d           5.057  65.206  68.489  0.00  0.00    -0.065 C 
ATOM     44  H39 E12 d           4.840  64.137  68.622  0.00  0.00     0.033 H 
ATOM     45  H40 E12 d           6.144  65.352  68.402  0.00  0.00     0.033 H 
BRANCH  43  46
ATOM     46  C69 E12 d           4.404  65.673  67.199  0.00  0.00    -0.065 C 
ATOM     47  H41 E12 d           5.159  66.172  66.572  0.00  0.00     0.033 H 
ATOM     48  H42 E12 d           3.599  66.383  67.438  0.00  0.00     0.033 H 
BRANCH  46  49
ATOM     49  C70 E12 d           3.820  64.498  66.434  0.00  0.00    -0.065 C 
ATOM     50  H43 E12 d           2.935  64.136  66.978  0.00  0.00     0.033 H 
ATOM     51  H44 E12 d           4.577  63.700  66.392  0.00  0.00     0.033 H 
BRANCH  49  52
ATOM     52  C71 E12 d           3.401  64.838  65.007  0.00  0.00    -0.064 C 
ATOM     53  H45 E12 d           2.850  65.790  65.023  0.00  0.00     0.033 H 
ATOM     54  H46 E12 d           2.741  64.039  64.637  0.00  0.00     0.033 H 
BRANCH  52  55
ATOM     55  C72 E12 d           4.591  64.977  64.039  0.00  0.00    -0.043 C 
ATOM     56  H47 E12 d           4.653  64.065  63.428  0.00  0.00     0.035 H 
ATOM     57  H48 E12 d           5.512  65.085  64.630  0.00  0.00     0.035 H 
BRANCH  55  58
ATOM     58  C41 E12 d           4.469  66.184  63.101  0.00  0.00     0.083 C 
ATOM     59  H29 E12 d           3.622  66.047  62.413  0.00  0.00     0.075 H 
ATOM     60  H30 E12 d           5.395  66.310  62.522  0.00  0.00     0.075 H 
BRANCH  58  61
ATOM     61  N40 E12 d           4.240  67.367  63.968  0.00  0.00    -0.067 N 
ATOM     62  H27 E12 d           5.088  67.910  63.954  0.00  0.00     0.277 HD
ATOM     63  H28 E12 d           4.077  67.021  64.901  0.00  0.00     0.277 HD
BRANCH  61  64
ATOM     64  C37 E12 d           3.102  68.315  63.643  0.00  0.00     0.129 C 
ATOM     65  C38 E12 d           2.786  68.162  62.140  0.00  0.00    -0.034 C 
ATOM     66  C39 E12 d           1.526  68.952  61.765  0.00  0.00    -0.058 C 
ATOM     67  H23 E12 d           2.625  67.098  61.912  0.00  0.00     0.036 H 
ATOM     68  H24 E12 d           3.635  68.539  61.552  0.00  0.00     0.036 H 
ATOM     69  C36 E12 d           0.306  68.397  62.522  0.00  0.00    -0.026 C 
ATOM     70  H25 E12 d           1.668  70.010  62.030  0.00  0.00     0.033 H 
ATOM     71  H26 E12 d           1.353  68.865  60.682  0.00  0.00     0.033 H 
ATOM     72  C31 E12 d           0.602  68.274  64.032  0.00  0.00     0.020 A 
ATOM     73  H20 E12 d          -0.547  69.075  62.377  0.00  0.00     0.042 H 
ATOM     74  H21 E12 d           0.055  67.403  62.123  0.00  0.00     0.042 H 
ATOM     75  C32 E12 d           1.890  68.213  64.564  0.00  0.00    -0.005 A 
ATOM     76  N30 E12 d          -0.467  68.217  64.877  0.00  0.00    -0.327 N 
ATOM     77  C33 E12 d           2.037  68.089  66.036  0.00  0.00    -0.068 A 
ATOM     78  C34 E12 d           0.957  68.035  66.865  0.00  0.00    -0.017 A 
ATOM     79  H18 E12 d           3.037  68.039  66.465  0.00  0.00     0.084 H 
ATOM     80  C29 E12 d          -0.431  68.123  66.264  0.00  0.00     0.245 A 
ATOM     81  H19 E12 d           1.089  67.931  67.942  0.00  0.00     0.092 H 
ATOM     82  O35 E12 d          -1.477  68.200  66.922  0.00  0.00    -0.268 OA
ATOM     83  H17 E12 d          -1.374  68.246  64.454  0.00  0.00     0.169 HD
ATOM     84  H22 E12 d           3.489  69.335  63.785  0.00  0.00     0.092 H 
ENDBRANCH  61  64
ENDBRANCH  58  61
ENDBRANCH  55  58
ENDBRANCH  52  55
ENDBRANCH  49  52
ENDBRANCH  46  49
ENDBRANCH  43  46
ENDBRANCH   1  43
TORSDOF 15
ENDMDL
MODEL 5
REMARK VINA RESULT:      -9.8      1.662     10.086
REMARK  15 active torsions:
REMARK  status: ('A' for Active; 'I' for Inactive)
REMARK    1  A    between atoms: C10_11  and  N17_7 
REMARK    2  A    between atoms: N17_7  and  C24_8 
REMARK    3  A    between atoms: C24_8  and  C63_13 
REMARK    4  A    between atoms: C63_13  and  C64_28 
REMARK    5  A    between atoms: N40_26  and  C37_23 
REMARK    6  A    between atoms: C41_27  and  N40_26 
REMARK    7  A    between atoms: C72_36  and  C41_27 
REMARK    8  A    between atoms: C64_28  and  C65_29 
REMARK    9  A    between atoms: C65_29  and  C66_30 
REMARK   10  A    between atoms: C66_30  and  C67_31 
REMARK   11  A    between atoms: C67_31  and  C68_32 
REMARK   12  A    between atoms: C68_32  and  C69_33 
REMARK   13  A    between atoms: C69_33  and  C70_34 
REMARK   14  A    between atoms: C70_34  and  C71_35 
REMARK   15  A    between atoms: C71_35  and  C72_36 
ROOT
ATOM      1  C67 E12 d           5.135  64.429  69.967  0.00  0.00    -0.065 C 
ATOM      2  H37 E12 d           5.470  64.894  70.906  0.00  0.00     0.033 H 
ATOM      3  H38 E12 d           6.000  63.997  69.442  0.00  0.00     0.033 H 
ENDROOT
BRANCH   1   4
ATOM      4  C66 E12 d           4.526  65.499  69.089  0.00  0.00    -0.065 C 
ATOM      5  H35 E12 d           5.323  66.161  68.720  0.00  0.00     0.033 H 
ATOM      6  H36 E12 d           4.021  65.023  68.237  0.00  0.00     0.033 H 
BRANCH   4   7
ATOM      7  C65 E12 d           3.523  66.318  69.864  0.00  0.00    -0.065 C 
ATOM      8  H33 E12 d           3.124  65.706  70.687  0.00  0.00     0.033 H 
ATOM      9  H34 E12 d           4.028  67.203  70.276  0.00  0.00     0.033 H 
BRANCH   7  10
ATOM     10  C64 E12 d           2.367  66.774  68.985  0.00  0.00    -0.064 C 
ATOM     11  H31 E12 d           2.402  66.234  68.028  0.00  0.00     0.033 H 
ATOM     12  H32 E12 d           1.416  66.557  69.494  0.00  0.00     0.033 H 
BRANCH  10  13
ATOM     13  C63 E12 d           2.464  68.258  68.724  0.00  0.00    -0.043 C 
ATOM     14  H15 E12 d           1.745  68.785  69.368  0.00  0.00     0.035 H 
ATOM     15  H16 E12 d           3.484  68.598  68.958  0.00  0.00     0.035 H 
BRANCH  13  16
ATOM     16  C24 E12 d           2.151  68.583  67.251  0.00  0.00     0.083 C 
ATOM     17  H7  E12 d           1.094  68.378  67.026  0.00  0.00     0.075 H 
ATOM     18  H8  E12 d           2.376  69.637  67.030  0.00  0.00     0.075 H 
BRANCH  16  19
ATOM     19  N17 E12 d           3.068  67.652  66.443  0.00  0.00    -0.067 N 
ATOM     20  H5  E12 d           3.983  68.074  66.452  0.00  0.00     0.277 HD
ATOM     21  H6  E12 d           3.097  66.777  66.942  0.00  0.00     0.277 HD
BRANCH  19  22
ATOM     22  C10 E12 d           2.771  67.312  65.002  0.00  0.00     0.129 C 
ATOM     23  C4  E12 d           3.446  65.978  64.619  0.00  0.00    -0.005 A 
ATOM     24  C3  E12 d           4.339  65.892  63.566  0.00  0.00     0.020 A 
ATOM     25  C5  E12 d           3.081  64.708  65.311  0.00  0.00    -0.068 A 
ATOM     26  N2  E12 d           4.883  64.684  63.232  0.00  0.00    -0.327 N 
ATOM     27  C9  E12 d           4.773  67.101  62.727  0.00  0.00    -0.026 C 
ATOM     28  C1  E12 d           4.626  63.453  63.814  0.00  0.00     0.245 A 
ATOM     29  H1  E12 d           5.544  64.688  62.482  0.00  0.00     0.169 HD
ATOM     30  C6  E12 d           3.632  63.498  64.953  0.00  0.00    -0.017 A 
ATOM     31  O7  E12 d           5.218  62.426  63.427  0.00  0.00    -0.268 OA
ATOM     32  H9  E12 d           3.356  62.587  65.482  0.00  0.00     0.092 H 
ATOM     33  C14 E12 d           4.597  68.414  63.512  0.00  0.00    -0.058 C 
ATOM     34  H10 E12 d           4.159  67.143  61.815  0.00  0.00     0.042 H 
ATOM     35  H11 E12 d           5.831  66.986  62.451  0.00  0.00     0.042 H 
ATOM     36  C13 E12 d           3.152  68.515  64.097  0.00  0.00    -0.034 C 
ATOM     37  H3  E12 d           5.324  68.442  64.336  0.00  0.00     0.033 H 
ATOM     38  H4  E12 d           4.775  69.265  62.838  0.00  0.00     0.033 H 
ATOM     39  H13 E12 d           3.079  69.437  64.693  0.00  0.00     0.036 H 
ATOM     40  H14 E12 d           2.439  68.562  63.261  0.00  0.00     0.036 H 
ATOM     41  H2  E12 d           2.358  64.739  66.125  0.00  0.00     0.084 H 
ATOM     42  H12 E12 d           1.685  67.163  64.904  0.00  0.00     0.092 H 
ENDBRANCH  19  22
ENDBRANCH  16  19
ENDBRANCH  13  16
ENDBRANCH  10  13
ENDBRANCH   7  10
ENDBRANCH   4   7
ENDBRANCH   1   4
BRANCH   1  43
ATOM     43  C68 E12 d           4.167  63.313  70.299  0.00  0.00    -0.065 C 
ATOM     44  H39 E12 d           3.452  63.685  71.048  0.00  0.00     0.033 H 
ATOM     45  H40 E12 d           4.736  62.472  70.721  0.00  0.00     0.033 H 
BRANCH  43  46
ATOM     46  C69 E12 d           3.386  62.811  69.097  0.00  0.00    -0.065 C 
ATOM     47  H41 E12 d           4.039  62.824  68.211  0.00  0.00     0.033 H 
ATOM     48  H42 E12 d           2.523  63.470  68.925  0.00  0.00     0.033 H 
BRANCH  46  49
ATOM     49  C70 E12 d           2.891  61.394  69.329  0.00  0.00    -0.065 C 
ATOM     50  H43 E12 d           2.616  60.959  68.356  0.00  0.00     0.033 H 
ATOM     51  H44 E12 d           2.001  61.439  69.976  0.00  0.00     0.033 H 
BRANCH  49  52
ATOM     52  C71 E12 d           3.920  60.481  69.990  0.00  0.00    -0.064 C 
ATOM     53  H45 E12 d           4.074  60.821  71.024  0.00  0.00     0.033 H 
ATOM     54  H46 E12 d           4.865  60.559  69.433  0.00  0.00     0.033 H 
BRANCH  52  55
ATOM     55  C72 E12 d           3.492  59.001  70.020  0.00  0.00    -0.043 C 
ATOM     56  H47 E12 d           4.074  58.453  69.266  0.00  0.00     0.035 H 
ATOM     57  H48 E12 d           2.422  58.942  69.772  0.00  0.00     0.035 H 
BRANCH  55  58
ATOM     58  C41 E12 d           3.713  58.337  71.384  0.00  0.00     0.083 C 
ATOM     59  H29 E12 d           4.123  59.064  72.099  0.00  0.00     0.075 H 
ATOM     60  H30 E12 d           4.406  57.489  71.285  0.00  0.00     0.075 H 
BRANCH  58  61
ATOM     61  N40 E12 d           2.382  57.862  71.840  0.00  0.00    -0.067 N 
ATOM     62  H27 E12 d           2.422  56.855  71.865  0.00  0.00     0.277 HD
ATOM     63  H28 E12 d           1.712  58.154  71.146  0.00  0.00     0.277 HD
BRANCH  61  64
ATOM     64  C37 E12 d           1.853  58.318  73.186  0.00  0.00     0.129 C 
ATOM     65  C38 E12 d           2.858  57.852  74.261  0.00  0.00    -0.034 C 
ATOM     66  C39 E12 d           2.494  58.429  75.634  0.00  0.00    -0.058 C 
ATOM     67  H23 E12 d           3.867  58.192  73.982  0.00  0.00     0.036 H 
ATOM     68  H24 E12 d           2.843  56.753  74.316  0.00  0.00     0.036 H 
ATOM     69  C36 E12 d           2.577  59.966  75.603  0.00  0.00    -0.026 C 
ATOM     70  H25 E12 d           1.470  58.125  75.896  0.00  0.00     0.033 H 
ATOM     71  H26 E12 d           3.196  58.042  76.387  0.00  0.00     0.033 H 
ATOM     72  C31 E12 d           1.795  60.537  74.400  0.00  0.00     0.020 A 
ATOM     73  H20 E12 d           2.150  60.369  76.533  0.00  0.00     0.042 H 
ATOM     74  H21 E12 d           3.631  60.269  75.522  0.00  0.00     0.042 H 
ATOM     75  C32 E12 d           1.471  59.793  73.266  0.00  0.00    -0.005 A 
ATOM     76  N30 E12 d           1.411  61.844  74.467  0.00  0.00    -0.327 N 
ATOM     77  C33 E12 d           0.720  60.464  72.176  0.00  0.00    -0.068 A 
ATOM     78  C34 E12 d           0.343  61.771  72.260  0.00  0.00    -0.017 A 
ATOM     79  H18 E12 d           0.462  59.895  71.284  0.00  0.00     0.084 H 
ATOM     80  C29 E12 d           0.690  62.552  73.512  0.00  0.00     0.245 A 
ATOM     81  H19 E12 d          -0.197  62.246  71.442  0.00  0.00     0.092 H 
ATOM     82  O35 E12 d           0.304  63.704  73.749  0.00  0.00    -0.268 OA
ATOM     83  H17 E12 d           1.678  62.347  75.290  0.00  0.00     0.169 HD
ATOM     84  H22 E12 d           0.919  57.766  73.362  0.00  0.00     0.092 H 
ENDBRANCH  61  64
ENDBRANCH  58  61
ENDBRANCH  55  58
ENDBRANCH  52  55
ENDBRANCH  49  52
ENDBRANCH  46  49
ENDBRANCH  43  46
ENDBRANCH   1  43
TORSDOF 15
ENDMDL
MODEL 6
REMARK VINA RESULT:      -9.4      2.169      3.220
REMARK  15 active torsions:
REMARK  status: ('A' for Active; 'I' for Inactive)
REMARK    1  A    between atoms: C10_11  and  N17_7 
REMARK    2  A    between atoms: N17_7  and  C24_8 
REMARK    3  A    between atoms: C24_8  and  C63_13 
REMARK    4  A    between atoms: C63_13  and  C64_28 
REMARK    5  A    between atoms: N40_26  and  C37_23 
REMARK    6  A    between atoms: C41_27  and  N40_26 
REMARK    7  A    between atoms: C72_36  and  C41_27 
REMARK    8  A    between atoms: C64_28  and  C65_29 
REMARK    9  A    between atoms: C65_29  and  C66_30 
REMARK   10  A    between atoms: C66_30  and  C67_31 
REMARK   11  A    between atoms: C67_31  and  C68_32 
REMARK   12  A    between atoms: C68_32  and  C69_33 
REMARK   13  A    between atoms: C69_33  and  C70_34 
REMARK   14  A    between atoms: C70_34  and  C71_35 
REMARK   15  A    between atoms: C71_35  and  C72_36 
ROOT
ATOM      1  C67 E12 d           3.073  66.743  69.620  0.00  0.00    -0.065 C 
ATOM      2  H37 E12 d           3.310  67.668  70.166  0.00  0.00     0.033 H 
ATOM      3  H38 E12 d           3.138  66.929  68.538  0.00  0.00     0.033 H 
ENDROOT
BRANCH   1   4
ATOM      4  C66 E12 d           1.656  66.335  69.954  0.00  0.00    -0.065 C 
ATOM      5  H35 E12 d           1.230  67.059  70.664  0.00  0.00     0.033 H 
ATOM      6  H36 E12 d           1.056  66.327  69.033  0.00  0.00     0.033 H 
BRANCH   4   7
ATOM      7  C65 E12 d           1.629  64.960  70.574  0.00  0.00    -0.065 C 
ATOM      8  H33 E12 d           2.211  64.272  69.942  0.00  0.00     0.033 H 
ATOM      9  H34 E12 d           2.081  65.011  71.575  0.00  0.00     0.033 H 
BRANCH   7  10
ATOM     10  C64 E12 d           0.209  64.426  70.702  0.00  0.00    -0.064 C 
ATOM     11  H31 E12 d          -0.292  64.924  71.545  0.00  0.00     0.033 H 
ATOM     12  H32 E12 d          -0.342  64.634  69.774  0.00  0.00     0.033 H 
BRANCH  10  13
ATOM     13  C63 E12 d           0.232  62.936  70.945  0.00  0.00    -0.043 C 
ATOM     14  H15 E12 d          -0.392  62.438  70.189  0.00  0.00     0.035 H 
ATOM     15  H16 E12 d           1.267  62.574  70.862  0.00  0.00     0.035 H 
BRANCH  13  16
ATOM     16  C24 E12 d          -0.310  62.596  72.346  0.00  0.00     0.083 C 
ATOM     17  H7  E12 d           0.331  63.035  73.126  0.00  0.00     0.075 H 
ATOM     18  H8  E12 d          -1.339  62.967  72.465  0.00  0.00     0.075 H 
BRANCH  16  19
ATOM     19  N17 E12 d          -0.275  61.061  72.417  0.00  0.00    -0.067 N 
ATOM     20  H5  E12 d          -1.198  60.768  72.696  0.00  0.00     0.277 HD
ATOM     21  H6  E12 d          -0.088  60.737  71.481  0.00  0.00     0.277 HD
BRANCH  19  22
ATOM     22  C10 E12 d           0.693  60.336  73.321  0.00  0.00     0.129 C 
ATOM     23  C4  E12 d           1.593  59.395  72.493  0.00  0.00    -0.005 A 
ATOM     24  C3  E12 d           1.657  58.038  72.752  0.00  0.00     0.020 A 
ATOM     25  C5  E12 d           2.505  59.936  71.444  0.00  0.00    -0.068 A 
ATOM     26  N2  E12 d           2.500  57.246  72.023  0.00  0.00    -0.327 N 
ATOM     27  C9  E12 d           0.819  57.345  73.834  0.00  0.00    -0.026 C 
ATOM     28  C1  E12 d           3.374  57.640  71.023  0.00  0.00     0.245 A 
ATOM     29  H1  E12 d           2.482  56.269  72.236  0.00  0.00     0.169 HD
ATOM     30  C6  E12 d           3.355  59.123  70.728  0.00  0.00    -0.017 A 
ATOM     31  O7  E12 d           4.070  56.802  70.415  0.00  0.00    -0.268 OA
ATOM     32  H9  E12 d           4.004  59.541  69.960  0.00  0.00     0.092 H 
ATOM     33  C14 E12 d          -0.452  58.153  74.155  0.00  0.00    -0.058 C 
ATOM     34  H10 E12 d           1.423  57.247  74.748  0.00  0.00     0.042 H 
ATOM     35  H11 E12 d           0.529  56.346  73.478  0.00  0.00     0.042 H 
ATOM     36  C13 E12 d          -0.092  59.641  74.467  0.00  0.00    -0.034 C 
ATOM     37  H3  E12 d          -1.130  58.118  73.290  0.00  0.00     0.033 H 
ATOM     38  H4  E12 d          -0.950  57.710  75.029  0.00  0.00     0.033 H 
ATOM     39  H13 E12 d          -1.025  60.198  74.640  0.00  0.00     0.036 H 
ATOM     40  H14 E12 d           0.524  59.668  75.378  0.00  0.00     0.036 H 
ATOM     41  H2  E12 d           2.499  61.005  71.238  0.00  0.00     0.084 H 
ATOM     42  H12 E12 d           1.351  61.085  73.786  0.00  0.00     0.092 H 
ENDBRANCH  19  22
ENDBRANCH  16  19
ENDBRANCH  13  16
ENDBRANCH  10  13
ENDBRANCH   7  10
ENDBRANCH   4   7
ENDBRANCH   1   4
BRANCH   1  43
ATOM     43  C68 E12 d           4.097  65.689  69.989  0.00  0.00    -0.065 C 
ATOM     44  H39 E12 d           3.570  64.837  70.443  0.00  0.00     0.033 H 
ATOM     45  H40 E12 d           4.794  66.122  70.722  0.00  0.00     0.033 H 
BRANCH  43  46
ATOM     46  C69 E12 d           4.899  65.183  68.803  0.00  0.00    -0.065 C 
ATOM     47  H41 E12 d           5.666  64.479  69.160  0.00  0.00     0.033 H 
ATOM     48  H42 E12 d           5.387  66.035  68.307  0.00  0.00     0.033 H 
BRANCH  46  49
ATOM     49  C70 E12 d           3.999  64.475  67.805  0.00  0.00    -0.065 C 
ATOM     50  H43 E12 d           2.960  64.558  68.156  0.00  0.00     0.033 H 
ATOM     51  H44 E12 d           4.290  63.414  67.766  0.00  0.00     0.033 H 
BRANCH  49  52
ATOM     52  C71 E12 d           4.076  65.046  66.392  0.00  0.00    -0.064 C 
ATOM     53  H45 E12 d           3.145  65.595  66.186  0.00  0.00     0.033 H 
ATOM     54  H46 E12 d           4.175  64.211  65.682  0.00  0.00     0.033 H 
BRANCH  52  55
ATOM     55  C72 E12 d           5.265  66.005  66.186  0.00  0.00    -0.043 C 
ATOM     56  H47 E12 d           6.185  65.494  66.504  0.00  0.00     0.035 H 
ATOM     57  H48 E12 d           5.106  66.897  66.809  0.00  0.00     0.035 H 
BRANCH  55  58
ATOM     58  C41 E12 d           5.434  66.452  64.729  0.00  0.00     0.083 C 
ATOM     59  H29 E12 d           4.612  66.059  64.113  0.00  0.00     0.075 H 
ATOM     60  H30 E12 d           6.395  66.094  64.331  0.00  0.00     0.075 H 
BRANCH  58  61
ATOM     61  N40 E12 d           5.404  67.936  64.740  0.00  0.00    -0.067 N 
ATOM     62  H27 E12 d           6.257  68.251  64.306  0.00  0.00     0.277 HD
ATOM     63  H28 E12 d           5.392  68.223  65.706  0.00  0.00     0.277 HD
BRANCH  61  64
ATOM     64  C37 E12 d           4.264  68.660  64.050  0.00  0.00     0.129 C 
ATOM     65  C38 E12 d           4.396  68.395  62.535  0.00  0.00    -0.034 C 
ATOM     66  C39 E12 d           3.179  68.939  61.778  0.00  0.00    -0.058 C 
ATOM     67  H23 E12 d           4.472  67.311  62.364  0.00  0.00     0.036 H 
ATOM     68  H24 E12 d           5.304  68.890  62.160  0.00  0.00     0.036 H 
ATOM     69  C36 E12 d           1.901  68.211  62.234  0.00  0.00    -0.026 C 
ATOM     70  H25 E12 d           3.076  70.015  61.981  0.00  0.00     0.033 H 
ATOM     71  H26 E12 d           3.322  68.781  60.699  0.00  0.00     0.033 H 
ATOM     72  C31 E12 d           1.791  68.201  63.773  0.00  0.00     0.020 A 
ATOM     73  H20 E12 d           1.024  68.726  61.814  0.00  0.00     0.042 H 
ATOM     74  H21 E12 d           1.927  67.174  61.868  0.00  0.00     0.042 H 
ATOM     75  C32 E12 d           2.878  68.385  64.627  0.00  0.00    -0.005 A 
ATOM     76  N30 E12 d           0.555  67.993  64.311  0.00  0.00    -0.327 N 
ATOM     77  C33 E12 d           2.637  68.346  66.091  0.00  0.00    -0.068 A 
ATOM     78  C34 E12 d           1.395  68.139  66.611  0.00  0.00    -0.017 A 
ATOM     79  H18 E12 d           3.478  68.487  66.769  0.00  0.00     0.084 H 
ATOM     80  C29 E12 d           0.227  67.961  65.662  0.00  0.00     0.245 A 
ATOM     81  H19 E12 d           1.244  68.102  67.689  0.00  0.00     0.092 H 
ATOM     82  O35 E12 d          -0.958  67.882  66.015  0.00  0.00    -0.268 OA
ATOM     83  H17 E12 d          -0.195  67.848  63.665  0.00  0.00     0.169 HD
ATOM     84  H22 E12 d           4.434  69.736  64.201  0.00  0.00     0.092 H 
ENDBRANCH  61  64
ENDBRANCH  58  61
ENDBRANCH  55  58
ENDBRANCH  52  55
ENDBRANCH  49  52
ENDBRANCH  46  49
ENDBRANCH  43  46
ENDBRANCH   1  43
TORSDOF 15
ENDMDL
MODEL 7
REMARK VINA RESULT:      -9.4      2.064      9.629
REMARK  15 active torsions:
REMARK  status: ('A' for Active; 'I' for Inactive)
REMARK    1  A    between atoms: C10_11  and  N17_7 
REMARK    2  A    between atoms: N17_7  and  C24_8 
REMARK    3  A    between atoms: C24_8  and  C63_13 
REMARK    4  A    between atoms: C63_13  and  C64_28 
REMARK    5  A    between atoms: N40_26  and  C37_23 
REMARK    6  A    between atoms: C41_27  and  N40_26 
REMARK    7  A    between atoms: C72_36  and  C41_27 
REMARK    8  A    between atoms: C64_28  and  C65_29 
REMARK    9  A    between atoms: C65_29  and  C66_30 
REMARK   10  A    between atoms: C66_30  and  C67_31 
REMARK   11  A    between atoms: C67_31  and  C68_32 
REMARK   12  A    between atoms: C68_32  and  C69_33 
REMARK   13  A    between atoms: C69_33  and  C70_34 
REMARK   14  A    between atoms: C70_34  and  C71_35 
REMARK   15  A    between atoms: C71_35  and  C72_36 
ROOT
ATOM      1  C67 E12 d           1.048  67.664  65.066  0.00  0.00    -0.065 C 
ATOM      2  H37 E12 d           1.929  67.673  64.408  0.00  0.00     0.033 H 
ATOM      3  H38 E12 d           0.816  66.629  65.357  0.00  0.00     0.033 H 
ENDROOT
BRANCH   1   4
ATOM      4  C66 E12 d          -0.130  68.224  64.301  0.00  0.00    -0.065 C 
ATOM      5  H35 E12 d          -0.982  67.534  64.392  0.00  0.00     0.033 H 
ATOM      6  H36 E12 d          -0.404  69.202  64.724  0.00  0.00     0.033 H 
BRANCH   4   7
ATOM      7  C65 E12 d           0.213  68.396  62.842  0.00  0.00    -0.065 C 
ATOM      8  H33 E12 d          -0.048  67.472  62.303  0.00  0.00     0.033 H 
ATOM      9  H34 E12 d          -0.370  69.235  62.435  0.00  0.00     0.033 H 
BRANCH   7  10
ATOM     10  C64 E12 d           1.695  68.681  62.640  0.00  0.00    -0.064 C 
ATOM     11  H31 E12 d           1.921  69.697  62.998  0.00  0.00     0.033 H 
ATOM     12  H32 E12 d           2.286  67.951  63.210  0.00  0.00     0.033 H 
BRANCH  10  13
ATOM     13  C63 E12 d           2.051  68.578  61.176  0.00  0.00    -0.043 C 
ATOM     14  H15 E12 d           1.565  67.688  60.750  0.00  0.00     0.035 H 
ATOM     15  H16 E12 d           1.692  69.477  60.654  0.00  0.00     0.035 H 
BRANCH  13  16
ATOM     16  C24 E12 d           3.574  68.459  60.985  0.00  0.00     0.083 C 
ATOM     17  H7  E12 d           3.833  68.474  59.915  0.00  0.00     0.075 H 
ATOM     18  H8  E12 d           4.095  69.281  61.499  0.00  0.00     0.075 H 
BRANCH  16  19
ATOM     19  N17 E12 d           3.944  67.107  61.613  0.00  0.00    -0.067 N 
ATOM     20  H5  E12 d           3.104  66.755  62.046  0.00  0.00     0.277 HD
ATOM     21  H6  E12 d           4.208  66.502  60.852  0.00  0.00     0.277 HD
BRANCH  19  22
ATOM     22  C10 E12 d           5.037  66.992  62.648  0.00  0.00     0.129 C 
ATOM     23  C4  E12 d           4.573  66.096  63.816  0.00  0.00    -0.005 A 
ATOM     24  C3  E12 d           4.557  66.554  65.121  0.00  0.00     0.020 A 
ATOM     25  C5  E12 d           4.220  64.664  63.589  0.00  0.00    -0.068 A 
ATOM     26  N2  E12 d           4.180  65.715  66.131  0.00  0.00    -0.327 N 
ATOM     27  C9  E12 d           4.944  67.984  65.518  0.00  0.00    -0.026 C 
ATOM     28  C1  E12 d           3.822  64.380  66.030  0.00  0.00     0.245 A 
ATOM     29  H1  E12 d           4.160  66.109  67.050  0.00  0.00     0.169 HD
ATOM     30  C6  E12 d           3.854  63.832  64.622  0.00  0.00    -0.017 A 
ATOM     31  O7  E12 d           3.469  63.734  67.037  0.00  0.00    -0.268 OA
ATOM     32  H9  E12 d           3.591  62.793  64.427  0.00  0.00     0.092 H 
ATOM     33  C14 E12 d           4.770  68.955  64.335  0.00  0.00    -0.058 C 
ATOM     34  H10 E12 d           5.996  67.996  65.840  0.00  0.00     0.042 H 
ATOM     35  H11 E12 d           4.303  68.312  66.349  0.00  0.00     0.042 H 
ATOM     36  C13 E12 d           5.504  68.413  63.067  0.00  0.00    -0.034 C 
ATOM     37  H3  E12 d           3.698  69.066  64.114  0.00  0.00     0.033 H 
ATOM     38  H4  E12 d           5.191  69.934  64.607  0.00  0.00     0.033 H 
ATOM     39  H13 E12 d           5.315  69.104  62.232  0.00  0.00     0.036 H 
ATOM     40  H14 E12 d           6.583  68.378  63.276  0.00  0.00     0.036 H 
ATOM     41  H2  E12 d           4.252  64.266  62.575  0.00  0.00     0.084 H 
ATOM     42  H12 E12 d           5.898  66.492  62.180  0.00  0.00     0.092 H 
ENDBRANCH  19  22
ENDBRANCH  16  19
ENDBRANCH  13  16
ENDBRANCH  10  13
ENDBRANCH   7  10
ENDBRANCH   4   7
ENDBRANCH   1   4
BRANCH   1  43
ATOM     43  C68 E12 d           1.372  68.455  66.316  0.00  0.00    -0.065 C 
ATOM     44  H39 E12 d           0.587  69.211  66.463  0.00  0.00     0.033 H 
ATOM     45  H40 E12 d           2.341  68.956  66.170  0.00  0.00     0.033 H 
BRANCH  43  46
ATOM     46  C69 E12 d           1.456  67.600  67.569  0.00  0.00    -0.065 C 
ATOM     47  H41 E12 d           1.905  66.629  67.313  0.00  0.00     0.033 H 
ATOM     48  H42 E12 d           0.443  67.442  67.966  0.00  0.00     0.033 H 
BRANCH  46  49
ATOM     49  C70 E12 d           2.306  68.278  68.629  0.00  0.00    -0.065 C 
ATOM     50  H43 E12 d           1.665  68.967  69.199  0.00  0.00     0.033 H 
ATOM     51  H44 E12 d           3.101  68.848  68.124  0.00  0.00     0.033 H 
BRANCH  49  52
ATOM     52  C71 E12 d           2.959  67.308  69.610  0.00  0.00    -0.064 C 
ATOM     53  H45 E12 d           2.814  67.693  70.630  0.00  0.00     0.033 H 
ATOM     54  H46 E12 d           4.035  67.257  69.386  0.00  0.00     0.033 H 
BRANCH  52  55
ATOM     55  C72 E12 d           2.377  65.884  69.536  0.00  0.00    -0.043 C 
ATOM     56  H47 E12 d           3.132  65.178  69.912  0.00  0.00     0.035 H 
ATOM     57  H48 E12 d           2.150  65.653  68.485  0.00  0.00     0.035 H 
BRANCH  55  58
ATOM     58  C41 E12 d           1.097  65.711  70.361  0.00  0.00     0.083 C 
ATOM     59  H29 E12 d           0.305  66.369  69.975  0.00  0.00     0.075 H 
ATOM     60  H30 E12 d           1.290  65.950  71.417  0.00  0.00     0.075 H 
BRANCH  58  61
ATOM     61  N40 E12 d           0.696  64.289  70.221  0.00  0.00    -0.067 N 
ATOM     62  H27 E12 d           1.228  63.908  69.455  0.00  0.00     0.277 HD
ATOM     63  H28 E12 d          -0.284  64.281  69.987  0.00  0.00     0.277 HD
BRANCH  61  64
ATOM     64  C37 E12 d           0.877  63.348  71.396  0.00  0.00     0.129 C 
ATOM     65  C38 E12 d          -0.506  62.750  71.730  0.00  0.00    -0.034 C 
ATOM     66  C39 E12 d          -0.384  61.649  72.789  0.00  0.00    -0.058 C 
ATOM     67  H23 E12 d          -0.945  62.323  70.815  0.00  0.00     0.036 H 
ATOM     68  H24 E12 d          -1.161  63.547  72.113  0.00  0.00     0.036 H 
ATOM     69  C36 E12 d           0.471  60.486  72.250  0.00  0.00    -0.026 C 
ATOM     70  H25 E12 d           0.093  62.063  73.690  0.00  0.00     0.033 H 
ATOM     71  H26 E12 d          -1.387  61.276  73.043  0.00  0.00     0.033 H 
ATOM     72  C31 E12 d           1.798  61.005  71.657  0.00  0.00     0.020 A 
ATOM     73  H20 E12 d           0.692  59.791  73.073  0.00  0.00     0.042 H 
ATOM     74  H21 E12 d          -0.092  59.959  71.466  0.00  0.00     0.042 H 
ATOM     75  C32 E12 d           1.994  62.321  71.237  0.00  0.00    -0.005 A 
ATOM     76  N30 E12 d           2.822  60.112  71.540  0.00  0.00    -0.327 N 
ATOM     77  C33 E12 d           3.319  62.690  70.679  0.00  0.00    -0.068 A 
ATOM     78  C34 E12 d           4.332  61.785  70.570  0.00  0.00    -0.017 A 
ATOM     79  H18 E12 d           3.486  63.713  70.345  0.00  0.00     0.084 H 
ATOM     80  C29 E12 d           4.099  60.367  71.052  0.00  0.00     0.245 A 
ATOM     81  H19 E12 d           5.292  62.075  70.145  0.00  0.00     0.092 H 
ATOM     82  O35 E12 d           4.975  59.493  71.110  0.00  0.00    -0.268 OA
ATOM     83  H17 E12 d           2.635  59.175  71.836  0.00  0.00     0.169 HD
ATOM     84  H22 E12 d           1.172  63.968  72.255  0.00  0.00     0.092 H 
ENDBRANCH  61  64
ENDBRANCH  58  61
ENDBRANCH  55  58
ENDBRANCH  52  55
ENDBRANCH  49  52
ENDBRANCH  46  49
ENDBRANCH  43  46
ENDBRANCH   1  43
TORSDOF 15
ENDMDL
MODEL 8
REMARK VINA RESULT:      -9.4      1.036      9.749
REMARK  15 active torsions:
REMARK  status: ('A' for Active; 'I' for Inactive)
REMARK    1  A    between atoms: C10_11  and  N17_7 
REMARK    2  A    between atoms: N17_7  and  C24_8 
REMARK    3  A    between atoms: C24_8  and  C63_13 
REMARK    4  A    between atoms: C63_13  and  C64_28 
REMARK    5  A    between atoms: N40_26  and  C37_23 
REMARK    6  A    between atoms: C41_27  and  N40_26 
REMARK    7  A    between atoms: C72_36  and  C41_27 
REMARK    8  A    between atoms: C64_28  and  C65_29 
REMARK    9  A    between atoms: C65_29  and  C66_30 
REMARK   10  A    between atoms: C66_30  and  C67_31 
REMARK   11  A    between atoms: C67_31  and  C68_32 
REMARK   12  A    between atoms: C68_32  and  C69_33 
REMARK   13  A    between atoms: C69_33  and  C70_34 
REMARK   14  A    between atoms: C70_34  and  C71_35 
REMARK   15  A    between atoms: C71_35  and  C72_36 
ROOT
ATOM      1  C67 E12 d           2.859  63.299  71.110  0.00  0.00    -0.065 C 
ATOM      2  H37 E12 d           2.492  64.305  71.361  0.00  0.00     0.033 H 
ATOM      3  H38 E12 d           3.060  62.740  72.035  0.00  0.00     0.033 H 
ENDROOT
BRANCH   1   4
ATOM      4  C66 E12 d           4.152  63.435  70.338  0.00  0.00    -0.065 C 
ATOM      5  H35 E12 d           4.878  63.996  70.945  0.00  0.00     0.033 H 
ATOM      6  H36 E12 d           4.551  62.434  70.123  0.00  0.00     0.033 H 
BRANCH   4   7
ATOM      7  C65 E12 d           3.924  64.167  69.039  0.00  0.00    -0.065 C 
ATOM      8  H33 E12 d           4.401  63.602  68.223  0.00  0.00     0.033 H 
ATOM      9  H34 E12 d           2.842  64.236  68.854  0.00  0.00     0.033 H 
BRANCH   7  10
ATOM     10  C64 E12 d           4.509  65.572  69.071  0.00  0.00    -0.064 C 
ATOM     11  H31 E12 d           5.370  65.592  69.755  0.00  0.00     0.033 H 
ATOM     12  H32 E12 d           4.838  65.851  68.060  0.00  0.00     0.033 H 
BRANCH  10  13
ATOM     13  C63 E12 d           3.470  66.559  69.547  0.00  0.00    -0.043 C 
ATOM     14  H15 E12 d           2.830  66.073  70.298  0.00  0.00     0.035 H 
ATOM     15  H16 E12 d           3.977  67.423  70.001  0.00  0.00     0.035 H 
BRANCH  13  16
ATOM     16  C24 E12 d           2.593  67.046  68.378  0.00  0.00     0.083 C 
ATOM     17  H7  E12 d           1.876  66.266  68.081  0.00  0.00     0.075 H 
ATOM     18  H8  E12 d           2.047  67.959  68.657  0.00  0.00     0.075 H 
BRANCH  16  19
ATOM     19  N17 E12 d           3.584  67.334  67.239  0.00  0.00    -0.067 N 
ATOM     20  H5  E12 d           3.930  68.268  67.392  0.00  0.00     0.277 HD
ATOM     21  H6  E12 d           4.339  66.675  67.346  0.00  0.00     0.277 HD
BRANCH  19  22
ATOM     22  C10 E12 d           3.160  67.268  65.792  0.00  0.00     0.129 C 
ATOM     23  C4  E12 d           3.692  65.974  65.139  0.00  0.00    -0.005 A 
ATOM     24  C3  E12 d           4.500  66.007  64.017  0.00  0.00     0.020 A 
ATOM     25  C5  E12 d           3.269  64.635  65.640  0.00  0.00    -0.068 A 
ATOM     26  N2  E12 d           4.915  64.838  63.444  0.00  0.00    -0.327 N 
ATOM     27  C9  E12 d           4.975  67.307  63.356  0.00  0.00    -0.026 C 
ATOM     28  C1  E12 d           4.595  63.547  63.833  0.00  0.00     0.245 A 
ATOM     29  H1  E12 d           5.521  64.923  62.653  0.00  0.00     0.169 HD
ATOM     30  C6  E12 d           3.689  63.468  65.042  0.00  0.00    -0.017 A 
ATOM     31  O7  E12 d           5.070  62.562  63.235  0.00  0.00    -0.268 OA
ATOM     32  H9  E12 d           3.374  62.502  65.433  0.00  0.00     0.092 H 
ATOM     33  C14 E12 d           4.967  68.475  64.359  0.00  0.00    -0.058 C 
ATOM     34  H10 E12 d           4.306  67.549  62.517  0.00  0.00     0.042 H 
ATOM     35  H11 E12 d           5.998  67.165  62.979  0.00  0.00     0.042 H 
ATOM     36  C13 E12 d           3.579  68.578  65.070  0.00  0.00    -0.034 C 
ATOM     37  H3  E12 d           5.749  68.309  65.114  0.00  0.00     0.033 H 
ATOM     38  H4  E12 d           5.169  69.414  63.823  0.00  0.00     0.033 H 
ATOM     39  H13 E12 d           3.626  69.387  65.814  0.00  0.00     0.036 H 
ATOM     40  H14 E12 d           2.816  68.819  64.316  0.00  0.00     0.036 H 
ATOM     41  H2  E12 d           2.609  64.577  66.504  0.00  0.00     0.084 H 
ATOM     42  H12 E12 d           2.061  67.217  65.760  0.00  0.00     0.092 H 
ENDBRANCH  19  22
ENDBRANCH  16  19
ENDBRANCH  13  16
ENDBRANCH  10  13
ENDBRANCH   7  10
ENDBRANCH   4   7
ENDBRANCH   1   4
BRANCH   1  43
ATOM     43  C68 E12 d           1.780  62.573  70.334  0.00  0.00    -0.065 C 
ATOM     44  H39 E12 d           2.096  61.530  70.190  0.00  0.00     0.033 H 
ATOM     45  H40 E12 d           1.667  63.061  69.354  0.00  0.00     0.033 H 
BRANCH  43  46
ATOM     46  C69 E12 d           0.429  62.574  71.030  0.00  0.00    -0.065 C 
ATOM     47  H41 E12 d          -0.364  62.431  70.280  0.00  0.00     0.033 H 
ATOM     48  H42 E12 d           0.284  63.540  71.536  0.00  0.00     0.033 H 
BRANCH  46  49
ATOM     49  C70 E12 d           0.350  61.458  72.057  0.00  0.00    -0.065 C 
ATOM     50  H43 E12 d           1.367  61.252  72.424  0.00  0.00     0.033 H 
ATOM     51  H44 E12 d          -0.051  60.560  71.563  0.00  0.00     0.033 H 
BRANCH  49  52
ATOM     52  C71 E12 d          -0.536  61.784  73.255  0.00  0.00    -0.064 C 
ATOM     53  H45 E12 d          -1.245  60.956  73.401  0.00  0.00     0.033 H 
ATOM     54  H46 E12 d          -1.092  62.709  73.038  0.00  0.00     0.033 H 
BRANCH  52  55
ATOM     55  C72 E12 d           0.255  61.985  74.562  0.00  0.00    -0.043 C 
ATOM     56  H47 E12 d           0.005  61.167  75.252  0.00  0.00     0.035 H 
ATOM     57  H48 E12 d          -0.046  62.945  75.008  0.00  0.00     0.035 H 
BRANCH  55  58
ATOM     58  C41 E12 d           1.774  62.000  74.352  0.00  0.00     0.083 C 
ATOM     59  H29 E12 d           2.173  63.008  74.534  0.00  0.00     0.075 H 
ATOM     60  H30 E12 d           2.018  61.689  73.326  0.00  0.00     0.075 H 
BRANCH  58  61
ATOM     61  N40 E12 d           2.341  61.038  75.330  0.00  0.00    -0.067 N 
ATOM     62  H27 E12 d           1.753  61.069  76.148  0.00  0.00     0.277 HD
ATOM     63  H28 E12 d           3.263  61.370  75.567  0.00  0.00     0.277 HD
BRANCH  61  64
ATOM     64  C37 E12 d           2.482  59.580  74.940  0.00  0.00     0.129 C 
ATOM     65  C38 E12 d           1.218  58.844  75.432  0.00  0.00    -0.034 C 
ATOM     66  C39 E12 d           1.193  57.400  74.920  0.00  0.00    -0.058 C 
ATOM     67  H23 E12 d           0.326  59.373  75.064  0.00  0.00     0.036 H 
ATOM     68  H24 E12 d           1.211  58.836  76.532  0.00  0.00     0.036 H 
ATOM     69  C36 E12 d           1.130  57.383  73.381  0.00  0.00    -0.026 C 
ATOM     70  H25 E12 d           2.104  56.880  75.252  0.00  0.00     0.033 H 
ATOM     71  H26 E12 d           0.309  56.885  75.325  0.00  0.00     0.033 H 
ATOM     72  C31 E12 d           2.216  58.298  72.775  0.00  0.00     0.020 A 
ATOM     73  H20 E12 d           1.287  56.355  73.025  0.00  0.00     0.042 H 
ATOM     74  H21 E12 d           0.140  57.736  73.057  0.00  0.00     0.042 H 
ATOM     75  C32 E12 d           2.835  59.332  73.476  0.00  0.00    -0.005 A 
ATOM     76  N30 E12 d           2.573  58.070  71.478  0.00  0.00    -0.327 N 
ATOM     77  C33 E12 d           3.861  60.142  72.773  0.00  0.00    -0.068 A 
ATOM     78  C34 E12 d           4.207  59.900  71.478  0.00  0.00    -0.017 A 
ATOM     79  H18 E12 d           4.351  60.954  73.309  0.00  0.00     0.084 H 
ATOM     80  C29 E12 d           3.534  58.758  70.744  0.00  0.00     0.245 A 
ATOM     81  H19 E12 d           4.953  60.516  70.979  0.00  0.00     0.092 H 
ATOM     82  O35 E12 d           3.845  58.372  69.609  0.00  0.00    -0.268 OA
ATOM     83  H17 E12 d           2.093  57.330  71.005  0.00  0.00     0.169 HD
ATOM     84  H22 E12 d           3.329  59.178  75.515  0.00  0.00     0.092 H 
ENDBRANCH  61  64
ENDBRANCH  58  61
ENDBRANCH  55  58
ENDBRANCH  52  55
ENDBRANCH  49  52
ENDBRANCH  46  49
ENDBRANCH  43  46
ENDBRANCH   1  43
TORSDOF 15
ENDMDL
MODEL 9
REMARK VINA RESULT:      -9.4      1.558      2.759
REMARK  15 active torsions:
REMARK  status: ('A' for Active; 'I' for Inactive)
REMARK    1  A    between atoms: C10_11  and  N17_7 
REMARK    2  A    between atoms: N17_7  and  C24_8 
REMARK    3  A    between atoms: C24_8  and  C63_13 
REMARK    4  A    between atoms: C63_13  and  C64_28 
REMARK    5  A    between atoms: N40_26  and  C37_23 
REMARK    6  A    between atoms: C41_27  and  N40_26 
REMARK    7  A    between atoms: C72_36  and  C41_27 
REMARK    8  A    between atoms: C64_28  and  C65_29 
REMARK    9  A    between atoms: C65_29  and  C66_30 
REMARK   10  A    between atoms: C66_30  and  C67_31 
REMARK   11  A    between atoms: C67_31  and  C68_32 
REMARK   12  A    between atoms: C68_32  and  C69_33 
REMARK   13  A    between atoms: C69_33  and  C70_34 
REMARK   14  A    between atoms: C70_34  and  C71_35 
REMARK   15  A    between atoms: C71_35  and  C72_36 
ROOT
ATOM      1  C67 E12 d          -0.192  63.328  70.659  0.00  0.00    -0.065 C 
ATOM      2  H37 E12 d          -1.166  63.468  70.167  0.00  0.00     0.033 H 
ATOM      3  H38 E12 d           0.502  62.834  69.964  0.00  0.00     0.033 H 
ENDROOT
BRANCH   1   4
ATOM      4  C66 E12 d          -0.385  62.434  71.863  0.00  0.00    -0.065 C 
ATOM      5  H35 E12 d          -1.454  62.195  71.969  0.00  0.00     0.033 H 
ATOM      6  H36 E12 d           0.185  61.505  71.718  0.00  0.00     0.033 H 
BRANCH   4   7
ATOM      7  C65 E12 d           0.095  63.118  73.119  0.00  0.00    -0.065 C 
ATOM      8  H33 E12 d           1.093  63.543  72.934  0.00  0.00     0.033 H 
ATOM      9  H34 E12 d          -0.607  63.926  73.374  0.00  0.00     0.033 H 
BRANCH   7  10
ATOM     10  C64 E12 d           0.181  62.152  74.292  0.00  0.00    -0.064 C 
ATOM     11  H31 E12 d          -0.586  62.414  75.036  0.00  0.00     0.033 H 
ATOM     12  H32 E12 d           0.006  61.128  73.932  0.00  0.00     0.033 H 
BRANCH  10  13
ATOM     13  C63 E12 d           1.545  62.230  74.933  0.00  0.00    -0.043 C 
ATOM     14  H15 E12 d           2.230  62.765  74.259  0.00  0.00     0.035 H 
ATOM     15  H16 E12 d           1.465  62.777  75.884  0.00  0.00     0.035 H 
BRANCH  13  16
ATOM     16  C24 E12 d           2.108  60.823  75.208  0.00  0.00     0.083 C 
ATOM     17  H7  E12 d           3.144  60.885  75.573  0.00  0.00     0.075 H 
ATOM     18  H8  E12 d           1.489  60.295  75.949  0.00  0.00     0.075 H 
BRANCH  16  19
ATOM     19  N17 E12 d           2.054  60.108  73.849  0.00  0.00    -0.067 N 
ATOM     20  H5  E12 d           1.630  59.209  74.017  0.00  0.00     0.277 HD
ATOM     21  H6  E12 d           1.450  60.660  73.261  0.00  0.00     0.277 HD
BRANCH  19  22
ATOM     22  C10 E12 d           3.306  59.844  73.048  0.00  0.00     0.129 C 
ATOM     23  C4  E12 d           3.314  60.712  71.771  0.00  0.00    -0.005 A 
ATOM     24  C3  E12 d           3.411  60.148  70.511  0.00  0.00     0.020 A 
ATOM     25  C5  E12 d           3.317  62.201  71.857  0.00  0.00    -0.068 A 
ATOM     26  N2  E12 d           3.458  60.954  69.409  0.00  0.00    -0.327 N 
ATOM     27  C9  E12 d           3.470  58.636  70.266  0.00  0.00    -0.026 C 
ATOM     28  C1  E12 d           3.453  62.339  69.374  0.00  0.00     0.245 A 
ATOM     29  H1  E12 d           3.499  60.491  68.523  0.00  0.00     0.169 HD
ATOM     30  C6  E12 d           3.376  62.995  70.735  0.00  0.00    -0.017 A 
ATOM     31  O7  E12 d           3.471  62.953  68.289  0.00  0.00    -0.268 OA
ATOM     32  H9  E12 d           3.366  64.081  70.825  0.00  0.00     0.092 H 
ATOM     33  C14 E12 d           2.836  57.858  71.433  0.00  0.00    -0.058 C 
ATOM     34  H10 E12 d           4.522  58.330  70.159  0.00  0.00     0.042 H 
ATOM     35  H11 E12 d           2.925  58.401  69.340  0.00  0.00     0.042 H 
ATOM     36  C13 E12 d           3.448  58.319  72.796  0.00  0.00    -0.034 C 
ATOM     37  H3  E12 d           1.752  58.041  71.443  0.00  0.00     0.033 H 
ATOM     38  H4  E12 d           3.025  56.783  71.297  0.00  0.00     0.033 H 
ATOM     39  H13 E12 d           2.936  57.781  73.608  0.00  0.00     0.036 H 
ATOM     40  H14 E12 d           4.517  58.061  72.804  0.00  0.00     0.036 H 
ATOM     41  H2  E12 d           3.271  62.674  72.837  0.00  0.00     0.084 H 
ATOM     42  H12 E12 d           4.171  60.155  73.654  0.00  0.00     0.092 H 
ENDBRANCH  19  22
ENDBRANCH  16  19
ENDBRANCH  13  16
ENDBRANCH  10  13
ENDBRANCH   7  10
ENDBRANCH   4   7
ENDBRANCH   1   4
BRANCH   1  43
ATOM     43  C68 E12 d           0.369  64.689  71.015  0.00  0.00    -0.065 C 
ATOM     44  H39 E12 d           1.452  64.679  70.824  0.00  0.00     0.033 H 
ATOM     45  H40 E12 d           0.186  64.872  72.084  0.00  0.00     0.033 H 
BRANCH  43  46
ATOM     46  C69 E12 d          -0.250  65.825  70.219  0.00  0.00    -0.065 C 
ATOM     47  H41 E12 d          -0.878  66.433  70.886  0.00  0.00     0.033 H 
ATOM     48  H42 E12 d          -0.871  65.406  69.414  0.00  0.00     0.033 H 
BRANCH  46  49
ATOM     49  C70 E12 d           0.827  66.706  69.609  0.00  0.00    -0.065 C 
ATOM     50  H43 E12 d           0.670  67.738  69.958  0.00  0.00     0.033 H 
ATOM     51  H44 E12 d           0.727  66.669  68.514  0.00  0.00     0.033 H 
BRANCH  49  52
ATOM     52  C71 E12 d           2.248  66.286  69.976  0.00  0.00    -0.064 C 
ATOM     53  H45 E12 d           2.267  65.193  70.100  0.00  0.00     0.033 H 
ATOM     54  H46 E12 d           2.520  66.768  70.927  0.00  0.00     0.033 H 
BRANCH  52  55
ATOM     55  C72 E12 d           3.292  66.677  68.914  0.00  0.00    -0.043 C 
ATOM     56  H47 E12 d           3.671  65.759  68.442  0.00  0.00     0.035 H 
ATOM     57  H48 E12 d           4.120  67.201  69.414  0.00  0.00     0.035 H 
BRANCH  55  58
ATOM     58  C41 E12 d           2.728  67.590  67.819  0.00  0.00     0.083 C 
ATOM     59  H29 E12 d           2.392  68.542  68.255  0.00  0.00     0.075 H 
ATOM     60  H30 E12 d           1.884  67.100  67.313  0.00  0.00     0.075 H 
BRANCH  58  61
ATOM     61  N40 E12 d           3.836  67.828  66.860  0.00  0.00    -0.067 N 
ATOM     62  H27 E12 d           4.586  67.207  67.117  0.00  0.00     0.277 HD
ATOM     63  H28 E12 d           4.132  68.783  66.983  0.00  0.00     0.277 HD
BRANCH  61  64
ATOM     64  C37 E12 d           3.587  67.630  65.377  0.00  0.00     0.129 C 
ATOM     65  C38 E12 d           4.268  68.797  64.632  0.00  0.00    -0.034 C 
ATOM     66  C39 E12 d           4.222  68.578  63.116  0.00  0.00    -0.058 C 
ATOM     67  H23 E12 d           5.317  68.868  64.954  0.00  0.00     0.036 H 
ATOM     68  H24 E12 d           3.745  69.734  64.876  0.00  0.00     0.036 H 
ATOM     69  C36 E12 d           5.007  67.309  62.738  0.00  0.00    -0.026 C 
ATOM     70  H25 E12 d           3.175  68.466  62.796  0.00  0.00     0.033 H 
ATOM     71  H26 E12 d           4.668  69.446  62.609  0.00  0.00     0.033 H 
ATOM     72  C31 E12 d           4.572  66.111  63.609  0.00  0.00     0.020 A 
ATOM     73  H20 E12 d           4.822  67.071  61.681  0.00  0.00     0.042 H 
ATOM     74  H21 E12 d           6.081  67.491  62.889  0.00  0.00     0.042 H 
ATOM     75  C32 E12 d           3.934  66.243  64.842  0.00  0.00    -0.005 A 
ATOM     76  N30 E12 d           4.839  64.861  63.132  0.00  0.00    -0.327 N 
ATOM     77  C33 E12 d           3.572  65.008  65.582  0.00  0.00    -0.068 A 
ATOM     78  C34 E12 d           3.845  63.768  65.090  0.00  0.00    -0.017 A 
ATOM     79  H18 E12 d           3.075  65.098  66.547  0.00  0.00     0.084 H 
ATOM     80  C29 E12 d           4.522  63.651  63.739  0.00  0.00     0.245 A 
ATOM     81  H19 E12 d           3.583  62.876  65.658  0.00  0.00     0.092 H 
ATOM     82  O35 E12 d           4.716  62.583  63.142  0.00  0.00    -0.268 OA
ATOM     83  H17 E12 d           5.314  64.810  62.253  0.00  0.00     0.169 HD
ATOM     84  H22 E12 d           2.504  67.740  65.220  0.00  0.00     0.092 H 
ENDBRANCH  61  64
ENDBRANCH  58  61
ENDBRANCH  55  58
ENDBRANCH  52  55
ENDBRANCH  49  52
ENDBRANCH  46  49
ENDBRANCH  43  46
ENDBRANCH   1  43
TORSDOF 15
ENDMDL
MODEL 10
REMARK VINA RESULT:      -9.1      2.151      9.863
REMARK  15 active torsions:
REMARK  status: ('A' for Active; 'I' for Inactive)
REMARK    1  A    between atoms: C10_11  and  N17_7 
REMARK    2  A    between atoms: N17_7  and  C24_8 
REMARK    3  A    between atoms: C24_8  and  C63_13 
REMARK    4  A    between atoms: C63_13  and  C64_28 
REMARK    5  A    between atoms: N40_26  and  C37_23 
REMARK    6  A    between atoms: C41_27  and  N40_26 
REMARK    7  A    between atoms: C72_36  and  C41_27 
REMARK    8  A    between atoms: C64_28  and  C65_29 
REMARK    9  A    between atoms: C65_29  and  C66_30 
REMARK   10  A    between atoms: C66_30  and  C67_31 
REMARK   11  A    between atoms: C67_31  and  C68_32 
REMARK   12  A    between atoms: C68_32  and  C69_33 
REMARK   13  A    between atoms: C69_33  and  C70_34 
REMARK   14  A    between atoms: C70_34  and  C71_35 
REMARK   15  A    between atoms: C71_35  and  C72_36 
ROOT
ATOM      1  C67 E12 d           1.174  67.702  65.473  0.00  0.00    -0.065 C 
ATOM      2  H37 E12 d           2.066  68.038  64.924  0.00  0.00     0.033 H 
ATOM      3  H38 E12 d           1.153  66.603  65.502  0.00  0.00     0.033 H 
ENDROOT
BRANCH   1   4
ATOM      4  C66 E12 d          -0.056  68.188  64.739  0.00  0.00    -0.065 C 
ATOM      5  H35 E12 d          -0.807  67.384  64.722  0.00  0.00     0.033 H 
ATOM      6  H36 E12 d          -0.467  69.063  65.264  0.00  0.00     0.033 H 
BRANCH   4   7
ATOM      7  C65 E12 d           0.286  68.575  63.322  0.00  0.00    -0.065 C 
ATOM      8  H33 E12 d          -0.382  68.035  62.634  0.00  0.00     0.033 H 
ATOM      9  H34 E12 d           0.136  69.659  63.204  0.00  0.00     0.033 H 
BRANCH   7  10
ATOM     10  C64 E12 d           1.728  68.236  62.975  0.00  0.00    -0.064 C 
ATOM     11  H31 E12 d           2.404  68.813  63.624  0.00  0.00     0.033 H 
ATOM     12  H32 E12 d           1.897  67.161  63.135  0.00  0.00     0.033 H 
BRANCH  10  13
ATOM     13  C63 E12 d           2.012  68.576  61.532  0.00  0.00    -0.043 C 
ATOM     14  H15 E12 d           1.525  67.831  60.885  0.00  0.00     0.035 H 
ATOM     15  H16 E12 d           1.607  69.574  61.311  0.00  0.00     0.035 H 
BRANCH  13  16
ATOM     16  C24 E12 d           3.526  68.573  61.250  0.00  0.00     0.083 C 
ATOM     17  H7  E12 d           3.720  68.715  60.177  0.00  0.00     0.075 H 
ATOM     18  H8  E12 d           4.028  69.369  61.822  0.00  0.00     0.075 H 
BRANCH  16  19
ATOM     19  N17 E12 d           4.007  67.189  61.710  0.00  0.00    -0.067 N 
ATOM     20  H5  E12 d           3.190  66.697  62.037  0.00  0.00     0.277 HD
ATOM     21  H6  E12 d           4.372  66.728  60.892  0.00  0.00     0.277 HD
BRANCH  19  22
ATOM     22  C10 E12 d           5.054  67.037  62.788  0.00  0.00     0.129 C 
ATOM     23  C4  E12 d           4.584  66.018  63.848  0.00  0.00    -0.005 A 
ATOM     24  C3  E12 d           4.480  66.358  65.185  0.00  0.00     0.020 A 
ATOM     25  C5  E12 d           4.321  64.597  63.479  0.00  0.00    -0.068 A 
ATOM     26  N2  E12 d           4.102  65.414  66.098  0.00  0.00    -0.327 N 
ATOM     27  C9  E12 d           4.769  67.765  65.723  0.00  0.00    -0.026 C 
ATOM     28  C1  E12 d           3.822  64.077  65.863  0.00  0.00     0.245 A 
ATOM     29  H1  E12 d           4.016  65.724  67.045  0.00  0.00     0.169 HD
ATOM     30  C6  E12 d           3.951  63.659  64.416  0.00  0.00    -0.017 A 
ATOM     31  O7  E12 d           3.457  63.328  66.791  0.00  0.00    -0.268 OA
ATOM     32  H9  E12 d           3.755  62.629  64.119  0.00  0.00     0.092 H 
ATOM     33  C14 E12 d           4.599  68.827  64.622  0.00  0.00    -0.058 C 
ATOM     34  H10 E12 d           5.802  67.800  66.100  0.00  0.00     0.042 H 
ATOM     35  H11 E12 d           4.072  67.984  66.544  0.00  0.00     0.042 H 
ATOM     36  C13 E12 d           5.422  68.437  63.351  0.00  0.00    -0.034 C 
ATOM     37  H3  E12 d           3.535  68.903  64.354  0.00  0.00     0.033 H 
ATOM     38  H4  E12 d           4.953  69.798  64.998  0.00  0.00     0.033 H 
ATOM     39  H13 E12 d           5.236  69.189  62.570  0.00  0.00     0.036 H 
ATOM     40  H14 E12 d           6.490  68.437  63.613  0.00  0.00     0.036 H 
ATOM     41  H2  E12 d           4.423  64.293  62.439  0.00  0.00     0.084 H 
ATOM     42  H12 E12 d           5.963  66.625  62.324  0.00  0.00     0.092 H 
ENDBRANCH  19  22
ENDBRANCH  16  19
ENDBRANCH  13  16
ENDBRANCH  10  13
ENDBRANCH   7  10
ENDBRANCH   4   7
ENDBRANCH   1   4
BRANCH   1  43
ATOM     43  C68 E12 d           1.259  68.220  66.894  0.00  0.00    -0.065 C 
ATOM     44  H39 E12 d           0.302  68.698  67.148  0.00  0.00     0.033 H 
ATOM     45  H40 E12 d           2.067  68.966  66.945  0.00  0.00     0.033 H 
BRANCH  43  46
ATOM     46  C69 E12 d           1.542  67.134  67.918  0.00  0.00    -0.065 C 
ATOM     47  H41 E12 d           1.958  66.254  67.406  0.00  0.00     0.033 H 
ATOM     48  H42 E12 d           0.603  66.856  68.418  0.00  0.00     0.033 H 
BRANCH  46  49
ATOM     49  C70 E12 d           2.535  67.620  68.960  0.00  0.00    -0.065 C 
ATOM     50  H43 E12 d           1.977  68.136  69.756  0.00  0.00     0.033 H 
ATOM     51  H44 E12 d           3.225  68.329  68.477  0.00  0.00     0.033 H 
BRANCH  49  52
ATOM     52  C71 E12 d           3.358  66.504  69.595  0.00  0.00    -0.064 C 
ATOM     53  H45 E12 d           3.429  66.695  70.676  0.00  0.00     0.033 H 
ATOM     54  H46 E12 d           4.366  66.518  69.153  0.00  0.00     0.033 H 
BRANCH  52  55
ATOM     55  C72 E12 d           2.752  65.104  69.384  0.00  0.00    -0.043 C 
ATOM     56  H47 E12 d           3.534  64.439  68.990  0.00  0.00     0.035 H 
ATOM     57  H48 E12 d           1.936  65.183  68.651  0.00  0.00     0.035 H 
BRANCH  55  58
ATOM     58  C41 E12 d           2.193  64.488  70.672  0.00  0.00     0.083 C 
ATOM     59  H29 E12 d           1.362  65.097  71.055  0.00  0.00     0.075 H 
ATOM     60  H30 E12 d           2.982  64.421  71.435  0.00  0.00     0.075 H 
BRANCH  58  61
ATOM     61  N40 E12 d           1.710  63.130  70.312  0.00  0.00    -0.067 N 
ATOM     62  H27 E12 d           1.560  63.126  69.316  0.00  0.00     0.277 HD
ATOM     63  H28 E12 d           0.831  62.996  70.786  0.00  0.00     0.277 HD
BRANCH  61  64
ATOM     64  C37 E12 d           2.575  61.927  70.634  0.00  0.00     0.129 C 
ATOM     65  C38 E12 d           4.042  62.404  70.663  0.00  0.00    -0.034 C 
ATOM     66  C39 E12 d           4.969  61.289  71.161  0.00  0.00    -0.058 C 
ATOM     67  H23 E12 d           4.127  63.270  71.337  0.00  0.00     0.036 H 
ATOM     68  H24 E12 d           4.346  62.698  69.647  0.00  0.00     0.036 H 
ATOM     69  C36 E12 d           4.611  60.907  72.609  0.00  0.00    -0.026 C 
ATOM     70  H25 E12 d           4.856  60.406  70.514  0.00  0.00     0.033 H 
ATOM     71  H26 E12 d           6.011  61.639  71.125  0.00  0.00     0.033 H 
ATOM     72  C31 E12 d           3.097  60.643  72.752  0.00  0.00     0.020 A 
ATOM     73  H20 E12 d           5.162  59.998  72.889  0.00  0.00     0.042 H 
ATOM     74  H21 E12 d           4.897  61.730  73.280  0.00  0.00     0.042 H 
ATOM     75  C32 E12 d           2.141  61.126  71.859  0.00  0.00    -0.005 A 
ATOM     76  N30 E12 d           2.690  59.898  73.819  0.00  0.00    -0.327 N 
ATOM     77  C33 E12 d           0.714  60.804  72.114  0.00  0.00    -0.068 A 
ATOM     78  C34 E12 d           0.325  60.057  73.185  0.00  0.00    -0.017 A 
ATOM     79  H18 E12 d          -0.043  61.176  71.425  0.00  0.00     0.084 H 
ATOM     80  C29 E12 d           1.385  59.528  74.129  0.00  0.00     0.245 A 
ATOM     81  H19 E12 d          -0.729  59.844  73.359  0.00  0.00     0.092 H 
ATOM     82  O35 E12 d           1.164  58.748  75.066  0.00  0.00    -0.268 OA
ATOM     83  H17 E12 d           3.404  59.585  74.446  0.00  0.00     0.169 HD
ATOM     84  H22 E12 d           2.482  61.234  69.786  0.00  0.00     0.092 H 
ENDBRANCH  61  64
ENDBRANCH  58  61
ENDBRANCH  55  58
ENDBRANCH  52  55
ENDBRANCH  49  52
ENDBRANCH  46  49
ENDBRANCH  43  46
ENDBRANCH   1  43
TORSDOF 15
ENDMDL
