REMARK  12 active torsions:
REMARK  status: ('A' for Active; 'I' for Inactive)
REMARK    1  A    between atoms: C6_6  and  O19_13 
REMARK    2  A    between atoms: C10_7  and  C13_10 
REMARK    3  A    between atoms: C11_8  and  C14_11 
REMARK    4  A    between atoms: N12_9  and  C18_12 
REMARK    5  A    between atoms: C18_12  and  C24_18 
REMARK    6  A    between atoms: O19_13  and  C20_14 
REMARK    7  A    between atoms: C28_20  and  O36_25 
REMARK    8  A    between atoms: O36_25  and  C37_26 
REMARK    9  A    between atoms: C37_26  and  C38_27 
REMARK   10  A    between atoms: C37_26  and  C42_28 
REMARK   11  A    between atoms: C51_36  and  O57_39 
REMARK   12  A    between atoms: O57_39  and  C58_40 
ROOT
ATOM      1  C1  C03 d          15.706   5.023  15.804  0.00  0.00    -0.050 A 
ATOM      2  C2  C03 d          14.569   4.894  15.008  0.00  0.00    -0.067 A 
ATOM      3  C3  C03 d          14.754   4.864  13.468  0.00  0.00     0.005 A 
ATOM      4  C4  C03 d          15.960   4.968  12.879  0.00  0.00     0.049 A 
ATOM      5  C5  C03 d          17.124   5.101  13.706  0.00  0.00    -0.024 A 
ATOM      6  C6  C03 d          17.001   5.126  15.173  0.00  0.00     0.080 A 
ATOM      7  C10 C03 d          13.652   4.727  12.563  0.00  0.00     0.031 A 
ATOM      8  C11 C03 d          14.340   4.766  11.325  0.00  0.00     0.022 A 
ATOM      9  N12 C03 d          15.763   4.916  11.483  0.00  0.00    -0.345 N 
ATOM     10  H1  C03 d          15.619   5.046  16.884  0.00  0.00     0.087 H 
ATOM     11  H2  C03 d          13.583   4.817  15.453  0.00  0.00     0.085 H 
ATOM     12  H3  C03 d          18.103   5.184  13.247  0.00  0.00     0.091 H 
ENDROOT
BRANCH   9  13
ATOM     13  C18 C03 d          16.845   5.003  10.458  0.00  0.00     0.025 C 
ATOM     14  H7  C03 d          16.529   4.427   9.576  0.00  0.00     0.072 H 
ATOM     15  H8  C03 d          17.756   4.555  10.882  0.00  0.00     0.072 H 
BRANCH  13  16
ATOM     16  C24 C03 d          17.186   6.453   9.996  0.00  0.00    -0.016 A 
ATOM     17  C27 C03 d          16.281   7.563  10.311  0.00  0.00    -0.041 A 
ATOM     18  C28 C03 d          16.545   8.919   9.910  0.00  0.00     0.070 A 
ATOM     19  H9  C03 d          15.376   7.353  10.869  0.00  0.00     0.088 H 
ATOM     20  C29 C03 d          17.751   9.193   9.163  0.00  0.00    -0.049 A 
ATOM     21  C30 C03 d          18.665   8.139   8.833  0.00  0.00    -0.059 A 
ATOM     22  H10 C03 d          17.967  10.207   8.848  0.00  0.00     0.087 H 
ATOM     23  C31 C03 d          18.391   6.790   9.244  0.00  0.00     0.042 A 
ATOM     24  H11 C03 d          19.566   8.361   8.272  0.00  0.00     0.086 H 
ATOM     25 CL1  C03 d          19.563   5.633   8.792  0.00  0.00    -0.084 Cl
BRANCH  18  26
ATOM     26  O36 C03 d          15.584   9.904  10.305  0.00  0.00    -0.336 OA
BRANCH  26  27
ATOM     27  C37 C03 d          15.105  10.954   9.434  0.00  0.00     0.125 C 
ATOM     28  H12 C03 d          15.956  11.553   9.078  0.00  0.00     0.100 H 
BRANCH  27  29
ATOM     29  C38 C03 d          14.128  11.797  10.266  0.00  0.00    -0.042 C 
ATOM     30  H13 C03 d          13.731  12.616   9.647  0.00  0.00     0.031 H 
ATOM     31  H14 C03 d          14.655  12.217  11.136  0.00  0.00     0.031 H 
ATOM     32  H15 C03 d          13.298  11.163  10.611  0.00  0.00     0.031 H 
ENDBRANCH  27  29
BRANCH  27  33
ATOM     33  C42 C03 d          14.275  10.474   8.245  0.00  0.00     0.203 C 
ATOM     34  O44 C03 d          14.188  11.069   7.233  0.00  0.00    -0.646 OA
ATOM     35  O45 C03 d          13.652   9.305   8.496  0.00  0.00    -0.646 OA
ENDBRANCH  27  33
ENDBRANCH  26  27
ENDBRANCH  18  26
ENDBRANCH  13  16
ENDBRANCH   9  13
BRANCH   8  36
ATOM     36  C14 C03 d          13.679   4.667   9.952  0.00  0.00    -0.036 C 
ATOM     37  H4  C03 d          12.591   4.558  10.076  0.00  0.00     0.035 H 
ATOM     38  H5  C03 d          14.077   3.793   9.416  0.00  0.00     0.035 H 
ATOM     39  H6  C03 d          13.893   5.579   9.376  0.00  0.00     0.035 H 
ENDBRANCH   8  36
BRANCH   7  40
ATOM     40  C13 C03 d          12.176   4.587  12.897  0.00  0.00     0.110 A 
ATOM     41  N46 C03 d          11.063   5.253  12.446  0.00  0.00    -0.126 NA
ATOM     42  O47 C03 d           9.916   4.820  13.036  0.00  0.00    -0.212 OA
ATOM     43  C48 C03 d          10.216   3.832  13.919  0.00  0.00     0.116 A 
ATOM     44  C49 C03 d          11.632   3.655  13.847  0.00  0.00     0.032 A 
ATOM     45  C50 C03 d           9.393   3.083  14.769  0.00  0.00    -0.015 A 
ATOM     46  C53 C03 d          12.215   2.601  14.737  0.00  0.00    -0.065 A 
ATOM     47  C52 C03 d          11.396   1.837  15.600  0.00  0.00    -0.050 A 
ATOM     48  H18 C03 d          13.284   2.421  14.719  0.00  0.00     0.085 H 
ATOM     49  C51 C03 d           9.984   2.060  15.640  0.00  0.00     0.070 A 
ATOM     50  H17 C03 d          11.841   1.079  16.234  0.00  0.00     0.087 H 
ATOM     51  H16 C03 d           8.323   3.258  14.784  0.00  0.00     0.092 H 
BRANCH  49  52
ATOM     52  O57 C03 d           9.106   1.361  16.460  0.00  0.00    -0.356 OA
BRANCH  52  53
ATOM     53  C58 C03 d           8.373   2.054  17.447  0.00  0.00     0.010 C 
ATOM     54  H19 C03 d           7.735   1.345  17.995  0.00  0.00     0.066 H 
ATOM     55  H20 C03 d           7.744   2.818  16.967  0.00  0.00     0.066 H 
ATOM     56  H21 C03 d           9.069   2.539  18.148  0.00  0.00     0.066 H 
ENDBRANCH  52  53
ENDBRANCH  49  52
ENDBRANCH   7  40
BRANCH   6  57
ATOM     57  O19 C03 d          18.177   5.248  15.884  0.00  0.00    -0.255 OA
BRANCH  57  58
ATOM     58  C20 C03 d          18.837   4.152  16.465  0.00  0.00     0.530 C 
ATOM     59  F21 C03 d          19.950   4.620  16.988  0.00  0.00    -0.144 F 
ATOM     60  F22 C03 d          19.128   3.236  15.524  0.00  0.00    -0.144 F 
ATOM     61  F23 C03 d          18.082   3.626  17.422  0.00  0.00    -0.144 F 
ENDBRANCH  57  58
ENDBRANCH   6  57
TORSDOF 12
