MODEL 1
REMARK VINA RESULT:      -9.4      0.000      0.000
REMARK  6 active torsions:
REMARK  status: ('A' for Active; 'I' for Inactive)
REMARK    1  A    between atoms: C2_2  and  O5_5 
REMARK    2  A    between atoms: O5_5  and  C6_6 
REMARK    3  A    between atoms: C11_9  and  N16_12 
REMARK    4  A    between atoms: N16_12  and  C18_13 
REMARK    5  A    between atoms: C23_17  and  C26_19 
REMARK    6  A    between atoms: C29_21  and  C36_25 
REMARK       I    between atoms: C36_25  and  N38_27 
ROOT
ATOM      1  C18 STJ d          20.961  44.380  54.704  0.00  0.00     0.131 A 
ATOM      2  N19 STJ d          21.037  44.472  56.061  0.00  0.00    -0.224 NA
ATOM      3  C20 STJ d          22.229  44.610  56.692  0.00  0.00     0.089 A 
ATOM      4  N22 STJ d          23.376  44.653  55.972  0.00  0.00    -0.241 NA
ATOM      5  C23 STJ d          23.361  44.562  54.617  0.00  0.00     0.072 A 
ATOM      6  C24 STJ d          22.132  44.417  53.949  0.00  0.00    -0.010 A 
ATOM      7  H6  STJ d          22.265  44.687  57.773  0.00  0.00     0.146 H 
ATOM      8  H7  STJ d          22.096  44.336  52.869  0.00  0.00     0.093 H 
ENDROOT
BRANCH   1   9
ATOM      9  N16 STJ d          19.786  44.244  54.034  0.00  0.00    -0.341 N 
ATOM     10  H5  STJ d          19.064  44.941  54.265  0.00  0.00     0.167 HD
BRANCH   9  11
ATOM     11  C11 STJ d          19.427  43.326  53.108  0.00  0.00     0.033 A 
ATOM     12  C9  STJ d          20.287  42.788  52.147  0.00  0.00    -0.055 A 
ATOM     13  C7  STJ d          19.822  41.852  51.218  0.00  0.00    -0.048 A 
ATOM     14  H2  STJ d          21.326  43.100  52.121  0.00  0.00     0.087 H 
ATOM     15  C6  STJ d          18.468  41.452  51.237  0.00  0.00     0.078 A 
ATOM     16  H1  STJ d          20.502  41.433  50.484  0.00  0.00     0.087 H 
ATOM     17  C14 STJ d          17.602  42.001  52.179  0.00  0.00    -0.048 A 
ATOM     18  C12 STJ d          18.074  42.934  53.109  0.00  0.00    -0.055 A 
ATOM     19  H4  STJ d          16.559  41.704  52.191  0.00  0.00     0.087 H 
ATOM     20  H3  STJ d          17.392  43.359  53.838  0.00  0.00     0.087 H 
BRANCH  15  21
ATOM     21  O5  STJ d          17.971  40.533  50.309  0.00  0.00    -0.255 OA
BRANCH  21  22
ATOM     22  C2  STJ d          17.693  39.206  50.715  0.00  0.00     0.530 C 
ATOM     23  F1  STJ d          17.987  38.414  49.655  0.00  0.00    -0.144 F 
ATOM     24  F3  STJ d          16.379  39.105  51.063  0.00  0.00    -0.144 F 
ATOM     25  F4  STJ d          18.480  38.887  51.776  0.00  0.00    -0.144 F 
ENDBRANCH  21  22
ENDBRANCH  15  21
ENDBRANCH   9  11
ENDBRANCH   1   9
BRANCH   5  26
ATOM     26  C26 STJ d          24.644  44.603  53.878  0.00  0.00    -0.006 A 
ATOM     27  C27 STJ d          24.624  45.137  52.586  0.00  0.00    -0.056 A 
ATOM     28  C29 STJ d          25.784  45.227  51.816  0.00  0.00     0.032 A 
ATOM     29  H8  STJ d          23.686  45.488  52.173  0.00  0.00     0.086 H 
ATOM     30  C30 STJ d          27.002  44.761  52.346  0.00  0.00    -0.068 A 
ATOM     31  C32 STJ d          27.034  44.220  53.645  0.00  0.00    -0.081 A 
ATOM     32  H9  STJ d          27.910  44.818  51.757  0.00  0.00     0.085 H 
ATOM     33  C34 STJ d          25.856  44.140  54.415  0.00  0.00    -0.071 A 
ATOM     34  H10 STJ d          27.971  43.862  54.056  0.00  0.00     0.083 H 
ATOM     35  H11 STJ d          25.886  43.723  55.415  0.00  0.00     0.084 H 
BRANCH  28  36
ATOM     36  C36 STJ d          25.600  45.830  50.437  0.00  0.00     0.249 C 
ATOM     37  O37 STJ d          26.062  45.207  49.495  0.00  0.00    -0.268 OA
ATOM     38  N38 STJ d          24.997  47.026  50.248  0.00  0.00    -0.366 N 
ATOM     39  H12 STJ d          24.893  47.393  49.324  0.00  0.00     0.159 HD
ATOM     40  H13 STJ d          24.655  47.542  51.033  0.00  0.00     0.159 HD
ENDBRANCH  28  36
ENDBRANCH   5  26
TORSDOF 6
ENDMDL
MODEL 2
REMARK VINA RESULT:      -8.4      2.893      4.402
REMARK  6 active torsions:
REMARK  status: ('A' for Active; 'I' for Inactive)
REMARK    1  A    between atoms: C2_2  and  O5_5 
REMARK    2  A    between atoms: O5_5  and  C6_6 
REMARK    3  A    between atoms: C11_9  and  N16_12 
REMARK    4  A    between atoms: N16_12  and  C18_13 
REMARK    5  A    between atoms: C23_17  and  C26_19 
REMARK    6  A    between atoms: C29_21  and  C36_25 
REMARK       I    between atoms: C36_25  and  N38_27 
ROOT
ATOM      1  C18 STJ d          21.137  44.134  53.959  0.00  0.00     0.131 A 
ATOM      2  N19 STJ d          22.225  43.657  53.294  0.00  0.00    -0.224 NA
ATOM      3  C20 STJ d          23.459  43.674  53.856  0.00  0.00     0.089 A 
ATOM      4  N22 STJ d          23.627  44.178  55.103  0.00  0.00    -0.241 NA
ATOM      5  C23 STJ d          22.579  44.670  55.812  0.00  0.00     0.072 A 
ATOM      6  C24 STJ d          21.295  44.660  55.240  0.00  0.00    -0.010 A 
ATOM      7  H6  STJ d          24.310  43.284  53.310  0.00  0.00     0.146 H 
ATOM      8  H7  STJ d          20.444  45.053  55.785  0.00  0.00     0.093 H 
ENDROOT
BRANCH   1   9
ATOM      9  N16 STJ d          19.884  44.131  53.431  0.00  0.00    -0.341 N 
ATOM     10  H5  STJ d          19.299  44.941  53.684  0.00  0.00     0.167 HD
BRANCH   9  11
ATOM     11  C11 STJ d          19.295  43.222  52.623  0.00  0.00     0.033 A 
ATOM     12  C9  STJ d          19.859  42.718  51.448  0.00  0.00    -0.055 A 
ATOM     13  C7  STJ d          19.167  41.787  50.667  0.00  0.00    -0.048 A 
ATOM     14  H2  STJ d          20.843  43.052  51.139  0.00  0.00     0.087 H 
ATOM     15  C6  STJ d          17.879  41.358  51.056  0.00  0.00     0.078 A 
ATOM     16  H1  STJ d          19.620  41.395  49.763  0.00  0.00     0.087 H 
ATOM     17  C14 STJ d          17.303  41.872  52.215  0.00  0.00    -0.048 A 
ATOM     18  C12 STJ d          18.003  42.800  52.996  0.00  0.00    -0.055 A 
ATOM     19  H4  STJ d          16.311  41.552  52.513  0.00  0.00     0.087 H 
ATOM     20  H3  STJ d          17.546  43.199  53.895  0.00  0.00     0.087 H 
BRANCH  15  21
ATOM     21  O5  STJ d          17.157  40.443  50.284  0.00  0.00    -0.255 OA
BRANCH  21  22
ATOM     22  C2  STJ d          17.224  39.063  50.588  0.00  0.00     0.530 C 
ATOM     23  F1  STJ d          16.642  38.417  49.548  0.00  0.00    -0.144 F 
ATOM     24  F3  STJ d          16.565  38.822  51.756  0.00  0.00    -0.144 F 
ATOM     25  F4  STJ d          18.526  38.691  50.705  0.00  0.00    -0.144 F 
ENDBRANCH  21  22
ENDBRANCH  15  21
ENDBRANCH   9  11
ENDBRANCH   1   9
BRANCH   5  26
ATOM     26  C26 STJ d          22.820  45.219  57.166  0.00  0.00    -0.006 A 
ATOM     27  C27 STJ d          23.316  46.524  57.251  0.00  0.00    -0.056 A 
ATOM     28  C29 STJ d          23.565  47.131  58.482  0.00  0.00     0.032 A 
ATOM     29  H8  STJ d          23.512  47.076  56.340  0.00  0.00     0.086 H 
ATOM     30  C30 STJ d          23.322  46.412  59.668  0.00  0.00    -0.068 A 
ATOM     31  C32 STJ d          22.825  45.097  59.595  0.00  0.00    -0.081 A 
ATOM     32  H9  STJ d          23.517  46.868  60.632  0.00  0.00     0.085 H 
ATOM     33  C34 STJ d          22.572  44.497  58.345  0.00  0.00    -0.071 A 
ATOM     34  H10 STJ d          22.635  44.542  60.506  0.00  0.00     0.083 H 
ATOM     35  H11 STJ d          22.188  43.485  58.294  0.00  0.00     0.084 H 
BRANCH  28  36
ATOM     36  C36 STJ d          24.100  48.548  58.409  0.00  0.00     0.249 C 
ATOM     37  O37 STJ d          23.388  49.431  58.858  0.00  0.00    -0.268 OA
ATOM     38  N38 STJ d          25.288  48.841  57.834  0.00  0.00    -0.366 N 
ATOM     39  H12 STJ d          25.609  49.787  57.803  0.00  0.00     0.159 HD
ATOM     40  H13 STJ d          25.845  48.111  57.438  0.00  0.00     0.159 HD
ENDBRANCH  28  36
ENDBRANCH   5  26
TORSDOF 6
ENDMDL
MODEL 3
REMARK VINA RESULT:      -7.9      3.081      4.286
REMARK  6 active torsions:
REMARK  status: ('A' for Active; 'I' for Inactive)
REMARK    1  A    between atoms: C2_2  and  O5_5 
REMARK    2  A    between atoms: O5_5  and  C6_6 
REMARK    3  A    between atoms: C11_9  and  N16_12 
REMARK    4  A    between atoms: N16_12  and  C18_13 
REMARK    5  A    between atoms: C23_17  and  C26_19 
REMARK    6  A    between atoms: C29_21  and  C36_25 
REMARK       I    between atoms: C36_25  and  N38_27 
ROOT
ATOM      1  C18 STJ d          21.515  44.052  54.004  0.00  0.00     0.131 A 
ATOM      2  N19 STJ d          22.351  43.148  53.421  0.00  0.00    -0.224 NA
ATOM      3  C20 STJ d          23.691  43.198  53.619  0.00  0.00     0.089 A 
ATOM      4  N22 STJ d          24.224  44.165  54.404  0.00  0.00    -0.241 NA
ATOM      5  C23 STJ d          23.440  45.095  55.009  0.00  0.00     0.072 A 
ATOM      6  C24 STJ d          22.049  45.055  54.811  0.00  0.00    -0.010 A 
ATOM      7  H6  STJ d          24.337  42.466  53.148  0.00  0.00     0.146 H 
ATOM      8  H7  STJ d          21.403  45.790  55.278  0.00  0.00     0.093 H 
ENDROOT
BRANCH   1   9
ATOM      9  N16 STJ d          20.167  44.034  53.833  0.00  0.00    -0.341 N 
ATOM     10  H5  STJ d          19.639  44.684  54.433  0.00  0.00     0.167 HD
BRANCH   9  11
ATOM     11  C11 STJ d          19.418  43.288  52.990  0.00  0.00     0.033 A 
ATOM     12  C9  STJ d          18.125  42.834  53.265  0.00  0.00    -0.055 A 
ATOM     13  C7  STJ d          17.430  42.054  52.336  0.00  0.00    -0.048 A 
ATOM     14  H2  STJ d          17.656  43.090  54.209  0.00  0.00     0.087 H 
ATOM     15  C6  STJ d          18.040  41.706  51.111  0.00  0.00     0.078 A 
ATOM     16  H1  STJ d          16.424  41.717  52.556  0.00  0.00     0.087 H 
ATOM     17  C14 STJ d          19.336  42.138  50.840  0.00  0.00    -0.048 A 
ATOM     18  C12 STJ d          20.025  42.923  51.772  0.00  0.00    -0.055 A 
ATOM     19  H4  STJ d          19.812  41.866  49.905  0.00  0.00     0.087 H 
ATOM     20  H3  STJ d          21.035  43.252  51.555  0.00  0.00     0.087 H 
BRANCH  15  21
ATOM     21  O5  STJ d          17.377  40.912  50.171  0.00  0.00    -0.255 OA
BRANCH  21  22
ATOM     22  C2  STJ d          17.478  39.503  50.247  0.00  0.00     0.530 C 
ATOM     23  F1  STJ d          17.202  39.034  49.006  0.00  0.00    -0.144 F 
ATOM     24  F3  STJ d          16.588  39.033  51.166  0.00  0.00    -0.144 F 
ATOM     25  F4  STJ d          18.742  39.162  50.611  0.00  0.00    -0.144 F 
ENDBRANCH  21  22
ENDBRANCH  15  21
ENDBRANCH   9  11
ENDBRANCH   1   9
BRANCH   5  26
ATOM     26  C26 STJ d          24.075  46.135  55.849  0.00  0.00    -0.006 A 
ATOM     27  C27 STJ d          23.339  46.620  56.936  0.00  0.00    -0.056 A 
ATOM     28  C29 STJ d          23.856  47.594  57.791  0.00  0.00     0.032 A 
ATOM     29  H8  STJ d          22.345  46.231  57.117  0.00  0.00     0.086 H 
ATOM     30  C30 STJ d          25.144  48.110  57.550  0.00  0.00    -0.068 A 
ATOM     31  C32 STJ d          25.893  47.631  56.459  0.00  0.00    -0.081 A 
ATOM     32  H9  STJ d          25.556  48.871  58.202  0.00  0.00     0.085 H 
ATOM     33  C34 STJ d          25.361  46.643  55.606  0.00  0.00    -0.071 A 
ATOM     34  H10 STJ d          26.885  48.025  56.273  0.00  0.00     0.083 H 
ATOM     35  H11 STJ d          25.942  46.277  54.767  0.00  0.00     0.084 H 
BRANCH  28  36
ATOM     36  C36 STJ d          22.939  48.015  58.922  0.00  0.00     0.249 C 
ATOM     37  O37 STJ d          22.143  47.184  59.327  0.00  0.00    -0.268 OA
ATOM     38  N38 STJ d          22.959  49.265  59.438  0.00  0.00    -0.366 N 
ATOM     39  H12 STJ d          22.340  49.508  60.184  0.00  0.00     0.159 HD
ATOM     40  H13 STJ d          23.593  49.947  59.072  0.00  0.00     0.159 HD
ENDBRANCH  28  36
ENDBRANCH   5  26
TORSDOF 6
ENDMDL
MODEL 4
REMARK VINA RESULT:      -7.9      1.883      2.308
REMARK  6 active torsions:
REMARK  status: ('A' for Active; 'I' for Inactive)
REMARK    1  A    between atoms: C2_2  and  O5_5 
REMARK    2  A    between atoms: O5_5  and  C6_6 
REMARK    3  A    between atoms: C11_9  and  N16_12 
REMARK    4  A    between atoms: N16_12  and  C18_13 
REMARK    5  A    between atoms: C23_17  and  C26_19 
REMARK    6  A    between atoms: C29_21  and  C36_25 
REMARK       I    between atoms: C36_25  and  N38_27 
ROOT
ATOM      1  C18 STJ d          21.953  44.870  56.265  0.00  0.00     0.131 A 
ATOM      2  N19 STJ d          22.428  44.595  57.511  0.00  0.00    -0.224 NA
ATOM      3  C20 STJ d          23.688  44.937  57.878  0.00  0.00     0.089 A 
ATOM      4  N22 STJ d          24.504  45.562  56.995  0.00  0.00    -0.241 NA
ATOM      5  C23 STJ d          24.086  45.859  55.737  0.00  0.00     0.072 A 
ATOM      6  C24 STJ d          22.782  45.508  55.343  0.00  0.00    -0.010 A 
ATOM      7  H6  STJ d          24.043  44.712  58.877  0.00  0.00     0.146 H 
ATOM      8  H7  STJ d          22.429  45.729  54.343  0.00  0.00     0.093 H 
ENDROOT
BRANCH   1   9
ATOM      9  N16 STJ d          20.697  44.546  55.860  0.00  0.00    -0.341 N 
ATOM     10  H5  STJ d          19.946  44.785  56.524  0.00  0.00     0.167 HD
BRANCH   9  11
ATOM     11  C11 STJ d          20.289  43.957  54.714  0.00  0.00     0.033 A 
ATOM     12  C9  STJ d          21.145  43.490  53.712  0.00  0.00    -0.055 A 
ATOM     13  C7  STJ d          20.630  42.905  52.551  0.00  0.00    -0.048 A 
ATOM     14  H2  STJ d          22.218  43.584  53.836  0.00  0.00     0.087 H 
ATOM     15  C6  STJ d          19.233  42.794  52.376  0.00  0.00     0.078 A 
ATOM     16  H1  STJ d          21.304  42.537  51.786  0.00  0.00     0.087 H 
ATOM     17  C14 STJ d          18.376  43.275  53.362  0.00  0.00    -0.048 A 
ATOM     18  C12 STJ d          18.897  43.856  54.525  0.00  0.00    -0.055 A 
ATOM     19  H4  STJ d          17.303  43.200  53.228  0.00  0.00     0.087 H 
ATOM     20  H3  STJ d          18.222  44.232  55.286  0.00  0.00     0.087 H 
BRANCH  15  21
ATOM     21  O5  STJ d          18.691  42.230  51.218  0.00  0.00    -0.255 OA
BRANCH  21  22
ATOM     22  C2  STJ d          18.794  40.836  51.001  0.00  0.00     0.530 C 
ATOM     23  F1  STJ d          18.870  40.265  52.229  0.00  0.00    -0.144 F 
ATOM     24  F3  STJ d          19.905  40.572  50.259  0.00  0.00    -0.144 F 
ATOM     25  F4  STJ d          17.685  40.400  50.347  0.00  0.00    -0.144 F 
ENDBRANCH  21  22
ENDBRANCH  15  21
ENDBRANCH   9  11
ENDBRANCH   1   9
BRANCH   5  26
ATOM     26  C26 STJ d          25.021  46.533  54.808  0.00  0.00    -0.006 A 
ATOM     27  C27 STJ d          24.990  46.138  53.466  0.00  0.00    -0.056 A 
ATOM     28  C29 STJ d          25.825  46.721  52.514  0.00  0.00     0.032 A 
ATOM     29  H8  STJ d          24.300  45.360  53.160  0.00  0.00     0.086 H 
ATOM     30  C30 STJ d          26.730  47.724  52.912  0.00  0.00    -0.068 A 
ATOM     31  C32 STJ d          26.772  48.129  54.260  0.00  0.00    -0.081 A 
ATOM     32  H9  STJ d          27.390  48.182  52.184  0.00  0.00     0.085 H 
ATOM     33  C34 STJ d          25.918  47.535  55.211  0.00  0.00    -0.071 A 
ATOM     34  H10 STJ d          27.466  48.902  54.568  0.00  0.00     0.083 H 
ATOM     35  H11 STJ d          25.954  47.851  56.247  0.00  0.00     0.084 H 
BRANCH  28  36
ATOM     36  C36 STJ d          25.672  46.188  51.104  0.00  0.00     0.249 C 
ATOM     37  O37 STJ d          24.685  46.546  50.481  0.00  0.00    -0.268 OA
ATOM     38  N38 STJ d          26.554  45.316  50.563  0.00  0.00    -0.366 N 
ATOM     39  H12 STJ d          26.421  44.985  49.629  0.00  0.00     0.159 HD
ATOM     40  H13 STJ d          27.339  45.004  51.098  0.00  0.00     0.159 HD
ENDBRANCH  28  36
ENDBRANCH   5  26
TORSDOF 6
ENDMDL
MODEL 5
REMARK VINA RESULT:      -7.0      4.641      8.297
REMARK  6 active torsions:
REMARK  status: ('A' for Active; 'I' for Inactive)
REMARK    1  A    between atoms: C2_2  and  O5_5 
REMARK    2  A    between atoms: O5_5  and  C6_6 
REMARK    3  A    between atoms: C11_9  and  N16_12 
REMARK    4  A    between atoms: N16_12  and  C18_13 
REMARK    5  A    between atoms: C23_17  and  C26_19 
REMARK    6  A    between atoms: C29_21  and  C36_25 
REMARK       I    between atoms: C36_25  and  N38_27 
ROOT
ATOM      1  C18 STJ d          22.771  43.712  54.434  0.00  0.00     0.131 A 
ATOM      2  N19 STJ d          22.465  44.220  55.660  0.00  0.00    -0.224 NA
ATOM      3  C20 STJ d          21.191  44.222  56.125  0.00  0.00     0.089 A 
ATOM      4  N22 STJ d          20.192  43.717  55.363  0.00  0.00    -0.241 NA
ATOM      5  C23 STJ d          20.436  43.200  54.131  0.00  0.00     0.072 A 
ATOM      6  C24 STJ d          21.752  43.193  53.636  0.00  0.00    -0.010 A 
ATOM      7  H6  STJ d          20.972  44.628  57.106  0.00  0.00     0.146 H 
ATOM      8  H7  STJ d          21.971  42.791  52.654  0.00  0.00     0.093 H 
ENDROOT
BRANCH   1   9
ATOM      9  N16 STJ d          24.034  43.688  53.934  0.00  0.00    -0.341 N 
ATOM     10  H5  STJ d          24.533  42.793  54.041  0.00  0.00     0.167 HD
BRANCH   9  11
ATOM     11  C11 STJ d          24.731  44.668  53.317  0.00  0.00     0.033 A 
ATOM     12  C9  STJ d          25.703  44.455  52.335  0.00  0.00    -0.055 A 
ATOM     13  C7  STJ d          26.385  45.532  51.761  0.00  0.00    -0.048 A 
ATOM     14  H2  STJ d          25.931  43.444  52.016  0.00  0.00     0.087 H 
ATOM     15  C6  STJ d          26.103  46.851  52.182  0.00  0.00     0.078 A 
ATOM     16  H1  STJ d          27.128  45.355  50.992  0.00  0.00     0.087 H 
ATOM     17  C14 STJ d          25.151  47.068  53.174  0.00  0.00    -0.048 A 
ATOM     18  C12 STJ d          24.468  45.986  53.742  0.00  0.00    -0.055 A 
ATOM     19  H4  STJ d          24.937  48.077  53.507  0.00  0.00     0.087 H 
ATOM     20  H3  STJ d          23.730  46.162  54.517  0.00  0.00     0.087 H 
BRANCH  15  21
ATOM     21  O5  STJ d          26.782  47.945  51.638  0.00  0.00    -0.255 OA
BRANCH  21  22
ATOM     22  C2  STJ d          26.312  48.540  50.443  0.00  0.00     0.530 C 
ATOM     23  F1  STJ d          26.469  47.610  49.469  0.00  0.00    -0.144 F 
ATOM     24  F3  STJ d          27.035  49.664  50.181  0.00  0.00    -0.144 F 
ATOM     25  F4  STJ d          24.998  48.857  50.586  0.00  0.00    -0.144 F 
ENDBRANCH  21  22
ENDBRANCH  15  21
ENDBRANCH   9  11
ENDBRANCH   1   9
BRANCH   5  26
ATOM     26  C26 STJ d          19.306  42.671  53.335  0.00  0.00    -0.006 A 
ATOM     27  C27 STJ d          19.610  41.777  52.302  0.00  0.00    -0.056 A 
ATOM     28  C29 STJ d          18.613  41.218  51.504  0.00  0.00     0.032 A 
ATOM     29  H8  STJ d          20.645  41.515  52.118  0.00  0.00     0.086 H 
ATOM     30  C30 STJ d          17.268  41.566  51.734  0.00  0.00    -0.068 A 
ATOM     31  C32 STJ d          16.949  42.465  52.769  0.00  0.00    -0.081 A 
ATOM     32  H9  STJ d          16.483  41.144  51.117  0.00  0.00     0.085 H 
ATOM     33  C34 STJ d          17.966  43.019  53.572  0.00  0.00    -0.071 A 
ATOM     34  H10 STJ d          15.915  42.733  52.950  0.00  0.00     0.083 H 
ATOM     35  H11 STJ d          17.716  43.711  54.369  0.00  0.00     0.084 H 
BRANCH  28  36
ATOM     36  C36 STJ d          19.101  40.267  50.429  0.00  0.00     0.249 C 
ATOM     37  O37 STJ d          20.283  40.330  50.129  0.00  0.00    -0.268 OA
ATOM     38  N38 STJ d          18.269  39.415  49.788  0.00  0.00    -0.366 N 
ATOM     39  H12 STJ d          18.626  38.802  49.084  0.00  0.00     0.159 HD
ATOM     40  H13 STJ d          17.296  39.399  50.019  0.00  0.00     0.159 HD
ENDBRANCH  28  36
ENDBRANCH   5  26
TORSDOF 6
ENDMDL
MODEL 6
REMARK VINA RESULT:      -6.8      3.680      4.832
REMARK  6 active torsions:
REMARK  status: ('A' for Active; 'I' for Inactive)
REMARK    1  A    between atoms: C2_2  and  O5_5 
REMARK    2  A    between atoms: O5_5  and  C6_6 
REMARK    3  A    between atoms: C11_9  and  N16_12 
REMARK    4  A    between atoms: N16_12  and  C18_13 
REMARK    5  A    between atoms: C23_17  and  C26_19 
REMARK    6  A    between atoms: C29_21  and  C36_25 
REMARK       I    between atoms: C36_25  and  N38_27 
ROOT
ATOM      1  C18 STJ d          23.652  44.374  54.056  0.00  0.00     0.131 A 
ATOM      2  N19 STJ d          24.229  44.393  52.822  0.00  0.00    -0.224 NA
ATOM      3  C20 STJ d          25.158  45.324  52.493  0.00  0.00     0.089 A 
ATOM      4  N22 STJ d          25.526  46.264  53.397  0.00  0.00    -0.241 NA
ATOM      5  C23 STJ d          24.983  46.295  54.641  0.00  0.00     0.072 A 
ATOM      6  C24 STJ d          24.017  45.337  54.996  0.00  0.00    -0.010 A 
ATOM      7  H6  STJ d          25.607  45.318  51.506  0.00  0.00     0.146 H 
ATOM      8  H7  STJ d          23.565  45.346  55.981  0.00  0.00     0.093 H 
ENDROOT
BRANCH   1   9
ATOM      9  N16 STJ d          22.721  43.457  54.426  0.00  0.00    -0.341 N 
ATOM     10  H5  STJ d          22.974  42.875  55.238  0.00  0.00     0.167 HD
BRANCH   9  11
ATOM     11  C11 STJ d          21.510  43.196  53.884  0.00  0.00     0.033 A 
ATOM     12  C9  STJ d          21.295  42.840  52.550  0.00  0.00    -0.055 A 
ATOM     13  C7  STJ d          20.003  42.602  52.074  0.00  0.00    -0.048 A 
ATOM     14  H2  STJ d          22.141  42.748  51.877  0.00  0.00     0.087 H 
ATOM     15  C6  STJ d          18.896  42.735  52.942  0.00  0.00     0.078 A 
ATOM     16  H1  STJ d          19.850  42.316  51.040  0.00  0.00     0.087 H 
ATOM     17  C14 STJ d          19.101  43.109  54.267  0.00  0.00    -0.048 A 
ATOM     18  C12 STJ d          20.399  43.341  54.739  0.00  0.00    -0.055 A 
ATOM     19  H4  STJ d          18.254  43.220  54.934  0.00  0.00     0.087 H 
ATOM     20  H3  STJ d          20.550  43.636  55.772  0.00  0.00     0.087 H 
BRANCH  15  21
ATOM     21  O5  STJ d          17.591  42.521  52.488  0.00  0.00    -0.255 OA
BRANCH  21  22
ATOM     22  C2  STJ d          17.292  41.364  51.732  0.00  0.00     0.530 C 
ATOM     23  F1  STJ d          16.001  41.054  52.006  0.00  0.00    -0.144 F 
ATOM     24  F3  STJ d          18.133  40.355  52.093  0.00  0.00    -0.144 F 
ATOM     25  F4  STJ d          17.440  41.640  50.409  0.00  0.00    -0.144 F 
ENDBRANCH  21  22
ENDBRANCH  15  21
ENDBRANCH   9  11
ENDBRANCH   1   9
BRANCH   5  26
ATOM     26  C26 STJ d          25.412  47.350  55.588  0.00  0.00    -0.006 A 
ATOM     27  C27 STJ d          24.766  47.402  56.828  0.00  0.00    -0.056 A 
ATOM     28  C29 STJ d          25.108  48.353  57.789  0.00  0.00     0.032 A 
ATOM     29  H8  STJ d          23.981  46.688  57.045  0.00  0.00     0.086 H 
ATOM     30  C30 STJ d          26.120  49.290  57.503  0.00  0.00    -0.068 A 
ATOM     31  C32 STJ d          26.777  49.248  56.259  0.00  0.00    -0.081 A 
ATOM     32  H9  STJ d          26.392  50.039  58.239  0.00  0.00     0.085 H 
ATOM     33  C34 STJ d          26.426  48.278  55.299  0.00  0.00    -0.071 A 
ATOM     34  H10 STJ d          27.558  49.966  56.038  0.00  0.00     0.083 H 
ATOM     35  H11 STJ d          26.934  48.249  54.342  0.00  0.00     0.084 H 
BRANCH  28  36
ATOM     36  C36 STJ d          24.319  48.281  59.081  0.00  0.00     0.249 C 
ATOM     37  O37 STJ d          24.627  47.402  59.869  0.00  0.00    -0.268 OA
ATOM     38  N38 STJ d          23.286  49.115  59.342  0.00  0.00    -0.366 N 
ATOM     39  H12 STJ d          22.788  49.038  60.206  0.00  0.00     0.159 HD
ATOM     40  H13 STJ d          23.022  49.808  58.672  0.00  0.00     0.159 HD
ENDBRANCH  28  36
ENDBRANCH   5  26
TORSDOF 6
ENDMDL
MODEL 7
REMARK VINA RESULT:      -6.7      5.623      9.222
REMARK  6 active torsions:
REMARK  status: ('A' for Active; 'I' for Inactive)
REMARK    1  A    between atoms: C2_2  and  O5_5 
REMARK    2  A    between atoms: O5_5  and  C6_6 
REMARK    3  A    between atoms: C11_9  and  N16_12 
REMARK    4  A    between atoms: N16_12  and  C18_13 
REMARK    5  A    between atoms: C23_17  and  C26_19 
REMARK    6  A    between atoms: C29_21  and  C36_25 
REMARK       I    between atoms: C36_25  and  N38_27 
ROOT
ATOM      1  C18 STJ d          21.224  44.059  55.529  0.00  0.00     0.131 A 
ATOM      2  N19 STJ d          22.381  44.167  54.818  0.00  0.00    -0.224 NA
ATOM      3  C20 STJ d          22.457  43.757  53.528  0.00  0.00     0.089 A 
ATOM      4  N22 STJ d          21.370  43.221  52.923  0.00  0.00    -0.241 NA
ATOM      5  C23 STJ d          20.190  43.086  53.582  0.00  0.00     0.072 A 
ATOM      6  C24 STJ d          20.098  43.506  54.921  0.00  0.00    -0.010 A 
ATOM      7  H6  STJ d          23.387  43.858  52.981  0.00  0.00     0.146 H 
ATOM      8  H7  STJ d          19.169  43.401  55.470  0.00  0.00     0.093 H 
ENDROOT
BRANCH   1   9
ATOM      9  N16 STJ d          21.106  44.461  56.821  0.00  0.00    -0.341 N 
ATOM     10  H5  STJ d          20.282  44.097  57.322  0.00  0.00     0.167 HD
BRANCH   9  11
ATOM     11  C11 STJ d          21.912  45.268  57.547  0.00  0.00     0.033 A 
ATOM     12  C9  STJ d          21.774  46.656  57.638  0.00  0.00    -0.055 A 
ATOM     13  C7  STJ d          22.666  47.413  58.403  0.00  0.00    -0.048 A 
ATOM     14  H2  STJ d          20.967  47.151  57.109  0.00  0.00     0.087 H 
ATOM     15  C6  STJ d          23.728  46.777  59.083  0.00  0.00     0.078 A 
ATOM     16  H1  STJ d          22.542  48.487  58.475  0.00  0.00     0.087 H 
ATOM     17  C14 STJ d          23.883  45.397  58.979  0.00  0.00    -0.048 A 
ATOM     18  C12 STJ d          22.984  44.644  58.215  0.00  0.00    -0.055 A 
ATOM     19  H4  STJ d          24.702  44.905  59.492  0.00  0.00     0.087 H 
ATOM     20  H3  STJ d          23.113  43.570  58.136  0.00  0.00     0.087 H 
BRANCH  15  21
ATOM     21  O5  STJ d          24.646  47.510  59.840  0.00  0.00    -0.255 OA
BRANCH  21  22
ATOM     22  C2  STJ d          25.949  47.736  59.336  0.00  0.00     0.530 C 
ATOM     23  F1  STJ d          25.826  47.829  57.990  0.00  0.00    -0.144 F 
ATOM     24  F3  STJ d          26.759  46.699  59.692  0.00  0.00    -0.144 F 
ATOM     25  F4  STJ d          26.433  48.899  59.848  0.00  0.00    -0.144 F 
ENDBRANCH  21  22
ENDBRANCH  15  21
ENDBRANCH   9  11
ENDBRANCH   1   9
BRANCH   5  26
ATOM     26  C26 STJ d          19.036  42.484  52.877  0.00  0.00    -0.006 A 
ATOM     27  C27 STJ d          19.311  41.535  51.887  0.00  0.00    -0.056 A 
ATOM     28  C29 STJ d          18.289  40.905  51.176  0.00  0.00     0.032 A 
ATOM     29  H8  STJ d          20.342  41.282  51.668  0.00  0.00     0.086 H 
ATOM     30  C30 STJ d          16.950  41.240  51.451  0.00  0.00    -0.068 A 
ATOM     31  C32 STJ d          16.660  42.195  52.443  0.00  0.00    -0.081 A 
ATOM     32  H9  STJ d          16.146  40.764  50.901  0.00  0.00     0.085 H 
ATOM     33  C34 STJ d          17.702  42.819  53.160  0.00  0.00    -0.071 A 
ATOM     34  H10 STJ d          15.630  42.452  52.659  0.00  0.00     0.083 H 
ATOM     35  H11 STJ d          17.474  43.554  53.923  0.00  0.00     0.084 H 
BRANCH  28  36
ATOM     36  C36 STJ d          18.748  39.900  50.138  0.00  0.00     0.249 C 
ATOM     37  O37 STJ d          19.911  39.969  49.776  0.00  0.00    -0.268 OA
ATOM     38  N38 STJ d          17.905  38.992  49.594  0.00  0.00    -0.366 N 
ATOM     39  H12 STJ d          18.242  38.344  48.912  0.00  0.00     0.159 HD
ATOM     40  H13 STJ d          16.946  38.970  49.874  0.00  0.00     0.159 HD
ENDBRANCH  28  36
ENDBRANCH   5  26
TORSDOF 6
ENDMDL
MODEL 8
REMARK VINA RESULT:      -6.5      5.822      9.244
REMARK  6 active torsions:
REMARK  status: ('A' for Active; 'I' for Inactive)
REMARK    1  A    between atoms: C2_2  and  O5_5 
REMARK    2  A    between atoms: O5_5  and  C6_6 
REMARK    3  A    between atoms: C11_9  and  N16_12 
REMARK    4  A    between atoms: N16_12  and  C18_13 
REMARK    5  A    between atoms: C23_17  and  C26_19 
REMARK    6  A    between atoms: C29_21  and  C36_25 
REMARK       I    between atoms: C36_25  and  N38_27 
ROOT
ATOM      1  C18 STJ d          20.684  44.083  54.433  0.00  0.00     0.131 A 
ATOM      2  N19 STJ d          19.567  44.335  55.170  0.00  0.00    -0.224 NA
ATOM      3  C20 STJ d          18.385  43.734  54.888  0.00  0.00     0.089 A 
ATOM      4  N22 STJ d          18.297  42.867  53.850  0.00  0.00    -0.241 NA
ATOM      5  C23 STJ d          19.377  42.580  53.078  0.00  0.00     0.072 A 
ATOM      6  C24 STJ d          20.609  43.197  53.360  0.00  0.00    -0.010 A 
ATOM      7  H6  STJ d          17.510  43.946  55.491  0.00  0.00     0.146 H 
ATOM      8  H7  STJ d          21.482  42.988  52.754  0.00  0.00     0.093 H 
ENDROOT
BRANCH   1   9
ATOM      9  N16 STJ d          21.887  44.662  54.686  0.00  0.00    -0.341 N 
ATOM     10  H5  STJ d          22.573  44.604  53.920  0.00  0.00     0.167 HD
BRANCH   9  11
ATOM     11  C11 STJ d          22.314  45.305  55.796  0.00  0.00     0.033 A 
ATOM     12  C9  STJ d          21.688  46.419  56.361  0.00  0.00    -0.055 A 
ATOM     13  C7  STJ d          22.211  47.027  57.506  0.00  0.00    -0.048 A 
ATOM     14  H2  STJ d          20.787  46.816  55.906  0.00  0.00     0.087 H 
ATOM     15  C6  STJ d          23.392  46.524  58.095  0.00  0.00     0.078 A 
ATOM     16  H1  STJ d          21.710  47.884  57.941  0.00  0.00     0.087 H 
ATOM     17  C14 STJ d          24.031  45.427  57.526  0.00  0.00    -0.048 A 
ATOM     18  C12 STJ d          23.500  44.819  56.381  0.00  0.00    -0.055 A 
ATOM     19  H4  STJ d          24.943  45.042  57.969  0.00  0.00     0.087 H 
ATOM     20  H3  STJ d          24.006  43.966  55.941  0.00  0.00     0.087 H 
BRANCH  15  21
ATOM     21  O5  STJ d          23.948  47.123  59.229  0.00  0.00    -0.255 OA
BRANCH  21  22
ATOM     22  C2  STJ d          24.617  48.364  59.110  0.00  0.00     0.530 C 
ATOM     23  F1  STJ d          23.753  49.307  59.558  0.00  0.00    -0.144 F 
ATOM     24  F3  STJ d          24.952  48.575  57.806  0.00  0.00    -0.144 F 
ATOM     25  F4  STJ d          25.738  48.346  59.879  0.00  0.00    -0.144 F 
ENDBRANCH  21  22
ENDBRANCH  15  21
ENDBRANCH   9  11
ENDBRANCH   1   9
BRANCH   5  26
ATOM     26  C26 STJ d          19.224  41.633  51.950  0.00  0.00    -0.006 A 
ATOM     27  C27 STJ d          18.130  40.762  51.985  0.00  0.00    -0.056 A 
ATOM     28  C29 STJ d          17.897  39.842  50.963  0.00  0.00     0.032 A 
ATOM     29  H8  STJ d          17.449  40.803  52.826  0.00  0.00     0.086 H 
ATOM     30  C30 STJ d          18.788  39.779  49.875  0.00  0.00    -0.068 A 
ATOM     31  C32 STJ d          19.893  40.649  49.829  0.00  0.00    -0.081 A 
ATOM     32  H9  STJ d          18.623  39.065  49.076  0.00  0.00     0.085 H 
ATOM     33  C34 STJ d          20.115  41.579  50.865  0.00  0.00    -0.071 A 
ATOM     34  H10 STJ d          20.579  40.605  48.991  0.00  0.00     0.083 H 
ATOM     35  H11 STJ d          20.967  42.247  50.825  0.00  0.00     0.084 H 
BRANCH  28  36
ATOM     36  C36 STJ d          16.671  38.970  51.145  0.00  0.00     0.249 C 
ATOM     37  O37 STJ d          16.216  38.439  50.144  0.00  0.00    -0.268 OA
ATOM     38  N38 STJ d          16.068  38.815  52.346  0.00  0.00    -0.366 N 
ATOM     39  H12 STJ d          15.261  38.232  52.429  0.00  0.00     0.159 HD
ATOM     40  H13 STJ d          16.431  39.285  53.151  0.00  0.00     0.159 HD
ENDBRANCH  28  36
ENDBRANCH   5  26
TORSDOF 6
ENDMDL
