MODEL 1
REMARK VINA RESULT:      -7.4      0.000      0.000
REMARK  3 active torsions:
REMARK  status: ('A' for Active; 'I' for Inactive)
REMARK    1  A    between atoms: C2_2  and  C10_10 
REMARK    2  A    between atoms: C12_12  and  N15_15 
REMARK    3  A    between atoms: N13_13  and  C16_16 
ROOT
ATOM      1  C1  MOL d          -0.318  11.165  -6.134  0.00  0.00    -0.036 A 
ATOM      2  C2  MOL d          -0.863  10.035  -5.469  0.00  0.00    -0.003 A 
ATOM      3  C3  MOL d          -1.910  10.182  -4.503  0.00  0.00    -0.068 A 
ATOM      4  C4  MOL d          -2.457  11.424  -4.157  0.00  0.00    -0.047 A 
ATOM      5  C5  MOL d          -1.944  12.536  -4.793  0.00  0.00     0.105 A 
ATOM      6  C6  MOL d          -0.875  12.403  -5.807  0.00  0.00     0.105 A 
ATOM      7  O7  MOL d          -0.584  13.675  -6.246  0.00  0.00    -0.323 OA
ATOM      8  C8  MOL d          -1.523  14.604  -5.638  0.00  0.00     0.115 C 
ATOM      9  O9  MOL d          -2.253  13.870  -4.646  0.00  0.00    -0.323 OA
ATOM     10  H1  MOL d           0.485  11.071  -6.857  0.00  0.00     0.089 H 
ATOM     11  H2  MOL d          -2.296   9.293  -4.018  0.00  0.00     0.085 H 
ATOM     12  H3  MOL d          -3.250  11.508  -3.422  0.00  0.00     0.087 H 
ATOM     13  H4  MOL d          -2.213  14.997  -6.400  0.00  0.00     0.118 H 
ATOM     14  H5  MOL d          -0.980  15.437  -5.169  0.00  0.00     0.118 H 
ENDROOT
BRANCH   2  15
ATOM     15  C10 MOL d          -0.356   8.659  -5.757  0.00  0.00     0.091 A 
ATOM     16  C11 MOL d          -0.229   8.092  -7.039  0.00  0.00    -0.009 A 
ATOM     17  C12 MOL d           0.284   6.810  -6.839  0.00  0.00     0.119 A 
ATOM     18  H6  MOL d          -0.478   8.558  -7.991  0.00  0.00     0.093 H 
ATOM     19  N13 MOL d           0.480   6.578  -5.543  0.00  0.00    -0.258 N 
ATOM     20  N14 MOL d           0.071   7.731  -4.830  0.00  0.00    -0.171 NA
BRANCH  17  21
ATOM     21  N15 MOL d           0.568   5.896  -7.828  0.00  0.00    -0.384 N 
ATOM     22  H7  MOL d           1.245   6.132  -8.568  0.00  0.00     0.157 HD
ATOM     23  H8  MOL d           0.105   4.976  -7.829  0.00  0.00     0.157 HD
ENDBRANCH  17  21
BRANCH  19  24
ATOM     24  C16 MOL d           0.980   5.413  -4.750  0.00  0.00     0.004 C 
ATOM     25  H9  MOL d           1.670   4.819  -5.368  0.00  0.00     0.059 H 
ATOM     26  H10 MOL d           0.131   4.786  -4.443  0.00  0.00     0.059 H 
ATOM     27  H11 MOL d           1.510   5.777  -3.857  0.00  0.00     0.059 H 
ENDBRANCH  19  24
ENDBRANCH   2  15
TORSDOF 3
ENDMDL
MODEL 2
REMARK VINA RESULT:      -7.3      1.014      1.523
REMARK  3 active torsions:
REMARK  status: ('A' for Active; 'I' for Inactive)
REMARK    1  A    between atoms: C2_2  and  C10_10 
REMARK    2  A    between atoms: C12_12  and  N15_15 
REMARK    3  A    between atoms: N13_13  and  C16_16 
ROOT
ATOM      1  C1  MOL d          -0.345  11.326  -6.331  0.00  0.00    -0.036 A 
ATOM      2  C2  MOL d          -0.807  10.121  -5.738  0.00  0.00    -0.003 A 
ATOM      3  C3  MOL d          -1.776  10.143  -4.683  0.00  0.00    -0.068 A 
ATOM      4  C4  MOL d          -2.323  11.328  -4.176  0.00  0.00    -0.047 A 
ATOM      5  C5  MOL d          -1.890  12.512  -4.740  0.00  0.00     0.105 A 
ATOM      6  C6  MOL d          -0.903  12.509  -5.843  0.00  0.00     0.105 A 
ATOM      7  O7  MOL d          -0.680  13.826  -6.178  0.00  0.00    -0.323 OA
ATOM      8  C8  MOL d          -1.588  14.662  -5.411  0.00  0.00     0.115 C 
ATOM      9  O9  MOL d          -2.218  13.816  -4.440  0.00  0.00    -0.323 OA
ATOM     10  H1  MOL d           0.399  11.326  -7.120  0.00  0.00     0.089 H 
ATOM     11  H2  MOL d          -2.100   9.200  -4.258  0.00  0.00     0.085 H 
ATOM     12  H3  MOL d          -3.055  11.317  -3.377  0.00  0.00     0.087 H 
ATOM     13  H4  MOL d          -2.347  15.104  -6.075  0.00  0.00     0.118 H 
ATOM     14  H5  MOL d          -1.029  15.464  -4.907  0.00  0.00     0.118 H 
ENDROOT
BRANCH   2  15
ATOM     15  C10 MOL d          -0.292   8.795  -6.197  0.00  0.00     0.091 A 
ATOM     16  C11 MOL d          -0.080   7.676  -5.370  0.00  0.00    -0.009 A 
ATOM     17  C12 MOL d           0.394   6.668  -6.209  0.00  0.00     0.119 A 
ATOM     18  H6  MOL d          -0.251   7.611  -4.296  0.00  0.00     0.093 H 
ATOM     19  N13 MOL d           0.468   7.097  -7.466  0.00  0.00    -0.258 N 
ATOM     20  N14 MOL d           0.050   8.450  -7.487  0.00  0.00    -0.171 NA
BRANCH  17  21
ATOM     21  N15 MOL d           0.733   5.392  -5.818  0.00  0.00    -0.384 N 
ATOM     22  H7  MOL d           1.635   5.219  -5.351  0.00  0.00     0.157 HD
ATOM     23  H8  MOL d           0.085   4.610  -5.991  0.00  0.00     0.157 HD
ENDBRANCH  17  21
BRANCH  19  24
ATOM     24  C16 MOL d           0.905   6.485  -8.759  0.00  0.00     0.004 C 
ATOM     25  H9  MOL d           1.436   7.238  -9.360  0.00  0.00     0.059 H 
ATOM     26  H10 MOL d           0.024   6.129  -9.313  0.00  0.00     0.059 H 
ATOM     27  H11 MOL d           1.577   5.639  -8.555  0.00  0.00     0.059 H 
ENDBRANCH  19  24
ENDBRANCH   2  15
TORSDOF 3
ENDMDL
MODEL 3
REMARK VINA RESULT:      -6.8      0.786      1.723
REMARK  3 active torsions:
REMARK  status: ('A' for Active; 'I' for Inactive)
REMARK    1  A    between atoms: C2_2  and  C10_10 
REMARK    2  A    between atoms: C12_12  and  N15_15 
REMARK    3  A    between atoms: N13_13  and  C16_16 
ROOT
ATOM      1  C1  MOL d          -1.428  10.834  -5.297  0.00  0.00    -0.036 A 
ATOM      2  C2  MOL d          -0.367  10.268  -6.051  0.00  0.00    -0.003 A 
ATOM      3  C3  MOL d           0.523  11.096  -6.809  0.00  0.00    -0.068 A 
ATOM      4  C4  MOL d           0.410  12.491  -6.856  0.00  0.00    -0.047 A 
ATOM      5  C5  MOL d          -0.614  13.063  -6.129  0.00  0.00     0.105 A 
ATOM      6  C6  MOL d          -1.533  12.227  -5.325  0.00  0.00     0.105 A 
ATOM      7  O7  MOL d          -2.431  13.084  -4.730  0.00  0.00    -0.323 OA
ATOM      8  C8  MOL d          -2.036  14.451  -5.025  0.00  0.00     0.115 C 
ATOM      9  O9  MOL d          -0.990  14.382  -6.003  0.00  0.00    -0.323 OA
ATOM     10  H1  MOL d          -2.119  10.220  -4.730  0.00  0.00     0.089 H 
ATOM     11  H2  MOL d           1.319  10.622  -7.371  0.00  0.00     0.085 H 
ATOM     12  H3  MOL d           1.097  13.095  -7.439  0.00  0.00     0.087 H 
ATOM     13  H4  MOL d          -1.668  14.944  -4.113  0.00  0.00     0.118 H 
ATOM     14  H5  MOL d          -2.892  15.013  -5.426  0.00  0.00     0.118 H 
ENDROOT
BRANCH   2  15
ATOM     15  C10 MOL d          -0.150   8.789  -6.076  0.00  0.00     0.091 A 
ATOM     16  C11 MOL d          -0.289   7.968  -7.211  0.00  0.00    -0.009 A 
ATOM     17  C12 MOL d           0.012   6.675  -6.783  0.00  0.00     0.119 A 
ATOM     18  H6  MOL d          -0.573   8.278  -8.216  0.00  0.00     0.093 H 
ATOM     19  N13 MOL d           0.329   6.668  -5.491  0.00  0.00    -0.258 N 
ATOM     20  N14 MOL d           0.223   7.996  -5.012  0.00  0.00    -0.171 NA
BRANCH  17  21
ATOM     21  N15 MOL d           0.003   5.546  -7.572  0.00  0.00    -0.384 N 
ATOM     22  H7  MOL d          -0.771   4.871  -7.496  0.00  0.00     0.157 HD
ATOM     23  H8  MOL d           0.771   5.377  -8.238  0.00  0.00     0.157 HD
ENDBRANCH  17  21
BRANCH  19  24
ATOM     24  C16 MOL d           0.716   5.606  -4.512  0.00  0.00     0.004 C 
ATOM     25  H9  MOL d          -0.158   5.335  -3.900  0.00  0.00     0.059 H 
ATOM     26  H10 MOL d           1.517   5.982  -3.859  0.00  0.00     0.059 H 
ATOM     27  H11 MOL d           1.071   4.718  -5.055  0.00  0.00     0.059 H 
ENDBRANCH  19  24
ENDBRANCH   2  15
TORSDOF 3
ENDMDL
MODEL 4
REMARK VINA RESULT:      -6.2      4.003      6.270
REMARK  3 active torsions:
REMARK  status: ('A' for Active; 'I' for Inactive)
REMARK    1  A    between atoms: C2_2  and  C10_10 
REMARK    2  A    between atoms: C12_12  and  N15_15 
REMARK    3  A    between atoms: N13_13  and  C16_16 
ROOT
ATOM      1  C1  MOL d          -0.197   8.679  -6.702  0.00  0.00    -0.036 A 
ATOM      2  C2  MOL d          -0.181  10.093  -6.826  0.00  0.00    -0.003 A 
ATOM      3  C3  MOL d           0.561  10.734  -7.870  0.00  0.00    -0.068 A 
ATOM      4  C4  MOL d           1.305  10.025  -8.821  0.00  0.00    -0.047 A 
ATOM      5  C5  MOL d           1.302   8.648  -8.721  0.00  0.00     0.105 A 
ATOM      6  C6  MOL d           0.528   7.966  -7.661  0.00  0.00     0.105 A 
ATOM      7  O7  MOL d           0.731   6.615  -7.828  0.00  0.00    -0.323 OA
ATOM      8  C8  MOL d           1.507   6.406  -9.040  0.00  0.00     0.115 C 
ATOM      9  O9  MOL d           1.950   7.697  -9.479  0.00  0.00    -0.323 OA
ATOM     10  H1  MOL d          -0.741   8.180  -5.909  0.00  0.00     0.089 H 
ATOM     11  H2  MOL d           0.546  11.816  -7.927  0.00  0.00     0.085 H 
ATOM     12  H3  MOL d           1.859  10.534  -9.601  0.00  0.00     0.087 H 
ATOM     13  H4  MOL d           0.880   5.939  -9.814  0.00  0.00     0.118 H 
ATOM     14  H5  MOL d           2.372   5.761  -8.828  0.00  0.00     0.118 H 
ENDROOT
BRANCH   2  15
ATOM     15  C10 MOL d          -0.938  10.954  -5.867  0.00  0.00     0.091 A 
ATOM     16  C11 MOL d          -1.690  10.484  -4.774  0.00  0.00    -0.009 A 
ATOM     17  C12 MOL d          -2.214  11.620  -4.156  0.00  0.00     0.119 A 
ATOM     18  H6  MOL d          -1.835   9.447  -4.473  0.00  0.00     0.093 H 
ATOM     19  N13 MOL d          -1.821  12.723  -4.789  0.00  0.00    -0.258 N 
ATOM     20  N14 MOL d          -1.019  12.330  -5.888  0.00  0.00    -0.171 NA
BRANCH  17  21
ATOM     21  N15 MOL d          -3.016  11.627  -3.037  0.00  0.00    -0.384 N 
ATOM     22  H7  MOL d          -2.778  11.035  -2.228  0.00  0.00     0.157 HD
ATOM     23  H8  MOL d          -3.855  12.224  -3.009  0.00  0.00     0.157 HD
ENDBRANCH  17  21
BRANCH  19  24
ATOM     24  C16 MOL d          -2.070  14.185  -4.598  0.00  0.00     0.004 C 
ATOM     25  H9  MOL d          -1.554  14.530  -3.690  0.00  0.00     0.059 H 
ATOM     26  H10 MOL d          -3.150  14.364  -4.496  0.00  0.00     0.059 H 
ATOM     27  H11 MOL d          -1.687  14.739  -5.469  0.00  0.00     0.059 H 
ENDBRANCH  19  24
ENDBRANCH   2  15
TORSDOF 3
ENDMDL
MODEL 5
REMARK VINA RESULT:      -6.1      3.609      6.073
REMARK  3 active torsions:
REMARK  status: ('A' for Active; 'I' for Inactive)
REMARK    1  A    between atoms: C2_2  and  C10_10 
REMARK    2  A    between atoms: C12_12  and  N15_15 
REMARK    3  A    between atoms: N13_13  and  C16_16 
ROOT
ATOM      1  C1  MOL d           0.123   9.358  -7.457  0.00  0.00    -0.036 A 
ATOM      2  C2  MOL d          -0.373   9.084  -6.155  0.00  0.00    -0.003 A 
ATOM      3  C3  MOL d          -0.191   7.797  -5.553  0.00  0.00    -0.068 A 
ATOM      4  C4  MOL d           0.474   6.744  -6.193  0.00  0.00    -0.047 A 
ATOM      5  C5  MOL d           0.967   6.990  -7.459  0.00  0.00     0.105 A 
ATOM      6  C6  MOL d           0.805   8.317  -8.091  0.00  0.00     0.105 A 
ATOM      7  O7  MOL d           1.393   8.239  -9.334  0.00  0.00    -0.323 OA
ATOM      8  C8  MOL d           2.037   6.943  -9.464  0.00  0.00     0.115 C 
ATOM      9  O9  MOL d           1.629   6.158  -8.336  0.00  0.00    -0.323 OA
ATOM     10  H1  MOL d          -0.020  10.322  -7.932  0.00  0.00     0.089 H 
ATOM     11  H2  MOL d          -0.587   7.630  -4.558  0.00  0.00     0.085 H 
ATOM     12  H3  MOL d           0.598   5.779  -5.715  0.00  0.00     0.087 H 
ATOM     13  H4  MOL d           3.131   7.063  -9.465  0.00  0.00     0.118 H 
ATOM     14  H5  MOL d           1.721   6.455 -10.398  0.00  0.00     0.118 H 
ENDROOT
BRANCH   2  15
ATOM     15  C10 MOL d          -1.101  10.131  -5.377  0.00  0.00     0.091 A 
ATOM     16  C11 MOL d          -1.897   9.892  -4.241  0.00  0.00    -0.009 A 
ATOM     17  C12 MOL d          -2.372  11.141  -3.839  0.00  0.00     0.119 A 
ATOM     18  H6  MOL d          -2.100   8.931  -3.772  0.00  0.00     0.093 H 
ATOM     19  N13 MOL d          -1.911  12.100  -4.640  0.00  0.00    -0.258 N 
ATOM     20  N14 MOL d          -1.111  11.486  -5.634  0.00  0.00    -0.171 NA
BRANCH  17  21
ATOM     21  N15 MOL d          -3.193  11.378  -2.760  0.00  0.00    -0.384 N 
ATOM     22  H7  MOL d          -2.785  11.607  -1.843  0.00  0.00     0.157 HD
ATOM     23  H8  MOL d          -4.216  11.326  -2.870  0.00  0.00     0.157 HD
ENDBRANCH  17  21
BRANCH  19  24
ATOM     24  C16 MOL d          -2.087  13.583  -4.707  0.00  0.00     0.004 C 
ATOM     25  H9  MOL d          -2.896  13.888  -4.027  0.00  0.00     0.059 H 
ATOM     26  H10 MOL d          -2.344  13.875  -5.736  0.00  0.00     0.059 H 
ATOM     27  H11 MOL d          -1.151  14.078  -4.408  0.00  0.00     0.059 H 
ENDBRANCH  19  24
ENDBRANCH   2  15
TORSDOF 3
ENDMDL
MODEL 6
REMARK VINA RESULT:      -6.0      1.872      2.566
REMARK  3 active torsions:
REMARK  status: ('A' for Active; 'I' for Inactive)
REMARK    1  A    between atoms: C2_2  and  C10_10 
REMARK    2  A    between atoms: C12_12  and  N15_15 
REMARK    3  A    between atoms: N13_13  and  C16_16 
ROOT
ATOM      1  C1  MOL d          -1.102  10.617  -6.140  0.00  0.00    -0.036 A 
ATOM      2  C2  MOL d          -0.103  10.369  -7.118  0.00  0.00    -0.003 A 
ATOM      3  C3  MOL d           0.720  11.430  -7.617  0.00  0.00    -0.068 A 
ATOM      4  C4  MOL d           0.600  12.755  -7.182  0.00  0.00    -0.047 A 
ATOM      5  C5  MOL d          -0.363  13.019  -6.229  0.00  0.00     0.105 A 
ATOM      6  C6  MOL d          -1.211  11.934  -5.688  0.00  0.00     0.105 A 
ATOM      7  O7  MOL d          -2.061  12.514  -4.772  0.00  0.00    -0.323 OA
ATOM      8  C8  MOL d          -1.694  13.912  -4.617  0.00  0.00     0.115 C 
ATOM      9  O9  MOL d          -0.731  14.207  -5.637  0.00  0.00    -0.323 OA
ATOM     10  H1  MOL d          -1.743   9.827  -5.764  0.00  0.00     0.089 H 
ATOM     11  H2  MOL d           1.469  11.196  -8.365  0.00  0.00     0.085 H 
ATOM     12  H3  MOL d           1.236  13.540  -7.576  0.00  0.00     0.087 H 
ATOM     13  H4  MOL d          -1.255  14.079  -3.623  0.00  0.00     0.118 H 
ATOM     14  H5  MOL d          -2.581  14.551  -4.739  0.00  0.00     0.118 H 
ENDROOT
BRANCH   2  15
ATOM     15  C10 MOL d           0.115   8.992  -7.658  0.00  0.00     0.091 A 
ATOM     16  C11 MOL d           1.227   8.585  -8.418  0.00  0.00    -0.009 A 
ATOM     17  C12 MOL d           1.021   7.234  -8.700  0.00  0.00     0.119 A 
ATOM     18  H6  MOL d           2.074   9.198  -8.724  0.00  0.00     0.093 H 
ATOM     19  N13 MOL d          -0.117   6.808  -8.157  0.00  0.00    -0.258 N 
ATOM     20  N14 MOL d          -0.721   7.907  -7.499  0.00  0.00    -0.171 NA
BRANCH  17  21
ATOM     21  N15 MOL d           1.869   6.427  -9.424  0.00  0.00    -0.384 N 
ATOM     22  H7  MOL d           2.886   6.477  -9.268  0.00  0.00     0.157 HD
ATOM     23  H8  MOL d           1.487   5.774 -10.123  0.00  0.00     0.157 HD
ENDBRANCH  17  21
BRANCH  19  24
ATOM     24  C16 MOL d          -0.844   5.502  -8.136  0.00  0.00     0.004 C 
ATOM     25  H9  MOL d          -0.864   5.077  -9.150  0.00  0.00     0.059 H 
ATOM     26  H10 MOL d          -1.874   5.660  -7.784  0.00  0.00     0.059 H 
ATOM     27  H11 MOL d          -0.328   4.806  -7.458  0.00  0.00     0.059 H 
ENDBRANCH  19  24
ENDBRANCH   2  15
TORSDOF 3
ENDMDL
MODEL 7
REMARK VINA RESULT:      -4.7      3.915      6.397
REMARK  3 active torsions:
REMARK  status: ('A' for Active; 'I' for Inactive)
REMARK    1  A    between atoms: C2_2  and  C10_10 
REMARK    2  A    between atoms: C12_12  and  N15_15 
REMARK    3  A    between atoms: N13_13  and  C16_16 
ROOT
ATOM      1  C1  MOL d          -0.188   9.186  -6.995  0.00  0.00    -0.036 A 
ATOM      2  C2  MOL d          -0.026  10.566  -7.289  0.00  0.00    -0.003 A 
ATOM      3  C3  MOL d           0.851  10.999  -8.335  0.00  0.00    -0.068 A 
ATOM      4  C4  MOL d           1.592  10.110  -9.124  0.00  0.00    -0.047 A 
ATOM      5  C5  MOL d           1.448   8.763  -8.857  0.00  0.00     0.105 A 
ATOM      6  C6  MOL d           0.534   8.295  -7.793  0.00  0.00     0.105 A 
ATOM      7  O7  MOL d           0.617   6.921  -7.775  0.00  0.00    -0.323 OA
ATOM      8  C8  MOL d           1.457   6.491  -8.880  0.00  0.00     0.115 C 
ATOM      9  O9  MOL d           2.056   7.670  -9.434  0.00  0.00    -0.323 OA
ATOM     10  H1  MOL d          -0.837   8.843  -6.197  0.00  0.00     0.089 H 
ATOM     11  H2  MOL d           0.946  12.062  -8.525  0.00  0.00     0.085 H 
ATOM     12  H3  MOL d           2.250  10.464  -9.910  0.00  0.00     0.087 H 
ATOM     13  H4  MOL d           0.848   5.982  -9.643  0.00  0.00     0.118 H 
ATOM     14  H5  MOL d           2.237   5.806  -8.517  0.00  0.00     0.118 H 
ENDROOT
BRANCH   2  15
ATOM     15  C10 MOL d          -0.765  11.606  -6.511  0.00  0.00     0.091 A 
ATOM     16  C11 MOL d          -1.360  12.759  -7.058  0.00  0.00    -0.009 A 
ATOM     17  C12 MOL d          -1.938  13.435  -5.984  0.00  0.00     0.119 A 
ATOM     18  H6  MOL d          -1.366  13.061  -8.104  0.00  0.00     0.093 H 
ATOM     19  N13 MOL d          -1.744  12.767  -4.848  0.00  0.00    -0.258 N 
ATOM     20  N14 MOL d          -0.991  11.607  -5.151  0.00  0.00    -0.171 NA
BRANCH  17  21
ATOM     21  N15 MOL d          -2.632  14.621  -6.062  0.00  0.00    -0.384 N 
ATOM     22  H7  MOL d          -3.501  14.675  -6.612  0.00  0.00     0.157 HD
ATOM     23  H8  MOL d          -2.282  15.456  -5.569  0.00  0.00     0.157 HD
ENDBRANCH  17  21
BRANCH  19  24
ATOM     24  C16 MOL d          -2.111  13.003  -3.418  0.00  0.00     0.004 C 
ATOM     25  H9  MOL d          -3.116  12.601  -3.226  0.00  0.00     0.059 H 
ATOM     26  H10 MOL d          -2.104  14.084  -3.211  0.00  0.00     0.059 H 
ATOM     27  H11 MOL d          -1.383  12.499  -2.765  0.00  0.00     0.059 H 
ENDBRANCH  19  24
ENDBRANCH   2  15
TORSDOF 3
ENDMDL
