MODEL 1
REMARK VINA RESULT:      -6.0      0.000      0.000
REMARK  17 active torsions:
REMARK  status: ('A' for Active; 'I' for Inactive)
REMARK    1  A    between atoms: CAJ_10  and  OAA_1 
REMARK    2  A    between atoms: CAK_11  and  OAB_2 
REMARK    3  A    between atoms: CAN_14  and  OAC_3 
REMARK    4  A    between atoms: CAO_15  and  OAD_4 
REMARK    5  A    between atoms: CAP_16  and  OAE_5 
REMARK    6  A    between atoms: CAQ_17  and  OAF_6 
REMARK    7  A    between atoms: CAR_18  and  OAG_7 
REMARK    8  A    between atoms: CAS_19  and  OAH_8 
REMARK    9  A    between atoms: CAT_20  and  OAI_9 
REMARK   10  A    between atoms: CAN_14  and  CAJ_10 
REMARK   11  A    between atoms: CAU_21  and  CAK_11 
REMARK   12  A    between atoms: CAL_12  and  CAO_15 
REMARK   13  A    between atoms: SAV_22  and  CAL_12 
REMARK   14  A    between atoms: CAQ_17  and  CAN_14 
REMARK   15  A    between atoms: CAO_15  and  CAR_18 
REMARK   16  A    between atoms: CAS_19  and  CAQ_17 
REMARK   17  A    between atoms: CAR_18  and  CAS_19 
ROOT
ATOM      1  CAO DSK d          -2.896 -19.683 -21.414  0.00  0.00     0.070 C 
ATOM      2  H19 DSK d          -3.965 -19.467 -21.275  0.00  0.00     0.088 H 
ENDROOT
BRANCH   1   3
ATOM      3  OAD DSK d          -2.535 -19.308 -22.735  0.00  0.00    -0.392 OA
ATOM      4  H4  DSK d          -1.594 -19.384 -22.839  0.00  0.00     0.210 HD
ENDBRANCH   1   3
BRANCH   1   5
ATOM      5  CAL DSK d          -2.110 -18.846 -20.357  0.00  0.00    -0.005 C 
ATOM      6  H14 DSK d          -1.035 -19.049 -20.467  0.00  0.00     0.051 H 
ATOM      7  H15 DSK d          -2.437 -19.144 -19.350  0.00  0.00     0.051 H 
BRANCH   5   8
ATOM      8  SAV DSK d          -2.398 -17.071 -20.567  0.00  0.00    -0.206 SA
ATOM      9  CAM DSK d          -1.045 -16.281 -21.532  0.00  0.00    -0.005 C 
ATOM     10  CAP DSK d           0.006 -16.045 -20.428  0.00  0.00     0.069 C 
ATOM     11  H16 DSK d          -0.664 -16.951 -22.316  0.00  0.00     0.051 H 
ATOM     12  H17 DSK d          -1.373 -15.335 -21.988  0.00  0.00     0.051 H 
ATOM     13  CAT DSK d          -0.810 -15.364 -19.294  0.00  0.00     0.074 C 
ATOM     14  H20 DSK d           0.438 -16.999 -20.093  0.00  0.00     0.088 H 
ATOM     15  CAU DSK d          -1.927 -16.385 -18.933  0.00  0.00     0.030 C 
ATOM     16  H24 DSK d          -1.237 -14.402 -19.612  0.00  0.00     0.088 H 
ATOM     17  H25 DSK d          -1.483 -17.191 -18.329  0.00  0.00     0.062 H 
BRANCH  10  18
ATOM     18  OAE DSK d           1.076 -15.148 -20.855  0.00  0.00    -0.392 OA
ATOM     19  H5  DSK d           1.738 -15.101 -20.176  0.00  0.00     0.210 HD
ENDBRANCH  10  18
BRANCH  13  20
ATOM     20  OAI DSK d           0.084 -15.188 -18.188  0.00  0.00    -0.392 OA
ATOM     21  H9  DSK d           0.814 -14.641 -18.457  0.00  0.00     0.210 HD
ENDBRANCH  13  20
BRANCH  15  22
ATOM     22  CAK DSK d          -3.102 -15.812 -18.093  0.00  0.00     0.030 C 
ATOM     23  H12 DSK d          -3.857 -16.603 -17.968  0.00  0.00     0.075 H 
ATOM     24  H13 DSK d          -2.712 -15.518 -17.107  0.00  0.00     0.075 H 
BRANCH  22  25
ATOM     25  OAB DSK d          -3.735 -14.674 -18.685  0.00  0.00    -0.400 OA
ATOM     26  H2  DSK d          -3.924 -14.857 -19.598  0.00  0.00     0.209 HD
ENDBRANCH  22  25
ENDBRANCH  15  22
ENDBRANCH   5   8
ENDBRANCH   1   5
BRANCH   1  27
ATOM     27  CAR DSK d          -2.698 -21.188 -21.251  0.00  0.00     0.088 C 
ATOM     28  H22 DSK d          -1.781 -21.406 -20.682  0.00  0.00     0.091 H 
BRANCH  27  29
ATOM     29  OAG DSK d          -3.875 -21.666 -20.577  0.00  0.00    -0.390 OA
ATOM     30  H7  DSK d          -4.345 -20.930 -20.204  0.00  0.00     0.210 HD
ENDBRANCH  27  29
BRANCH  27  31
ATOM     31  CAS DSK d          -2.674 -21.891 -22.629  0.00  0.00     0.090 C 
ATOM     32  H23 DSK d          -2.012 -21.317 -23.295  0.00  0.00     0.091 H 
BRANCH  31  33
ATOM     33  OAH DSK d          -3.984 -21.916 -23.192  0.00  0.00    -0.390 OA
ATOM     34  H8  DSK d          -4.440 -22.694 -22.896  0.00  0.00     0.210 HD
ENDBRANCH  31  33
BRANCH  31  35
ATOM     35  CAQ DSK d          -2.147 -23.321 -22.540  0.00  0.00     0.089 C 
ATOM     36  H21 DSK d          -2.903 -24.020 -22.927  0.00  0.00     0.091 H 
BRANCH  35  37
ATOM     37  OAF DSK d          -1.869 -23.604 -21.164  0.00  0.00    -0.390 OA
ATOM     38  H6  DSK d          -2.543 -24.175 -20.816  0.00  0.00     0.210 HD
ENDBRANCH  35  37
BRANCH  35  39
ATOM     39  CAN DSK d          -0.837 -23.476 -23.342  0.00  0.00     0.083 C 
ATOM     40  H18 DSK d          -0.953 -24.280 -24.083  0.00  0.00     0.090 H 
BRANCH  39  41
ATOM     41  OAC DSK d          -0.555 -22.241 -24.017  0.00  0.00    -0.391 OA
ATOM     42  H3  DSK d           0.371 -22.197 -24.224  0.00  0.00     0.210 HD
ENDBRANCH  39  41
BRANCH  39  43
ATOM     43  CAJ DSK d           0.314 -23.829 -22.391  0.00  0.00     0.043 C 
ATOM     44  H10 DSK d          -0.013 -24.608 -21.685  0.00  0.00     0.078 H 
ATOM     45  H11 DSK d           1.175 -24.196 -22.968  0.00  0.00     0.078 H 
BRANCH  43  46
ATOM     46  OAA DSK d           0.676 -22.658 -21.680  0.00  0.00    -0.398 OA
ATOM     47  H1  DSK d          -0.074 -22.078 -21.625  0.00  0.00     0.209 HD
ENDBRANCH  43  46
ENDBRANCH  39  43
ENDBRANCH  35  39
ENDBRANCH  31  35
ENDBRANCH  27  31
ENDBRANCH   1  27
TORSDOF 17
ENDMDL
MODEL 2
REMARK VINA RESULT:      -5.9      2.119      7.016
REMARK  17 active torsions:
REMARK  status: ('A' for Active; 'I' for Inactive)
REMARK    1  A    between atoms: CAJ_10  and  OAA_1 
REMARK    2  A    between atoms: CAK_11  and  OAB_2 
REMARK    3  A    between atoms: CAN_14  and  OAC_3 
REMARK    4  A    between atoms: CAO_15  and  OAD_4 
REMARK    5  A    between atoms: CAP_16  and  OAE_5 
REMARK    6  A    between atoms: CAQ_17  and  OAF_6 
REMARK    7  A    between atoms: CAR_18  and  OAG_7 
REMARK    8  A    between atoms: CAS_19  and  OAH_8 
REMARK    9  A    between atoms: CAT_20  and  OAI_9 
REMARK   10  A    between atoms: CAN_14  and  CAJ_10 
REMARK   11  A    between atoms: CAU_21  and  CAK_11 
REMARK   12  A    between atoms: CAL_12  and  CAO_15 
REMARK   13  A    between atoms: SAV_22  and  CAL_12 
REMARK   14  A    between atoms: CAQ_17  and  CAN_14 
REMARK   15  A    between atoms: CAO_15  and  CAR_18 
REMARK   16  A    between atoms: CAS_19  and  CAQ_17 
REMARK   17  A    between atoms: CAR_18  and  CAS_19 
ROOT
ATOM      1  CAO DSK d          -2.568 -20.296 -22.069  0.00  0.00     0.070 C 
ATOM      2  H19 DSK d          -1.609 -20.820 -22.200  0.00  0.00     0.088 H 
ENDROOT
BRANCH   1   3
ATOM      3  OAD DSK d          -2.812 -19.521 -23.234  0.00  0.00    -0.392 OA
ATOM      4  H4  DSK d          -2.844 -20.092 -23.992  0.00  0.00     0.210 HD
ENDBRANCH   1   3
BRANCH   1   5
ATOM      5  CAL DSK d          -3.671 -21.383 -21.874  0.00  0.00    -0.005 C 
ATOM      6  H14 DSK d          -4.395 -21.309 -22.698  0.00  0.00     0.051 H 
ATOM      7  H15 DSK d          -4.183 -21.204 -20.918  0.00  0.00     0.051 H 
BRANCH   5   8
ATOM      8  SAV DSK d          -2.965 -23.051 -21.861  0.00  0.00    -0.206 SA
ATOM      9  CAM DSK d          -2.511 -23.574 -20.157  0.00  0.00    -0.005 C 
ATOM     10  CAP DSK d          -1.123 -22.917 -20.007  0.00  0.00     0.069 C 
ATOM     11  H16 DSK d          -3.223 -23.189 -19.412  0.00  0.00     0.051 H 
ATOM     12  H17 DSK d          -2.451 -24.670 -20.073  0.00  0.00     0.051 H 
ATOM     13  CAT DSK d          -0.384 -23.336 -21.307  0.00  0.00     0.074 C 
ATOM     14  H20 DSK d          -1.218 -21.823 -19.935  0.00  0.00     0.088 H 
ATOM     15  CAU DSK d          -1.256 -22.775 -22.466  0.00  0.00     0.030 C 
ATOM     16  H24 DSK d          -0.271 -24.427 -21.384  0.00  0.00     0.088 H 
ATOM     17  H25 DSK d          -1.082 -21.691 -22.543  0.00  0.00     0.062 H 
BRANCH  10  18
ATOM     18  OAE DSK d          -0.387 -23.419 -18.850  0.00  0.00    -0.392 OA
ATOM     19  H5  DSK d          -0.970 -23.470 -18.102  0.00  0.00     0.210 HD
ENDBRANCH  10  18
BRANCH  13  20
ATOM     20  OAI DSK d           0.895 -22.689 -21.284  0.00  0.00    -0.392 OA
ATOM     21  H9  DSK d           0.847 -21.916 -20.733  0.00  0.00     0.210 HD
ENDBRANCH  13  20
BRANCH  15  22
ATOM     22  CAK DSK d          -0.950 -23.363 -23.871  0.00  0.00     0.030 C 
ATOM     23  H12 DSK d          -1.297 -24.407 -23.893  0.00  0.00     0.075 H 
ATOM     24  H13 DSK d          -1.502 -22.776 -24.620  0.00  0.00     0.075 H 
BRANCH  22  25
ATOM     25  OAB DSK d           0.439 -23.343 -24.217  0.00  0.00    -0.400 OA
ATOM     26  H2  DSK d           0.535 -23.522 -25.145  0.00  0.00     0.209 HD
ENDBRANCH  22  25
ENDBRANCH  15  22
ENDBRANCH   5   8
ENDBRANCH   1   5
BRANCH   1  27
ATOM     27  CAR DSK d          -2.431 -19.363 -20.869  0.00  0.00     0.088 C 
ATOM     28  H22 DSK d          -3.251 -19.519 -20.152  0.00  0.00     0.091 H 
BRANCH  27  29
ATOM     29  OAG DSK d          -1.147 -19.657 -20.290  0.00  0.00    -0.390 OA
ATOM     30  H7  DSK d          -0.566 -18.918 -20.421  0.00  0.00     0.210 HD
ENDBRANCH  27  29
BRANCH  27  31
ATOM     31  CAS DSK d          -2.370 -17.886 -21.327  0.00  0.00     0.090 C 
ATOM     32  H23 DSK d          -3.263 -17.679 -21.935  0.00  0.00     0.091 H 
BRANCH  31  33
ATOM     33  OAH DSK d          -1.208 -17.665 -22.124  0.00  0.00    -0.390 OA
ATOM     34  H8  DSK d          -1.465 -17.556 -23.032  0.00  0.00     0.210 HD
ENDBRANCH  31  33
BRANCH  31  35
ATOM     35  CAQ DSK d          -2.352 -16.916 -20.148  0.00  0.00     0.089 C 
ATOM     36  H21 DSK d          -2.602 -17.452 -19.221  0.00  0.00     0.091 H 
BRANCH  35  37
ATOM     37  OAF DSK d          -3.320 -15.892 -20.405  0.00  0.00    -0.390 OA
ATOM     38  H6  DSK d          -3.607 -15.515 -19.582  0.00  0.00     0.210 HD
ENDBRANCH  35  37
BRANCH  35  39
ATOM     39  CAN DSK d          -0.966 -16.249 -20.005  0.00  0.00     0.083 C 
ATOM     40  H18 DSK d          -0.182 -16.976 -20.261  0.00  0.00     0.090 H 
BRANCH  39  41
ATOM     41  OAC DSK d          -0.892 -15.132 -20.903  0.00  0.00    -0.391 OA
ATOM     42  H3  DSK d          -0.175 -15.263 -21.512  0.00  0.00     0.210 HD
ENDBRANCH  39  41
BRANCH  39  43
ATOM     43  CAJ DSK d          -0.766 -15.777 -18.560  0.00  0.00     0.043 C 
ATOM     44  H10 DSK d          -0.300 -16.579 -17.967  0.00  0.00     0.078 H 
ATOM     45  H11 DSK d          -0.119 -14.887 -18.545  0.00  0.00     0.078 H 
BRANCH  43  46
ATOM     46  OAA DSK d          -2.037 -15.456 -18.019  0.00  0.00    -0.398 OA
ATOM     47  H1  DSK d          -2.209 -16.011 -17.268  0.00  0.00     0.209 HD
ENDBRANCH  43  46
ENDBRANCH  39  43
ENDBRANCH  35  39
ENDBRANCH  31  35
ENDBRANCH  27  31
ENDBRANCH   1  27
TORSDOF 17
ENDMDL
MODEL 3
REMARK VINA RESULT:      -5.8      2.334      7.525
REMARK  17 active torsions:
REMARK  status: ('A' for Active; 'I' for Inactive)
REMARK    1  A    between atoms: CAJ_10  and  OAA_1 
REMARK    2  A    between atoms: CAK_11  and  OAB_2 
REMARK    3  A    between atoms: CAN_14  and  OAC_3 
REMARK    4  A    between atoms: CAO_15  and  OAD_4 
REMARK    5  A    between atoms: CAP_16  and  OAE_5 
REMARK    6  A    between atoms: CAQ_17  and  OAF_6 
REMARK    7  A    between atoms: CAR_18  and  OAG_7 
REMARK    8  A    between atoms: CAS_19  and  OAH_8 
REMARK    9  A    between atoms: CAT_20  and  OAI_9 
REMARK   10  A    between atoms: CAN_14  and  CAJ_10 
REMARK   11  A    between atoms: CAU_21  and  CAK_11 
REMARK   12  A    between atoms: CAL_12  and  CAO_15 
REMARK   13  A    between atoms: SAV_22  and  CAL_12 
REMARK   14  A    between atoms: CAQ_17  and  CAN_14 
REMARK   15  A    between atoms: CAO_15  and  CAR_18 
REMARK   16  A    between atoms: CAS_19  and  CAQ_17 
REMARK   17  A    between atoms: CAR_18  and  CAS_19 
ROOT
ATOM      1  CAO DSK d          -2.852 -20.335 -21.917  0.00  0.00     0.070 C 
ATOM      2  H19 DSK d          -2.129 -21.165 -21.926  0.00  0.00     0.088 H 
ENDROOT
BRANCH   1   3
ATOM      3  OAD DSK d          -2.739 -19.636 -23.149  0.00  0.00    -0.392 OA
ATOM      4  H4  DSK d          -1.832 -19.641 -23.433  0.00  0.00     0.210 HD
ENDBRANCH   1   3
BRANCH   1   5
ATOM      5  CAL DSK d          -4.274 -20.956 -21.750  0.00  0.00    -0.005 C 
ATOM      6  H14 DSK d          -4.907 -20.628 -22.587  0.00  0.00     0.051 H 
ATOM      7  H15 DSK d          -4.708 -20.604 -20.803  0.00  0.00     0.051 H 
BRANCH   5   8
ATOM      8  SAV DSK d          -4.211 -22.765 -21.733  0.00  0.00    -0.206 SA
ATOM      9  CAM DSK d          -2.515 -23.376 -21.367  0.00  0.00    -0.005 C 
ATOM     10  CAP DSK d          -1.867 -23.302 -22.765  0.00  0.00     0.069 C 
ATOM     11  H16 DSK d          -1.997 -22.724 -20.648  0.00  0.00     0.051 H 
ATOM     12  H17 DSK d          -2.531 -24.406 -20.982  0.00  0.00     0.051 H 
ATOM     13  CAT DSK d          -2.903 -24.012 -23.680  0.00  0.00     0.074 C 
ATOM     14  H20 DSK d          -1.716 -22.256 -23.069  0.00  0.00     0.088 H 
ATOM     15  CAU DSK d          -4.214 -23.189 -23.518  0.00  0.00     0.030 C 
ATOM     16  H24 DSK d          -3.054 -25.063 -23.395  0.00  0.00     0.088 H 
ATOM     17  H25 DSK d          -4.119 -22.261 -24.099  0.00  0.00     0.062 H 
BRANCH  10  18
ATOM     18  OAE DSK d          -0.596 -24.018 -22.833  0.00  0.00    -0.392 OA
ATOM     19  H5  DSK d          -0.688 -24.866 -22.415  0.00  0.00     0.210 HD
ENDBRANCH  10  18
BRANCH  13  20
ATOM     20  OAI DSK d          -2.411 -23.909 -25.022  0.00  0.00    -0.392 OA
ATOM     21  H9  DSK d          -3.049 -23.451 -25.558  0.00  0.00     0.210 HD
ENDBRANCH  13  20
BRANCH  15  22
ATOM     22  CAK DSK d          -5.504 -23.890 -24.028  0.00  0.00     0.030 C 
ATOM     23  H12 DSK d          -6.122 -24.154 -23.158  0.00  0.00     0.075 H 
ATOM     24  H13 DSK d          -6.053 -23.182 -24.667  0.00  0.00     0.075 H 
BRANCH  22  25
ATOM     25  OAB DSK d          -5.256 -25.080 -24.784  0.00  0.00    -0.400 OA
ATOM     26  H2  DSK d          -4.446 -25.478 -24.488  0.00  0.00     0.209 HD
ENDBRANCH  22  25
ENDBRANCH  15  22
ENDBRANCH   5   8
ENDBRANCH   1   5
BRANCH   1  27
ATOM     27  CAR DSK d          -2.472 -19.396 -20.775  0.00  0.00     0.088 C 
ATOM     28  H22 DSK d          -3.197 -19.464 -19.951  0.00  0.00     0.091 H 
BRANCH  27  29
ATOM     29  OAG DSK d          -1.152 -19.794 -20.365  0.00  0.00    -0.390 OA
ATOM     30  H7  DSK d          -1.215 -20.546 -19.789  0.00  0.00     0.210 HD
ENDBRANCH  27  29
BRANCH  27  31
ATOM     31  CAS DSK d          -2.346 -17.939 -21.281  0.00  0.00     0.090 C 
ATOM     32  H23 DSK d          -3.224 -17.716 -21.906  0.00  0.00     0.091 H 
BRANCH  31  33
ATOM     33  OAH DSK d          -1.168 -17.793 -22.073  0.00  0.00    -0.390 OA
ATOM     34  H8  DSK d          -0.600 -17.143 -21.676  0.00  0.00     0.210 HD
ENDBRANCH  31  33
BRANCH  31  35
ATOM     35  CAQ DSK d          -2.299 -16.931 -20.136  0.00  0.00     0.089 C 
ATOM     36  H21 DSK d          -2.554 -17.431 -19.190  0.00  0.00     0.091 H 
BRANCH  35  37
ATOM     37  OAF DSK d          -3.247 -15.895 -20.420  0.00  0.00    -0.390 OA
ATOM     38  H6  DSK d          -2.793 -15.144 -20.783  0.00  0.00     0.210 HD
ENDBRANCH  35  37
BRANCH  35  39
ATOM     39  CAN DSK d          -0.898 -16.290 -20.024  0.00  0.00     0.083 C 
ATOM     40  H18 DSK d          -0.131 -17.048 -20.239  0.00  0.00     0.090 H 
BRANCH  39  41
ATOM     41  OAC DSK d          -0.797 -15.223 -20.978  0.00  0.00    -0.391 OA
ATOM     42  H3  DSK d           0.027 -14.766 -20.854  0.00  0.00     0.210 HD
ENDBRANCH  39  41
BRANCH  39  43
ATOM     43  CAJ DSK d          -0.689 -15.748 -18.604  0.00  0.00     0.043 C 
ATOM     44  H10 DSK d          -0.363 -16.562 -17.939  0.00  0.00     0.078 H 
ATOM     45  H11 DSK d           0.074 -14.956 -18.616  0.00  0.00     0.078 H 
BRANCH  43  46
ATOM     46  OAA DSK d          -1.923 -15.220 -18.146  0.00  0.00    -0.398 OA
ATOM     47  H1  DSK d          -2.165 -15.644 -17.332  0.00  0.00     0.209 HD
ENDBRANCH  43  46
ENDBRANCH  39  43
ENDBRANCH  35  39
ENDBRANCH  31  35
ENDBRANCH  27  31
ENDBRANCH   1  27
TORSDOF 17
ENDMDL
MODEL 4
REMARK VINA RESULT:      -5.6      1.412      1.740
REMARK  17 active torsions:
REMARK  status: ('A' for Active; 'I' for Inactive)
REMARK    1  A    between atoms: CAJ_10  and  OAA_1 
REMARK    2  A    between atoms: CAK_11  and  OAB_2 
REMARK    3  A    between atoms: CAN_14  and  OAC_3 
REMARK    4  A    between atoms: CAO_15  and  OAD_4 
REMARK    5  A    between atoms: CAP_16  and  OAE_5 
REMARK    6  A    between atoms: CAQ_17  and  OAF_6 
REMARK    7  A    between atoms: CAR_18  and  OAG_7 
REMARK    8  A    between atoms: CAS_19  and  OAH_8 
REMARK    9  A    between atoms: CAT_20  and  OAI_9 
REMARK   10  A    between atoms: CAN_14  and  CAJ_10 
REMARK   11  A    between atoms: CAU_21  and  CAK_11 
REMARK   12  A    between atoms: CAL_12  and  CAO_15 
REMARK   13  A    between atoms: SAV_22  and  CAL_12 
REMARK   14  A    between atoms: CAQ_17  and  CAN_14 
REMARK   15  A    between atoms: CAO_15  and  CAR_18 
REMARK   16  A    between atoms: CAS_19  and  CAQ_17 
REMARK   17  A    between atoms: CAR_18  and  CAS_19 
ROOT
ATOM      1  CAO DSK d          -3.061 -19.538 -21.881  0.00  0.00     0.070 C 
ATOM      2  H19 DSK d          -3.993 -18.981 -22.062  0.00  0.00     0.088 H 
ENDROOT
BRANCH   1   3
ATOM      3  OAD DSK d          -2.290 -19.511 -23.073  0.00  0.00    -0.392 OA
ATOM      4  H4  DSK d          -2.097 -20.401 -23.345  0.00  0.00     0.210 HD
ENDBRANCH   1   3
BRANCH   1   5
ATOM      5  CAL DSK d          -2.313 -18.827 -20.710  0.00  0.00    -0.005 C 
ATOM      6  H14 DSK d          -1.244 -19.078 -20.764  0.00  0.00     0.051 H 
ATOM      7  H15 DSK d          -2.725 -19.184 -19.754  0.00  0.00     0.051 H 
BRANCH   5   8
ATOM      8  SAV DSK d          -2.500 -17.028 -20.796  0.00  0.00    -0.206 SA
ATOM      9  CAM DSK d          -1.076 -16.245 -21.657  0.00  0.00    -0.005 C 
ATOM     10  CAP DSK d          -0.053 -16.148 -20.506  0.00  0.00     0.069 C 
ATOM     11  H16 DSK d          -0.703 -16.876 -22.477  0.00  0.00     0.051 H 
ATOM     12  H17 DSK d          -1.338 -15.251 -22.050  0.00  0.00     0.051 H 
ATOM     13  CAT DSK d          -0.871 -15.509 -19.350  0.00  0.00     0.074 C 
ATOM     14  H20 DSK d           0.317 -17.147 -20.231  0.00  0.00     0.088 H 
ATOM     15  CAU DSK d          -2.051 -16.491 -19.101  0.00  0.00     0.030 C 
ATOM     16  H24 DSK d          -1.236 -14.504 -19.608  0.00  0.00     0.088 H 
ATOM     17  H25 DSK d          -1.671 -17.362 -18.546  0.00  0.00     0.062 H 
BRANCH  10  18
ATOM     18  OAE DSK d           1.077 -15.283 -20.832  0.00  0.00    -0.392 OA
ATOM     19  H5  DSK d           1.299 -15.385 -21.750  0.00  0.00     0.210 HD
ENDBRANCH  10  18
BRANCH  13  20
ATOM     20  OAI DSK d          -0.008 -15.463 -18.207  0.00  0.00    -0.392 OA
ATOM     21  H9  DSK d           0.787 -15.952 -18.392  0.00  0.00     0.210 HD
ENDBRANCH  13  20
BRANCH  15  22
ATOM     22  CAK DSK d          -3.223 -15.918 -18.257  0.00  0.00     0.030 C 
ATOM     23  H12 DSK d          -4.048 -16.646 -18.269  0.00  0.00     0.075 H 
ATOM     24  H13 DSK d          -2.871 -15.780 -17.223  0.00  0.00     0.075 H 
BRANCH  22  25
ATOM     25  OAB DSK d          -3.722 -14.664 -18.734  0.00  0.00    -0.400 OA
ATOM     26  H2  DSK d          -3.224 -14.397 -19.499  0.00  0.00     0.209 HD
ENDBRANCH  22  25
ENDBRANCH  15  22
ENDBRANCH   5   8
ENDBRANCH   1   5
BRANCH   1  27
ATOM     27  CAR DSK d          -3.435 -20.983 -21.561  0.00  0.00     0.088 C 
ATOM     28  H22 DSK d          -3.652 -21.107 -20.490  0.00  0.00     0.091 H 
BRANCH  27  29
ATOM     29  OAG DSK d          -4.580 -21.279 -22.379  0.00  0.00    -0.390 OA
ATOM     30  H7  DSK d          -5.047 -22.020 -22.012  0.00  0.00     0.210 HD
ENDBRANCH  27  29
BRANCH  27  31
ATOM     31  CAS DSK d          -2.318 -21.952 -22.015  0.00  0.00     0.090 C 
ATOM     32  H23 DSK d          -1.375 -21.388 -22.066  0.00  0.00     0.091 H 
BRANCH  31  33
ATOM     33  OAH DSK d          -2.613 -22.473 -23.310  0.00  0.00    -0.390 OA
ATOM     34  H8  DSK d          -3.491 -22.835 -23.311  0.00  0.00     0.210 HD
ENDBRANCH  31  33
BRANCH  31  35
ATOM     35  CAQ DSK d          -2.133 -23.116 -21.044  0.00  0.00     0.089 C 
ATOM     36  H21 DSK d          -2.167 -24.068 -21.594  0.00  0.00     0.091 H 
BRANCH  35  37
ATOM     37  OAF DSK d          -3.191 -23.061 -20.081  0.00  0.00    -0.390 OA
ATOM     38  H6  DSK d          -2.823 -23.076 -19.206  0.00  0.00     0.210 HD
ENDBRANCH  35  37
BRANCH  35  39
ATOM     39  CAN DSK d          -0.787 -22.998 -20.294  0.00  0.00     0.083 C 
ATOM     40  H18 DSK d          -0.125 -23.822 -20.598  0.00  0.00     0.090 H 
BRANCH  39  41
ATOM     41  OAC DSK d          -0.175 -21.745 -20.631  0.00  0.00    -0.391 OA
ATOM     42  H3  DSK d           0.490 -21.535 -19.985  0.00  0.00     0.210 HD
ENDBRANCH  39  41
BRANCH  39  43
ATOM     43  CAJ DSK d          -1.030 -23.077 -18.782  0.00  0.00     0.043 C 
ATOM     44  H10 DSK d          -1.884 -23.740 -18.576  0.00  0.00     0.078 H 
ATOM     45  H11 DSK d          -0.132 -23.468 -18.281  0.00  0.00     0.078 H 
BRANCH  43  46
ATOM     46  OAA DSK d          -1.311 -21.770 -18.310  0.00  0.00    -0.398 OA
ATOM     47  H1  DSK d          -0.497 -21.297 -18.188  0.00  0.00     0.209 HD
ENDBRANCH  43  46
ENDBRANCH  39  43
ENDBRANCH  35  39
ENDBRANCH  31  35
ENDBRANCH  27  31
ENDBRANCH   1  27
TORSDOF 17
ENDMDL
MODEL 5
REMARK VINA RESULT:      -5.5      1.512      2.652
REMARK  17 active torsions:
REMARK  status: ('A' for Active; 'I' for Inactive)
REMARK    1  A    between atoms: CAJ_10  and  OAA_1 
REMARK    2  A    between atoms: CAK_11  and  OAB_2 
REMARK    3  A    between atoms: CAN_14  and  OAC_3 
REMARK    4  A    between atoms: CAO_15  and  OAD_4 
REMARK    5  A    between atoms: CAP_16  and  OAE_5 
REMARK    6  A    between atoms: CAQ_17  and  OAF_6 
REMARK    7  A    between atoms: CAR_18  and  OAG_7 
REMARK    8  A    between atoms: CAS_19  and  OAH_8 
REMARK    9  A    between atoms: CAT_20  and  OAI_9 
REMARK   10  A    between atoms: CAN_14  and  CAJ_10 
REMARK   11  A    between atoms: CAU_21  and  CAK_11 
REMARK   12  A    between atoms: CAL_12  and  CAO_15 
REMARK   13  A    between atoms: SAV_22  and  CAL_12 
REMARK   14  A    between atoms: CAQ_17  and  CAN_14 
REMARK   15  A    between atoms: CAO_15  and  CAR_18 
REMARK   16  A    between atoms: CAS_19  and  CAQ_17 
REMARK   17  A    between atoms: CAR_18  and  CAS_19 
ROOT
ATOM      1  CAO DSK d          -1.796 -19.994 -20.972  0.00  0.00     0.070 C 
ATOM      2  H19 DSK d          -1.060 -19.442 -21.575  0.00  0.00     0.088 H 
ENDROOT
BRANCH   1   3
ATOM      3  OAD DSK d          -1.191 -21.199 -20.526  0.00  0.00    -0.392 OA
ATOM      4  H4  DSK d          -1.240 -21.246 -19.579  0.00  0.00     0.210 HD
ENDBRANCH   1   3
BRANCH   1   5
ATOM      5  CAL DSK d          -2.190 -19.082 -19.768  0.00  0.00    -0.005 C 
ATOM      6  H14 DSK d          -1.368 -19.082 -19.037  0.00  0.00     0.051 H 
ATOM      7  H15 DSK d          -3.099 -19.485 -19.297  0.00  0.00     0.051 H 
BRANCH   5   8
ATOM      8  SAV DSK d          -2.506 -17.380 -20.298  0.00  0.00    -0.206 SA
ATOM      9  CAM DSK d          -1.213 -16.788 -21.465  0.00  0.00    -0.005 C 
ATOM     10  CAP DSK d          -0.110 -16.345 -20.482  0.00  0.00     0.069 C 
ATOM     11  H16 DSK d          -0.865 -17.596 -22.125  0.00  0.00     0.051 H 
ATOM     12  H17 DSK d          -1.574 -15.947 -22.074  0.00  0.00     0.051 H 
ATOM     13  CAT DSK d          -0.873 -15.462 -19.458  0.00  0.00     0.074 C 
ATOM     14  H20 DSK d           0.349 -17.218 -19.994  0.00  0.00     0.088 H 
ATOM     15  CAU DSK d          -1.959 -16.395 -18.850  0.00  0.00     0.030 C 
ATOM     16  H24 DSK d          -1.326 -14.578 -19.931  0.00  0.00     0.088 H 
ATOM     17  H25 DSK d          -1.477 -17.070 -18.128  0.00  0.00     0.062 H 
BRANCH  10  18
ATOM     18  OAE DSK d           0.928 -15.547 -21.127  0.00  0.00    -0.392 OA
ATOM     19  H5  DSK d           1.519 -16.120 -21.602  0.00  0.00     0.210 HD
ENDBRANCH  10  18
BRANCH  13  20
ATOM     20  OAI DSK d           0.074 -15.077 -18.454  0.00  0.00    -0.392 OA
ATOM     21  H9  DSK d           0.154 -14.130 -18.441  0.00  0.00     0.210 HD
ENDBRANCH  13  20
BRANCH  15  22
ATOM     22  CAK DSK d          -3.096 -15.673 -18.075  0.00  0.00     0.030 C 
ATOM     23  H12 DSK d          -3.873 -16.413 -17.830  0.00  0.00     0.075 H 
ATOM     24  H13 DSK d          -2.675 -15.262 -17.145  0.00  0.00     0.075 H 
BRANCH  22  25
ATOM     25  OAB DSK d          -3.706 -14.603 -18.805  0.00  0.00    -0.400 OA
ATOM     26  H2  DSK d          -4.091 -13.985 -18.195  0.00  0.00     0.209 HD
ENDBRANCH  22  25
ENDBRANCH  15  22
ENDBRANCH   5   8
ENDBRANCH   1   5
BRANCH   1  27
ATOM     27  CAR DSK d          -2.979 -20.334 -21.875  0.00  0.00     0.088 C 
ATOM     28  H22 DSK d          -3.914 -19.913 -21.475  0.00  0.00     0.091 H 
BRANCH  27  29
ATOM     29  OAG DSK d          -2.653 -19.791 -23.166  0.00  0.00    -0.390 OA
ATOM     30  H7  DSK d          -2.357 -18.895 -23.065  0.00  0.00     0.210 HD
ENDBRANCH  27  29
BRANCH  27  31
ATOM     31  CAS DSK d          -3.100 -21.864 -22.068  0.00  0.00     0.090 C 
ATOM     32  H23 DSK d          -2.260 -22.343 -21.542  0.00  0.00     0.091 H 
BRANCH  31  33
ATOM     33  OAH DSK d          -3.024 -22.194 -23.454  0.00  0.00    -0.390 OA
ATOM     34  H8  DSK d          -2.137 -22.456 -23.667  0.00  0.00     0.210 HD
ENDBRANCH  31  33
BRANCH  31  35
ATOM     35  CAQ DSK d          -4.405 -22.418 -21.499  0.00  0.00     0.089 C 
ATOM     36  H21 DSK d          -4.961 -22.943 -22.289  0.00  0.00     0.091 H 
BRANCH  35  37
ATOM     37  OAF DSK d          -5.171 -21.316 -21.000  0.00  0.00    -0.390 OA
ATOM     38  H6  DSK d          -4.806 -21.026 -20.172  0.00  0.00     0.210 HD
ENDBRANCH  35  37
BRANCH  35  39
ATOM     39  CAN DSK d          -4.127 -23.386 -20.328  0.00  0.00     0.083 C 
ATOM     40  H18 DSK d          -4.712 -24.307 -20.468  0.00  0.00     0.090 H 
BRANCH  39  41
ATOM     41  OAC DSK d          -2.728 -23.707 -20.311  0.00  0.00    -0.391 OA
ATOM     42  H3  DSK d          -2.261 -23.117 -20.890  0.00  0.00     0.210 HD
ENDBRANCH  39  41
BRANCH  39  43
ATOM     43  CAJ DSK d          -4.532 -22.726 -19.004  0.00  0.00     0.043 C 
ATOM     44  H10 DSK d          -5.375 -22.039 -19.173  0.00  0.00     0.078 H 
ATOM     45  H11 DSK d          -4.828 -23.499 -18.278  0.00  0.00     0.078 H 
BRANCH  43  46
ATOM     46  OAA DSK d          -3.416 -22.005 -18.509  0.00  0.00    -0.398 OA
ATOM     47  H1  DSK d          -3.582 -21.744 -17.611  0.00  0.00     0.209 HD
ENDBRANCH  43  46
ENDBRANCH  39  43
ENDBRANCH  35  39
ENDBRANCH  31  35
ENDBRANCH  27  31
ENDBRANCH   1  27
TORSDOF 17
ENDMDL
MODEL 6
REMARK VINA RESULT:      -5.3      2.475      7.131
REMARK  17 active torsions:
REMARK  status: ('A' for Active; 'I' for Inactive)
REMARK    1  A    between atoms: CAJ_10  and  OAA_1 
REMARK    2  A    between atoms: CAK_11  and  OAB_2 
REMARK    3  A    between atoms: CAN_14  and  OAC_3 
REMARK    4  A    between atoms: CAO_15  and  OAD_4 
REMARK    5  A    between atoms: CAP_16  and  OAE_5 
REMARK    6  A    between atoms: CAQ_17  and  OAF_6 
REMARK    7  A    between atoms: CAR_18  and  OAG_7 
REMARK    8  A    between atoms: CAS_19  and  OAH_8 
REMARK    9  A    between atoms: CAT_20  and  OAI_9 
REMARK   10  A    between atoms: CAN_14  and  CAJ_10 
REMARK   11  A    between atoms: CAU_21  and  CAK_11 
REMARK   12  A    between atoms: CAL_12  and  CAO_15 
REMARK   13  A    between atoms: SAV_22  and  CAL_12 
REMARK   14  A    between atoms: CAQ_17  and  CAN_14 
REMARK   15  A    between atoms: CAO_15  and  CAR_18 
REMARK   16  A    between atoms: CAS_19  and  CAQ_17 
REMARK   17  A    between atoms: CAR_18  and  CAS_19 
ROOT
ATOM      1  CAO DSK d          -3.036 -20.276 -22.080  0.00  0.00     0.070 C 
ATOM      2  H19 DSK d          -2.305 -21.090 -22.195  0.00  0.00     0.088 H 
ENDROOT
BRANCH   1   3
ATOM      3  OAD DSK d          -3.035 -19.507 -23.274  0.00  0.00    -0.392 OA
ATOM      4  H4  DSK d          -2.505 -18.729 -23.149  0.00  0.00     0.210 HD
ENDBRANCH   1   3
BRANCH   1   5
ATOM      5  CAL DSK d          -4.430 -20.932 -21.833  0.00  0.00    -0.005 C 
ATOM      6  H14 DSK d          -5.098 -20.679 -22.669  0.00  0.00     0.051 H 
ATOM      7  H15 DSK d          -4.850 -20.537 -20.896  0.00  0.00     0.051 H 
BRANCH   5   8
ATOM      8  SAV DSK d          -4.304 -22.734 -21.706  0.00  0.00    -0.206 SA
ATOM      9  CAM DSK d          -5.549 -23.415 -20.535  0.00  0.00    -0.005 C 
ATOM     10  CAP DSK d          -4.830 -23.205 -19.186  0.00  0.00     0.069 C 
ATOM     11  H16 DSK d          -6.494 -22.855 -20.581  0.00  0.00     0.051 H 
ATOM     12  H17 DSK d          -5.744 -24.480 -20.728  0.00  0.00     0.051 H 
ATOM     13  CAT DSK d          -3.414 -23.791 -19.438  0.00  0.00     0.074 C 
ATOM     14  H20 DSK d          -4.782 -22.135 -18.935  0.00  0.00     0.088 H 
ATOM     15  CAU DSK d          -2.840 -22.964 -20.625  0.00  0.00     0.030 C 
ATOM     16  H24 DSK d          -3.447 -24.864 -19.678  0.00  0.00     0.088 H 
ATOM     17  H25 DSK d          -2.525 -21.981 -20.246  0.00  0.00     0.062 H 
BRANCH  10  18
ATOM     18  OAE DSK d          -5.465 -23.935 -18.093  0.00  0.00    -0.392 OA
ATOM     19  H5  DSK d          -6.349 -24.175 -18.345  0.00  0.00     0.210 HD
ENDBRANCH  10  18
BRANCH  13  20
ATOM     20  OAI DSK d          -2.649 -23.555 -18.249  0.00  0.00    -0.392 OA
ATOM     21  H9  DSK d          -2.328 -24.384 -17.911  0.00  0.00     0.210 HD
ENDBRANCH  13  20
BRANCH  15  22
ATOM     22  CAK DSK d          -1.594 -23.579 -21.321  0.00  0.00     0.030 C 
ATOM     23  H12 DSK d          -1.207 -24.390 -20.685  0.00  0.00     0.075 H 
ATOM     24  H13 DSK d          -1.908 -23.992 -22.291  0.00  0.00     0.075 H 
BRANCH  22  25
ATOM     25  OAB DSK d          -0.537 -22.642 -21.550  0.00  0.00    -0.400 OA
ATOM     26  H2  DSK d           0.118 -22.733 -20.868  0.00  0.00     0.209 HD
ENDBRANCH  22  25
ENDBRANCH  15  22
ENDBRANCH   5   8
ENDBRANCH   1   5
BRANCH   1  27
ATOM     27  CAR DSK d          -2.576 -19.396 -20.921  0.00  0.00     0.088 C 
ATOM     28  H22 DSK d          -3.277 -19.460 -20.074  0.00  0.00     0.091 H 
BRANCH  27  29
ATOM     29  OAG DSK d          -1.264 -19.867 -20.570  0.00  0.00    -0.390 OA
ATOM     30  H7  DSK d          -0.800 -20.124 -21.357  0.00  0.00     0.210 HD
ENDBRANCH  27  29
BRANCH  27  31
ATOM     31  CAS DSK d          -2.400 -17.930 -21.381  0.00  0.00     0.090 C 
ATOM     32  H23 DSK d          -3.284 -17.647 -21.972  0.00  0.00     0.091 H 
BRANCH  31  33
ATOM     33  OAH DSK d          -1.240 -17.807 -22.202  0.00  0.00    -0.390 OA
ATOM     34  H8  DSK d          -0.462 -17.893 -21.664  0.00  0.00     0.210 HD
ENDBRANCH  31  33
BRANCH  31  35
ATOM     35  CAQ DSK d          -2.276 -16.964 -20.205  0.00  0.00     0.089 C 
ATOM     36  H21 DSK d          -2.487 -17.495 -19.265  0.00  0.00     0.091 H 
BRANCH  35  37
ATOM     37  OAF DSK d          -3.221 -15.906 -20.400  0.00  0.00    -0.390 OA
ATOM     38  H6  DSK d          -3.577 -15.641 -19.560  0.00  0.00     0.210 HD
ENDBRANCH  35  37
BRANCH  35  39
ATOM     39  CAN DSK d          -0.862 -16.347 -20.146  0.00  0.00     0.083 C 
ATOM     40  H18 DSK d          -0.111 -17.133 -20.312  0.00  0.00     0.090 H 
BRANCH  39  41
ATOM     41  OAC DSK d          -0.745 -15.351 -21.174  0.00  0.00    -0.391 OA
ATOM     42  H3  DSK d          -0.748 -14.488 -20.779  0.00  0.00     0.210 HD
ENDBRANCH  39  41
BRANCH  39  43
ATOM     43  CAJ DSK d          -0.631 -15.711 -18.769  0.00  0.00     0.043 C 
ATOM     44  H10 DSK d          -1.596 -15.560 -18.263  0.00  0.00     0.078 H 
ATOM     45  H11 DSK d           0.006 -16.368 -18.158  0.00  0.00     0.078 H 
BRANCH  43  46
ATOM     46  OAA DSK d           0.012 -14.462 -18.961  0.00  0.00    -0.398 OA
ATOM     47  H1  DSK d          -0.644 -13.784 -19.076  0.00  0.00     0.209 HD
ENDBRANCH  43  46
ENDBRANCH  39  43
ENDBRANCH  35  39
ENDBRANCH  31  35
ENDBRANCH  27  31
ENDBRANCH   1  27
TORSDOF 17
ENDMDL
MODEL 7
REMARK VINA RESULT:      -5.2      1.535      2.409
REMARK  17 active torsions:
REMARK  status: ('A' for Active; 'I' for Inactive)
REMARK    1  A    between atoms: CAJ_10  and  OAA_1 
REMARK    2  A    between atoms: CAK_11  and  OAB_2 
REMARK    3  A    between atoms: CAN_14  and  OAC_3 
REMARK    4  A    between atoms: CAO_15  and  OAD_4 
REMARK    5  A    between atoms: CAP_16  and  OAE_5 
REMARK    6  A    between atoms: CAQ_17  and  OAF_6 
REMARK    7  A    between atoms: CAR_18  and  OAG_7 
REMARK    8  A    between atoms: CAS_19  and  OAH_8 
REMARK    9  A    between atoms: CAT_20  and  OAI_9 
REMARK   10  A    between atoms: CAN_14  and  CAJ_10 
REMARK   11  A    between atoms: CAU_21  and  CAK_11 
REMARK   12  A    between atoms: CAL_12  and  CAO_15 
REMARK   13  A    between atoms: SAV_22  and  CAL_12 
REMARK   14  A    between atoms: CAQ_17  and  CAN_14 
REMARK   15  A    between atoms: CAO_15  and  CAR_18 
REMARK   16  A    between atoms: CAS_19  and  CAQ_17 
REMARK   17  A    between atoms: CAR_18  and  CAS_19 
ROOT
ATOM      1  CAO DSK d          -1.939 -20.373 -20.043  0.00  0.00     0.070 C 
ATOM      2  H19 DSK d          -2.912 -20.762 -19.708  0.00  0.00     0.088 H 
ENDROOT
BRANCH   1   3
ATOM      3  OAD DSK d          -2.036 -20.067 -21.427  0.00  0.00    -0.392 OA
ATOM      4  H4  DSK d          -2.868 -19.641 -21.598  0.00  0.00     0.210 HD
ENDBRANCH   1   3
BRANCH   1   5
ATOM      5  CAL DSK d          -1.632 -19.094 -19.204  0.00  0.00    -0.005 C 
ATOM      6  H14 DSK d          -0.542 -18.979 -19.112  0.00  0.00     0.051 H 
ATOM      7  H15 DSK d          -2.074 -19.210 -18.203  0.00  0.00     0.051 H 
BRANCH   5   8
ATOM      8  SAV DSK d          -2.317 -17.609 -19.981  0.00  0.00    -0.206 SA
ATOM      9  CAM DSK d          -1.270 -17.040 -21.382  0.00  0.00    -0.005 C 
ATOM     10  CAP DSK d          -0.192 -16.229 -20.634  0.00  0.00     0.069 C 
ATOM     11  H16 DSK d          -0.831 -17.887 -21.929  0.00  0.00     0.051 H 
ATOM     12  H17 DSK d          -1.839 -16.408 -22.080  0.00  0.00     0.051 H 
ATOM     13  CAT DSK d          -1.019 -15.310 -19.694  0.00  0.00     0.074 C 
ATOM     14  H20 DSK d           0.468 -16.897 -20.060  0.00  0.00     0.088 H 
ATOM     15  CAU DSK d          -1.847 -16.282 -18.805  0.00  0.00     0.030 C 
ATOM     16  H24 DSK d          -1.674 -14.627 -20.256  0.00  0.00     0.088 H 
ATOM     17  H25 DSK d          -1.182 -16.709 -18.041  0.00  0.00     0.062 H 
BRANCH  10  18
ATOM     18  OAE DSK d           0.612 -15.403 -21.530  0.00  0.00    -0.392 OA
ATOM     19  H5  DSK d           0.200 -14.554 -21.631  0.00  0.00     0.210 HD
ENDBRANCH  10  18
BRANCH  13  20
ATOM     20  OAI DSK d          -0.080 -14.579 -18.896  0.00  0.00    -0.392 OA
ATOM     21  H9  DSK d          -0.545 -13.937 -18.370  0.00  0.00     0.210 HD
ENDBRANCH  13  20
BRANCH  15  22
ATOM     22  CAK DSK d          -3.030 -15.631 -18.036  0.00  0.00     0.030 C 
ATOM     23  H12 DSK d          -3.709 -16.431 -17.703  0.00  0.00     0.075 H 
ATOM     24  H13 DSK d          -2.625 -15.105 -17.158  0.00  0.00     0.075 H 
BRANCH  22  25
ATOM     25  OAB DSK d          -3.783 -14.696 -18.814  0.00  0.00    -0.400 OA
ATOM     26  H2  DSK d          -4.709 -14.897 -18.741  0.00  0.00     0.209 HD
ENDBRANCH  22  25
ENDBRANCH  15  22
ENDBRANCH   5   8
ENDBRANCH   1   5
BRANCH   1  27
ATOM     27  CAR DSK d          -0.903 -21.478 -19.850  0.00  0.00     0.088 C 
ATOM     28  H22 DSK d           0.110 -21.112 -20.077  0.00  0.00     0.091 H 
BRANCH  27  29
ATOM     29  OAG DSK d          -1.030 -21.896 -18.480  0.00  0.00    -0.390 OA
ATOM     30  H7  DSK d          -1.352 -22.789 -18.451  0.00  0.00     0.210 HD
ENDBRANCH  27  29
BRANCH  27  31
ATOM     31  CAS DSK d          -1.250 -22.714 -20.713  0.00  0.00     0.090 C 
ATOM     32  H23 DSK d          -0.700 -23.577 -20.311  0.00  0.00     0.091 H 
BRANCH  31  33
ATOM     33  OAH DSK d          -0.848 -22.500 -22.065  0.00  0.00    -0.390 OA
ATOM     34  H8  DSK d          -0.148 -21.859 -22.088  0.00  0.00     0.210 HD
ENDBRANCH  31  33
BRANCH  31  35
ATOM     35  CAQ DSK d          -2.742 -23.037 -20.686  0.00  0.00     0.089 C 
ATOM     36  H21 DSK d          -3.323 -22.106 -20.619  0.00  0.00     0.091 H 
BRANCH  35  37
ATOM     37  OAF DSK d          -2.995 -23.863 -19.544  0.00  0.00    -0.390 OA
ATOM     38  H6  DSK d          -2.803 -23.374 -18.752  0.00  0.00     0.210 HD
ENDBRANCH  35  37
BRANCH  35  39
ATOM     39  CAN DSK d          -3.158 -23.819 -21.952  0.00  0.00     0.083 C 
ATOM     40  H18 DSK d          -2.271 -24.006 -22.574  0.00  0.00     0.090 H 
BRANCH  39  41
ATOM     41  OAC DSK d          -3.737 -25.071 -21.557  0.00  0.00    -0.391 OA
ATOM     42  H3  DSK d          -3.131 -25.775 -21.753  0.00  0.00     0.210 HD
ENDBRANCH  39  41
BRANCH  39  43
ATOM     43  CAJ DSK d          -4.175 -22.998 -22.756  0.00  0.00     0.043 C 
ATOM     44  H10 DSK d          -4.456 -23.545 -23.668  0.00  0.00     0.078 H 
ATOM     45  H11 DSK d          -5.072 -22.816 -22.146  0.00  0.00     0.078 H 
BRANCH  43  46
ATOM     46  OAA DSK d          -3.572 -21.763 -23.103  0.00  0.00    -0.398 OA
ATOM     47  H1  DSK d          -4.126 -21.305 -23.723  0.00  0.00     0.209 HD
ENDBRANCH  43  46
ENDBRANCH  39  43
ENDBRANCH  35  39
ENDBRANCH  31  35
ENDBRANCH  27  31
ENDBRANCH   1  27
TORSDOF 17
ENDMDL
MODEL 8
REMARK VINA RESULT:      -5.2      2.239      6.756
REMARK  17 active torsions:
REMARK  status: ('A' for Active; 'I' for Inactive)
REMARK    1  A    between atoms: CAJ_10  and  OAA_1 
REMARK    2  A    between atoms: CAK_11  and  OAB_2 
REMARK    3  A    between atoms: CAN_14  and  OAC_3 
REMARK    4  A    between atoms: CAO_15  and  OAD_4 
REMARK    5  A    between atoms: CAP_16  and  OAE_5 
REMARK    6  A    between atoms: CAQ_17  and  OAF_6 
REMARK    7  A    between atoms: CAR_18  and  OAG_7 
REMARK    8  A    between atoms: CAS_19  and  OAH_8 
REMARK    9  A    between atoms: CAT_20  and  OAI_9 
REMARK   10  A    between atoms: CAN_14  and  CAJ_10 
REMARK   11  A    between atoms: CAU_21  and  CAK_11 
REMARK   12  A    between atoms: CAL_12  and  CAO_15 
REMARK   13  A    between atoms: SAV_22  and  CAL_12 
REMARK   14  A    between atoms: CAQ_17  and  CAN_14 
REMARK   15  A    between atoms: CAO_15  and  CAR_18 
REMARK   16  A    between atoms: CAS_19  and  CAQ_17 
REMARK   17  A    between atoms: CAR_18  and  CAS_19 
ROOT
ATOM      1  CAO DSK d          -2.468 -20.800 -19.117  0.00  0.00     0.070 C 
ATOM      2  H19 DSK d          -3.277 -20.850 -19.860  0.00  0.00     0.088 H 
ENDROOT
BRANCH   1   3
ATOM      3  OAD DSK d          -3.052 -20.603 -17.838  0.00  0.00    -0.392 OA
ATOM      4  H4  DSK d          -3.704 -21.276 -17.681  0.00  0.00     0.210 HD
ENDBRANCH   1   3
BRANCH   1   5
ATOM      5  CAL DSK d          -1.693 -22.154 -19.179  0.00  0.00    -0.005 C 
ATOM      6  H14 DSK d          -1.727 -22.631 -18.189  0.00  0.00     0.051 H 
ATOM      7  H15 DSK d          -0.647 -21.955 -19.455  0.00  0.00     0.051 H 
BRANCH   5   8
ATOM      8  SAV DSK d          -2.418 -23.279 -20.399  0.00  0.00    -0.206 SA
ATOM      9  CAM DSK d          -1.176 -24.483 -21.024  0.00  0.00    -0.005 C 
ATOM     10  CAP DSK d          -0.477 -23.647 -22.116  0.00  0.00     0.069 C 
ATOM     11  H16 DSK d          -0.473 -24.785 -20.234  0.00  0.00     0.051 H 
ATOM     12  H17 DSK d          -1.658 -25.378 -21.446  0.00  0.00     0.051 H 
ATOM     13  CAT DSK d          -1.661 -23.064 -22.936  0.00  0.00     0.074 C 
ATOM     14  H20 DSK d           0.128 -22.847 -21.664  0.00  0.00     0.088 H 
ATOM     15  CAU DSK d          -2.496 -22.244 -21.911  0.00  0.00     0.030 C 
ATOM     16  H24 DSK d          -2.268 -23.853 -23.404  0.00  0.00     0.088 H 
ATOM     17  H25 DSK d          -1.975 -21.295 -21.715  0.00  0.00     0.062 H 
BRANCH  10  18
ATOM     18  OAE DSK d           0.362 -24.458 -22.993  0.00  0.00    -0.392 OA
ATOM     19  H5  DSK d          -0.111 -25.241 -23.248  0.00  0.00     0.210 HD
ENDBRANCH  10  18
BRANCH  13  20
ATOM     20  OAI DSK d          -1.093 -22.198 -23.926  0.00  0.00    -0.392 OA
ATOM     21  H9  DSK d          -0.268 -22.562 -24.228  0.00  0.00     0.210 HD
ENDBRANCH  13  20
BRANCH  15  22
ATOM     22  CAK DSK d          -3.928 -21.862 -22.378  0.00  0.00     0.030 C 
ATOM     23  H12 DSK d          -4.195 -22.499 -23.234  0.00  0.00     0.075 H 
ATOM     24  H13 DSK d          -4.625 -22.052 -21.548  0.00  0.00     0.075 H 
BRANCH  22  25
ATOM     25  OAB DSK d          -4.063 -20.494 -22.774  0.00  0.00    -0.400 OA
ATOM     26  H2  DSK d          -4.866 -20.387 -23.271  0.00  0.00     0.209 HD
ENDBRANCH  22  25
ENDBRANCH  15  22
ENDBRANCH   5   8
ENDBRANCH   1   5
BRANCH   1  27
ATOM     27  CAR DSK d          -1.594 -19.596 -19.457  0.00  0.00     0.088 C 
ATOM     28  H22 DSK d          -1.259 -19.082 -18.543  0.00  0.00     0.091 H 
BRANCH  27  29
ATOM     29  OAG DSK d          -0.489 -20.117 -20.216  0.00  0.00    -0.390 OA
ATOM     30  H7  DSK d          -0.441 -21.058 -20.097  0.00  0.00     0.210 HD
ENDBRANCH  27  29
BRANCH  27  31
ATOM     31  CAS DSK d          -2.342 -18.622 -20.397  0.00  0.00     0.090 C 
ATOM     32  H23 DSK d          -3.421 -18.813 -20.300  0.00  0.00     0.091 H 
BRANCH  31  33
ATOM     33  OAH DSK d          -1.954 -18.848 -21.751  0.00  0.00    -0.390 OA
ATOM     34  H8  DSK d          -2.079 -19.765 -21.966  0.00  0.00     0.210 HD
ENDBRANCH  31  33
BRANCH  31  35
ATOM     35  CAQ DSK d          -2.078 -17.160 -20.045  0.00  0.00     0.089 C 
ATOM     36  H21 DSK d          -2.089 -17.032 -18.952  0.00  0.00     0.091 H 
BRANCH  35  37
ATOM     37  OAF DSK d          -3.107 -16.367 -20.647  0.00  0.00    -0.390 OA
ATOM     38  H6  DSK d          -2.930 -16.272 -21.575  0.00  0.00     0.210 HD
ENDBRANCH  35  37
BRANCH  35  39
ATOM     39  CAN DSK d          -0.716 -16.696 -20.607  0.00  0.00     0.083 C 
ATOM     40  H18 DSK d           0.019 -17.508 -20.504  0.00  0.00     0.090 H 
BRANCH  39  41
ATOM     41  OAC DSK d          -0.873 -16.369 -21.996  0.00  0.00    -0.391 OA
ATOM     42  H3  DSK d          -0.693 -15.445 -22.125  0.00  0.00     0.210 HD
ENDBRANCH  39  41
BRANCH  39  43
ATOM     43  CAJ DSK d          -0.225 -15.469 -19.829  0.00  0.00     0.043 C 
ATOM     44  H10 DSK d          -0.139 -15.716 -18.760  0.00  0.00     0.078 H 
ATOM     45  H11 DSK d           0.756 -15.153 -20.213  0.00  0.00     0.078 H 
BRANCH  43  46
ATOM     46  OAA DSK d          -1.169 -14.426 -20.007  0.00  0.00    -0.398 OA
ATOM     47  H1  DSK d          -1.890 -14.741 -20.539  0.00  0.00     0.209 HD
ENDBRANCH  43  46
ENDBRANCH  39  43
ENDBRANCH  35  39
ENDBRANCH  31  35
ENDBRANCH  27  31
ENDBRANCH   1  27
TORSDOF 17
ENDMDL
MODEL 9
REMARK VINA RESULT:      -5.1      1.335      2.734
REMARK  17 active torsions:
REMARK  status: ('A' for Active; 'I' for Inactive)
REMARK    1  A    between atoms: CAJ_10  and  OAA_1 
REMARK    2  A    between atoms: CAK_11  and  OAB_2 
REMARK    3  A    between atoms: CAN_14  and  OAC_3 
REMARK    4  A    between atoms: CAO_15  and  OAD_4 
REMARK    5  A    between atoms: CAP_16  and  OAE_5 
REMARK    6  A    between atoms: CAQ_17  and  OAF_6 
REMARK    7  A    between atoms: CAR_18  and  OAG_7 
REMARK    8  A    between atoms: CAS_19  and  OAH_8 
REMARK    9  A    between atoms: CAT_20  and  OAI_9 
REMARK   10  A    between atoms: CAN_14  and  CAJ_10 
REMARK   11  A    between atoms: CAU_21  and  CAK_11 
REMARK   12  A    between atoms: CAL_12  and  CAO_15 
REMARK   13  A    between atoms: SAV_22  and  CAL_12 
REMARK   14  A    between atoms: CAQ_17  and  CAN_14 
REMARK   15  A    between atoms: CAO_15  and  CAR_18 
REMARK   16  A    between atoms: CAS_19  and  CAQ_17 
REMARK   17  A    between atoms: CAR_18  and  CAS_19 
ROOT
ATOM      1  CAO DSK d          -3.042 -19.532 -21.495  0.00  0.00     0.070 C 
ATOM      2  H19 DSK d          -3.833 -19.358 -20.750  0.00  0.00     0.088 H 
ENDROOT
BRANCH   1   3
ATOM      3  OAD DSK d          -3.659 -19.918 -22.715  0.00  0.00    -0.392 OA
ATOM      4  H4  DSK d          -4.452 -20.406 -22.528  0.00  0.00     0.210 HD
ENDBRANCH   1   3
BRANCH   1   5
ATOM      5  CAL DSK d          -2.254 -18.196 -21.660  0.00  0.00    -0.005 C 
ATOM      6  H14 DSK d          -2.969 -17.376 -21.821  0.00  0.00     0.051 H 
ATOM      7  H15 DSK d          -1.589 -18.278 -22.533  0.00  0.00     0.051 H 
BRANCH   5   8
ATOM      8  SAV DSK d          -1.257 -17.826 -20.194  0.00  0.00    -0.206 SA
ATOM      9  CAM DSK d          -2.315 -17.539 -18.717  0.00  0.00    -0.005 C 
ATOM     10  CAP DSK d          -2.695 -16.057 -18.911  0.00  0.00     0.069 C 
ATOM     11  H16 DSK d          -3.202 -18.188 -18.724  0.00  0.00     0.051 H 
ATOM     12  H17 DSK d          -1.754 -17.694 -17.783  0.00  0.00     0.051 H 
ATOM     13  CAT DSK d          -1.331 -15.368 -19.192  0.00  0.00     0.074 C 
ATOM     14  H20 DSK d          -3.384 -15.941 -19.761  0.00  0.00     0.088 H 
ATOM     15  CAU DSK d          -0.775 -16.076 -20.460  0.00  0.00     0.030 C 
ATOM     16  H24 DSK d          -0.637 -15.465 -18.344  0.00  0.00     0.088 H 
ATOM     17  H25 DSK d          -1.314 -15.694 -21.340  0.00  0.00     0.062 H 
BRANCH  10  18
ATOM     18  OAE DSK d          -3.293 -15.470 -17.715  0.00  0.00    -0.392 OA
ATOM     19  H5  DSK d          -3.960 -16.056 -17.376  0.00  0.00     0.210 HD
ENDBRANCH  10  18
BRANCH  13  20
ATOM     20  OAI DSK d          -1.611 -13.991 -19.470  0.00  0.00    -0.392 OA
ATOM     21  H9  DSK d          -0.877 -13.608 -19.937  0.00  0.00     0.210 HD
ENDBRANCH  13  20
BRANCH  15  22
ATOM     22  CAK DSK d           0.734 -15.842 -20.743  0.00  0.00     0.030 C 
ATOM     23  H12 DSK d           1.087 -15.029 -20.091  0.00  0.00     0.075 H 
ATOM     24  H13 DSK d           1.280 -16.767 -20.502  0.00  0.00     0.075 H 
BRANCH  22  25
ATOM     25  OAB DSK d           1.022 -15.489 -22.099  0.00  0.00    -0.400 OA
ATOM     26  H2  DSK d           1.497 -16.199 -22.516  0.00  0.00     0.209 HD
ENDBRANCH  22  25
ENDBRANCH  15  22
ENDBRANCH   5   8
ENDBRANCH   1   5
BRANCH   1  27
ATOM     27  CAR DSK d          -2.172 -20.681 -20.993  0.00  0.00     0.088 C 
ATOM     28  H22 DSK d          -1.122 -20.366 -20.893  0.00  0.00     0.091 H 
BRANCH  27  29
ATOM     29  OAG DSK d          -2.737 -21.076 -19.731  0.00  0.00    -0.390 OA
ATOM     30  H7  DSK d          -2.622 -20.375 -19.100  0.00  0.00     0.210 HD
ENDBRANCH  27  29
BRANCH  27  31
ATOM     31  CAS DSK d          -2.293 -21.910 -21.924  0.00  0.00     0.090 C 
ATOM     32  H23 DSK d          -2.353 -21.549 -22.962  0.00  0.00     0.091 H 
BRANCH  31  33
ATOM     33  OAH DSK d          -3.480 -22.642 -21.623  0.00  0.00    -0.390 OA
ATOM     34  H8  DSK d          -4.074 -22.089 -21.128  0.00  0.00     0.210 HD
ENDBRANCH  31  33
BRANCH  31  35
ATOM     35  CAQ DSK d          -1.093 -22.846 -21.806  0.00  0.00     0.089 C 
ATOM     36  H21 DSK d          -1.406 -23.798 -21.352  0.00  0.00     0.091 H 
BRANCH  35  37
ATOM     37  OAF DSK d          -0.111 -22.204 -20.985  0.00  0.00    -0.390 OA
ATOM     38  H6  DSK d          -0.241 -22.460 -20.080  0.00  0.00     0.210 HD
ENDBRANCH  35  37
BRANCH  35  39
ATOM     39  CAN DSK d          -0.466 -23.114 -23.193  0.00  0.00     0.083 C 
ATOM     40  H18 DSK d          -0.574 -22.220 -23.823  0.00  0.00     0.090 H 
BRANCH  39  41
ATOM     41  OAC DSK d           0.927 -23.414 -23.024  0.00  0.00    -0.391 OA
ATOM     42  H3  DSK d           1.069 -23.778 -22.158  0.00  0.00     0.210 HD
ENDBRANCH  39  41
BRANCH  39  43
ATOM     43  CAJ DSK d          -1.181 -24.294 -23.864  0.00  0.00     0.043 C 
ATOM     44  H10 DSK d          -0.441 -25.039 -24.193  0.00  0.00     0.078 H 
ATOM     45  H11 DSK d          -1.880 -24.759 -23.153  0.00  0.00     0.078 H 
BRANCH  43  46
ATOM     46  OAA DSK d          -1.895 -23.799 -24.985  0.00  0.00    -0.398 OA
ATOM     47  H1  DSK d          -2.299 -24.524 -25.447  0.00  0.00     0.209 HD
ENDBRANCH  43  46
ENDBRANCH  39  43
ENDBRANCH  35  39
ENDBRANCH  31  35
ENDBRANCH  27  31
ENDBRANCH   1  27
TORSDOF 17
ENDMDL
MODEL 10
REMARK VINA RESULT:      -4.9      1.581      3.471
REMARK  17 active torsions:
REMARK  status: ('A' for Active; 'I' for Inactive)
REMARK    1  A    between atoms: CAJ_10  and  OAA_1 
REMARK    2  A    between atoms: CAK_11  and  OAB_2 
REMARK    3  A    between atoms: CAN_14  and  OAC_3 
REMARK    4  A    between atoms: CAO_15  and  OAD_4 
REMARK    5  A    between atoms: CAP_16  and  OAE_5 
REMARK    6  A    between atoms: CAQ_17  and  OAF_6 
REMARK    7  A    between atoms: CAR_18  and  OAG_7 
REMARK    8  A    between atoms: CAS_19  and  OAH_8 
REMARK    9  A    between atoms: CAT_20  and  OAI_9 
REMARK   10  A    between atoms: CAN_14  and  CAJ_10 
REMARK   11  A    between atoms: CAU_21  and  CAK_11 
REMARK   12  A    between atoms: CAL_12  and  CAO_15 
REMARK   13  A    between atoms: SAV_22  and  CAL_12 
REMARK   14  A    between atoms: CAQ_17  and  CAN_14 
REMARK   15  A    between atoms: CAO_15  and  CAR_18 
REMARK   16  A    between atoms: CAS_19  and  CAQ_17 
REMARK   17  A    between atoms: CAR_18  and  CAS_19 
ROOT
ATOM      1  CAO DSK d          -2.420 -20.022 -21.191  0.00  0.00     0.070 C 
ATOM      2  H19 DSK d          -1.385 -20.368 -21.056  0.00  0.00     0.088 H 
ENDROOT
BRANCH   1   3
ATOM      3  OAD DSK d          -3.189 -20.482 -20.088  0.00  0.00    -0.392 OA
ATOM      4  H4  DSK d          -2.606 -20.758 -19.391  0.00  0.00     0.210 HD
ENDBRANCH   1   3
BRANCH   1   5
ATOM      5  CAL DSK d          -2.389 -18.463 -21.245  0.00  0.00    -0.005 C 
ATOM      6  H14 DSK d          -3.402 -18.078 -21.061  0.00  0.00     0.051 H 
ATOM      7  H15 DSK d          -2.052 -18.147 -22.243  0.00  0.00     0.051 H 
BRANCH   5   8
ATOM      8  SAV DSK d          -1.265 -17.778 -20.000  0.00  0.00    -0.206 SA
ATOM      9  CAM DSK d          -2.158 -17.356 -18.449  0.00  0.00    -0.005 C 
ATOM     10  CAP DSK d          -2.720 -15.963 -18.801  0.00  0.00     0.069 C 
ATOM     11  H16 DSK d          -2.963 -18.074 -18.238  0.00  0.00     0.051 H 
ATOM     12  H17 DSK d          -1.474 -17.310 -17.589  0.00  0.00     0.051 H 
ATOM     13  CAT DSK d          -1.485 -15.209 -19.365  0.00  0.00     0.074 C 
ATOM     14  H20 DSK d          -3.517 -16.046 -19.555  0.00  0.00     0.088 H 
ATOM     15  CAU DSK d          -1.015 -16.056 -20.582  0.00  0.00     0.030 C 
ATOM     16  H24 DSK d          -0.685 -15.107 -18.617  0.00  0.00     0.088 H 
ATOM     17  H25 DSK d          -1.697 -15.868 -21.425  0.00  0.00     0.062 H 
BRANCH  10  18
ATOM     18  OAE DSK d          -3.227 -15.250 -17.632  0.00  0.00    -0.392 OA
ATOM     19  H5  DSK d          -3.926 -14.665 -17.898  0.00  0.00     0.210 HD
ENDBRANCH  10  18
BRANCH  13  20
ATOM     20  OAI DSK d          -1.946 -13.923 -19.800  0.00  0.00    -0.392 OA
ATOM     21  H9  DSK d          -2.809 -14.013 -20.189  0.00  0.00     0.210 HD
ENDBRANCH  13  20
BRANCH  15  22
ATOM     22  CAK DSK d           0.413 -15.736 -21.102  0.00  0.00     0.030 C 
ATOM     23  H12 DSK d           1.023 -16.648 -21.025  0.00  0.00     0.075 H 
ATOM     24  H13 DSK d           0.338 -15.432 -22.157  0.00  0.00     0.075 H 
BRANCH  22  25
ATOM     25  OAB DSK d           1.072 -14.691 -20.379  0.00  0.00    -0.400 OA
ATOM     26  H2  DSK d           0.476 -14.332 -19.731  0.00  0.00     0.209 HD
ENDBRANCH  22  25
ENDBRANCH  15  22
ENDBRANCH   5   8
ENDBRANCH   1   5
BRANCH   1  27
ATOM     27  CAR DSK d          -2.960 -20.653 -22.472  0.00  0.00     0.088 C 
ATOM     28  H22 DSK d          -4.061 -20.653 -22.478  0.00  0.00     0.091 H 
BRANCH  27  29
ATOM     29  OAG DSK d          -2.416 -19.873 -23.551  0.00  0.00    -0.390 OA
ATOM     30  H7  DSK d          -1.959 -20.445 -24.154  0.00  0.00     0.210 HD
ENDBRANCH  27  29
BRANCH  27  31
ATOM     31  CAS DSK d          -2.407 -22.086 -22.654  0.00  0.00     0.090 C 
ATOM     32  H23 DSK d          -1.941 -22.396 -21.707  0.00  0.00     0.091 H 
BRANCH  31  33
ATOM     33  OAH DSK d          -1.418 -22.106 -23.682  0.00  0.00    -0.390 OA
ATOM     34  H8  DSK d          -1.841 -22.228 -24.524  0.00  0.00     0.210 HD
ENDBRANCH  31  33
BRANCH  31  35
ATOM     35  CAQ DSK d          -3.503 -23.090 -23.004  0.00  0.00     0.089 C 
ATOM     36  H21 DSK d          -3.190 -23.697 -23.865  0.00  0.00     0.091 H 
BRANCH  35  37
ATOM     37  OAF DSK d          -4.690 -22.354 -23.321  0.00  0.00    -0.390 OA
ATOM     38  H6  DSK d          -5.329 -22.470 -22.628  0.00  0.00     0.210 HD
ENDBRANCH  35  37
BRANCH  35  39
ATOM     39  CAN DSK d          -3.810 -24.011 -21.803  0.00  0.00     0.083 C 
ATOM     40  H18 DSK d          -2.881 -24.492 -21.464  0.00  0.00     0.090 H 
BRANCH  39  41
ATOM     41  OAC DSK d          -4.354 -23.220 -20.736  0.00  0.00    -0.391 OA
ATOM     42  H3  DSK d          -4.222 -22.299 -20.927  0.00  0.00     0.210 HD
ENDBRANCH  39  41
BRANCH  39  43
ATOM     43  CAJ DSK d          -4.815 -25.091 -22.222  0.00  0.00     0.043 C 
ATOM     44  H10 DSK d          -4.958 -25.806 -21.398  0.00  0.00     0.078 H 
ATOM     45  H11 DSK d          -5.779 -24.625 -22.476  0.00  0.00     0.078 H 
BRANCH  43  46
ATOM     46  OAA DSK d          -4.294 -25.763 -23.357  0.00  0.00    -0.398 OA
ATOM     47  H1  DSK d          -4.614 -26.658 -23.368  0.00  0.00     0.209 HD
ENDBRANCH  43  46
ENDBRANCH  39  43
ENDBRANCH  35  39
ENDBRANCH  31  35
ENDBRANCH  27  31
ENDBRANCH   1  27
TORSDOF 17
ENDMDL
