MODEL 1
REMARK VINA RESULT:      -5.2      0.000      0.000
REMARK  6 active torsions:
REMARK  status: ('A' for Active; 'I' for Inactive)
REMARK    1  A    between atoms: N1_1  and  C1'_9 
REMARK    2  A    between atoms: C2'_10  and  O2'_11 
REMARK    3  A    between atoms: C3'_12  and  O3'_14 
REMARK    4  A    between atoms: C4'_13  and  C5'_16 
REMARK    5  A    between atoms: C5'_16  and  O5'_17 
REMARK    6  A    between atoms: O5'_17  and  P_18 
ROOT
ATOM      1  C1' U5P d          36.509  -1.002  12.166  0.00  0.00     0.141 C 
ATOM      2  C2' U5P d          35.892  -1.859  11.088  0.00  0.00     0.105 C 
ATOM      3  C3' U5P d          35.963  -3.249  11.676  0.00  0.00     0.091 C 
ATOM      4  C4' U5P d          35.838  -2.997  13.169  0.00  0.00     0.089 C 
ATOM      5  O4' U5P d          36.576  -1.783  13.361  0.00  0.00    -0.353 OA
ATOM      6  H4  U5P d          35.865  -0.127  12.338  0.00  0.00     0.123 H 
ATOM      7  H5  U5P d          36.412  -1.790  10.121  0.00  0.00     0.093 H 
ATOM      8  H7  U5P d          36.941  -3.698  11.453  0.00  0.00     0.091 H 
ATOM      9  H8  U5P d          34.782  -2.852  13.444  0.00  0.00     0.090 H 
ENDROOT
BRANCH   1  10
ATOM     10  N1  U5P d          37.835  -0.532  11.802  0.00  0.00    -0.280 N 
ATOM     11  C2  U5P d          37.931   0.743  11.243  0.00  0.00     0.331 A 
ATOM     12  N3  U5P d          39.131   1.217  10.920  0.00  0.00    -0.275 N 
ATOM     13  O2  U5P d          36.904   1.412  11.039  0.00  0.00    -0.246 OA
ATOM     14  C4  U5P d          40.261   0.499  11.101  0.00  0.00     0.250 A 
ATOM     15  H1  U5P d          39.199   2.135  10.530  0.00  0.00     0.173 HD
ATOM     16  C5  U5P d          40.196  -0.776  11.663  0.00  0.00    -0.002 A 
ATOM     17  O4  U5P d          41.359   0.997  10.767  0.00  0.00    -0.268 OA
ATOM     18  C6  U5P d          38.943  -1.269  12.013  0.00  0.00    -0.008 A 
ATOM     19  H2  U5P d          41.097  -1.366  11.824  0.00  0.00     0.094 H 
ATOM     20  H3  U5P d          38.856  -2.258  12.459  0.00  0.00     0.112 H 
ENDBRANCH   1  10
BRANCH   2  21
ATOM     21  O2' U5P d          34.534  -1.410  10.997  0.00  0.00    -0.388 OA
ATOM     22  H6  U5P d          34.520  -0.465  10.895  0.00  0.00     0.210 HD
ENDBRANCH   2  21
BRANCH   3  23
ATOM     23  O3' U5P d          34.953  -4.128  11.176  0.00  0.00    -0.390 OA
ATOM     24  H9  U5P d          34.739  -3.887  10.283  0.00  0.00     0.210 HD
ENDBRANCH   3  23
BRANCH   4  25
ATOM     25  C5' U5P d          36.405  -4.137  14.006  0.00  0.00     0.059 C 
ATOM     26  H10 U5P d          36.734  -4.959  13.353  0.00  0.00     0.079 H 
ATOM     27  H11 U5P d          35.644  -4.509  14.708  0.00  0.00     0.079 H 
BRANCH  25  28
ATOM     28  O5' U5P d          37.512  -3.604  14.719  0.00  0.00    -0.280 OA
BRANCH  28  29
ATOM     29  P   U5P d          38.977  -4.269  14.670  0.00  0.00     0.422 P 
ATOM     30  O1P U5P d          38.981  -5.296  15.784  0.00  0.00    -0.617 OA
ATOM     31  O2P U5P d          39.930  -3.111  14.880  0.00  0.00    -0.617 OA
ATOM     32  O3P U5P d          39.015  -4.829  13.267  0.00  0.00    -0.617 OA
ENDBRANCH  28  29
ENDBRANCH  25  28
ENDBRANCH   4  25
TORSDOF 6
ENDMDL
MODEL 2
REMARK VINA RESULT:      -5.1      1.833      4.014
REMARK  6 active torsions:
REMARK  status: ('A' for Active; 'I' for Inactive)
REMARK    1  A    between atoms: N1_1  and  C1'_9 
REMARK    2  A    between atoms: C2'_10  and  O2'_11 
REMARK    3  A    between atoms: C3'_12  and  O3'_14 
REMARK    4  A    between atoms: C4'_13  and  C5'_16 
REMARK    5  A    between atoms: C5'_16  and  O5'_17 
REMARK    6  A    between atoms: O5'_17  and  P_18 
ROOT
ATOM      1  C1' U5P d          39.472  -1.729  12.820  0.00  0.00     0.141 C 
ATOM      2  C2' U5P d          39.311  -1.720  14.320  0.00  0.00     0.105 C 
ATOM      3  C3' U5P d          38.314  -2.829  14.563  0.00  0.00     0.091 C 
ATOM      4  C4' U5P d          38.603  -3.804  13.434  0.00  0.00     0.089 C 
ATOM      5  O4' U5P d          38.906  -2.946  12.327  0.00  0.00    -0.353 OA
ATOM      6  H4  U5P d          40.544  -1.701  12.576  0.00  0.00     0.123 H 
ATOM      7  H5  U5P d          38.965  -0.755  14.718  0.00  0.00     0.093 H 
ATOM      8  H7  U5P d          37.291  -2.436  14.466  0.00  0.00     0.091 H 
ATOM      9  H8  U5P d          39.474  -4.429  13.685  0.00  0.00     0.090 H 
ENDROOT
BRANCH   1  10
ATOM     10  N1  U5P d          38.827  -0.589  12.191  0.00  0.00    -0.280 N 
ATOM     11  C2  U5P d          39.633   0.267  11.439  0.00  0.00     0.331 A 
ATOM     12  N3  U5P d          39.074   1.308  10.829  0.00  0.00    -0.275 N 
ATOM     13  O2  U5P d          40.855   0.061  11.359  0.00  0.00    -0.246 OA
ATOM     14  C4  U5P d          37.753   1.575  10.925  0.00  0.00     0.250 A 
ATOM     15  H1  U5P d          39.651   1.914  10.280  0.00  0.00     0.173 HD
ATOM     16  C5  U5P d          36.922   0.733  11.665  0.00  0.00    -0.002 A 
ATOM     17  O4  U5P d          37.290   2.577  10.336  0.00  0.00    -0.268 OA
ATOM     18  C6  U5P d          37.504  -0.363  12.295  0.00  0.00    -0.008 A 
ATOM     19  H2  U5P d          35.854   0.928  11.748  0.00  0.00     0.094 H 
ATOM     20  H3  U5P d          36.883  -1.044  12.876  0.00  0.00     0.112 H 
ENDBRANCH   1  10
BRANCH   2  21
ATOM     21  O2' U5P d          40.604  -2.074  14.828  0.00  0.00    -0.388 OA
ATOM     22  H6  U5P d          41.274  -1.756  14.235  0.00  0.00     0.210 HD
ENDBRANCH   2  21
BRANCH   3  23
ATOM     23  O3' U5P d          38.433  -3.426  15.856  0.00  0.00    -0.390 OA
ATOM     24  H9  U5P d          38.395  -2.748  16.520  0.00  0.00     0.210 HD
ENDBRANCH   3  23
BRANCH   4  25
ATOM     25  C5' U5P d          37.421  -4.717  13.130  0.00  0.00     0.059 C 
ATOM     26  H10 U5P d          36.737  -4.751  13.991  0.00  0.00     0.079 H 
ATOM     27  H11 U5P d          37.775  -5.733  12.902  0.00  0.00     0.079 H 
BRANCH  25  28
ATOM     28  O5' U5P d          36.761  -4.162  12.001  0.00  0.00    -0.280 OA
BRANCH  28  29
ATOM     29  P   U5P d          35.243  -3.631  12.059  0.00  0.00     0.422 P 
ATOM     30  O1P U5P d          35.129  -2.907  13.386  0.00  0.00    -0.617 OA
ATOM     31  O2P U5P d          34.396  -4.882  11.951  0.00  0.00    -0.617 OA
ATOM     32  O3P U5P d          35.176  -2.754  10.831  0.00  0.00    -0.617 OA
ENDBRANCH  28  29
ENDBRANCH  25  28
ENDBRANCH   4  25
TORSDOF 6
ENDMDL
MODEL 3
REMARK VINA RESULT:      -5.0      2.180      4.820
REMARK  6 active torsions:
REMARK  status: ('A' for Active; 'I' for Inactive)
REMARK    1  A    between atoms: N1_1  and  C1'_9 
REMARK    2  A    between atoms: C2'_10  and  O2'_11 
REMARK    3  A    between atoms: C3'_12  and  O3'_14 
REMARK    4  A    between atoms: C4'_13  and  C5'_16 
REMARK    5  A    between atoms: C5'_16  and  O5'_17 
REMARK    6  A    between atoms: O5'_17  and  P_18 
ROOT
ATOM      1  C1' U5P d          37.058  -0.237  12.017  0.00  0.00     0.141 C 
ATOM      2  C2' U5P d          36.824   0.786  13.102  0.00  0.00     0.105 C 
ATOM      3  C3' U5P d          38.186   0.919  13.744  0.00  0.00     0.091 C 
ATOM      4  C4' U5P d          39.137   0.652  12.589  0.00  0.00     0.089 C 
ATOM      5  O4' U5P d          38.471  -0.376  11.845  0.00  0.00    -0.353 OA
ATOM      6  H4  U5P d          36.611   0.129  11.081  0.00  0.00     0.123 H 
ATOM      7  H5  U5P d          36.051   0.488  13.826  0.00  0.00     0.093 H 
ATOM      8  H7  U5P d          38.310   0.148  14.517  0.00  0.00     0.091 H 
ATOM      9  H8  U5P d          39.253   1.557  11.975  0.00  0.00     0.090 H 
ENDROOT
BRANCH   1  10
ATOM     10  N1  U5P d          36.465  -1.524  12.338  0.00  0.00    -0.280 N 
ATOM     11  C2  U5P d          35.409  -1.959  11.536  0.00  0.00     0.331 A 
ATOM     12  N3  U5P d          34.857  -3.143  11.784  0.00  0.00    -0.275 N 
ATOM     13  O2  U5P d          34.986  -1.238  10.617  0.00  0.00    -0.246 OA
ATOM     14  C4  U5P d          35.273  -3.934  12.797  0.00  0.00     0.250 A 
ATOM     15  H1  U5P d          34.107  -3.459  11.202  0.00  0.00     0.173 HD
ATOM     16  C5  U5P d          36.331  -3.527  13.611  0.00  0.00    -0.002 A 
ATOM     17  O4  U5P d          34.706  -5.033  12.985  0.00  0.00    -0.268 OA
ATOM     18  C6  U5P d          36.918  -2.294  13.346  0.00  0.00    -0.008 A 
ATOM     19  H2  U5P d          36.686  -4.155  14.427  0.00  0.00     0.094 H 
ATOM     20  H3  U5P d          37.750  -1.948  13.958  0.00  0.00     0.112 H 
ENDBRANCH   1  10
BRANCH   2  21
ATOM     21  O2' U5P d          36.468   1.985  12.404  0.00  0.00    -0.388 OA
ATOM     22  H6  U5P d          35.718   2.387  12.828  0.00  0.00     0.210 HD
ENDBRANCH   2  21
BRANCH   3  23
ATOM     23  O3' U5P d          38.402   2.192  14.356  0.00  0.00    -0.390 OA
ATOM     24  H9  U5P d          37.786   2.307  15.070  0.00  0.00     0.210 HD
ENDBRANCH   3  23
BRANCH   4  25
ATOM     25  C5' U5P d          40.515   0.201  13.057  0.00  0.00     0.059 C 
ATOM     26  H10 U5P d          41.222   1.043  13.021  0.00  0.00     0.079 H 
ATOM     27  H11 U5P d          40.885  -0.616  12.420  0.00  0.00     0.079 H 
BRANCH  25  28
ATOM     28  O5' U5P d          40.361  -0.251  14.395  0.00  0.00    -0.280 OA
BRANCH  28  29
ATOM     29  P   U5P d          40.588  -1.785  14.823  0.00  0.00     0.422 P 
ATOM     30  O1P U5P d          40.491  -2.573  13.532  0.00  0.00    -0.617 OA
ATOM     31  O2P U5P d          39.483  -2.073  15.819  0.00  0.00    -0.617 OA
ATOM     32  O3P U5P d          41.961  -1.731  15.451  0.00  0.00    -0.617 OA
ENDBRANCH  28  29
ENDBRANCH  25  28
ENDBRANCH   4  25
TORSDOF 6
ENDMDL
MODEL 4
REMARK VINA RESULT:      -4.9      2.478      4.968
REMARK  6 active torsions:
REMARK  status: ('A' for Active; 'I' for Inactive)
REMARK    1  A    between atoms: N1_1  and  C1'_9 
REMARK    2  A    between atoms: C2'_10  and  O2'_11 
REMARK    3  A    between atoms: C3'_12  and  O3'_14 
REMARK    4  A    between atoms: C4'_13  and  C5'_16 
REMARK    5  A    between atoms: C5'_16  and  O5'_17 
REMARK    6  A    between atoms: O5'_17  and  P_18 
ROOT
ATOM      1  C1' U5P d          38.668   0.811  13.072  0.00  0.00     0.141 C 
ATOM      2  C2' U5P d          39.037   0.432  14.485  0.00  0.00     0.105 C 
ATOM      3  C3' U5P d          40.370  -0.257  14.316  0.00  0.00     0.091 C 
ATOM      4  C4' U5P d          40.971   0.448  13.111  0.00  0.00     0.089 C 
ATOM      5  O4' U5P d          39.838   0.672  12.262  0.00  0.00    -0.353 OA
ATOM      6  H4  U5P d          38.339   1.861  13.058  0.00  0.00     0.123 H 
ATOM      7  H5  U5P d          38.294  -0.215  14.974  0.00  0.00     0.093 H 
ATOM      8  H7  U5P d          40.213  -1.321  14.087  0.00  0.00     0.091 H 
ATOM      9  H8  U5P d          41.419   1.406  13.414  0.00  0.00     0.090 H 
ENDROOT
BRANCH   1  10
ATOM     10  N1  U5P d          37.594  -0.013  12.544  0.00  0.00    -0.280 N 
ATOM     11  C2  U5P d          37.119   0.295  11.269  0.00  0.00     0.331 A 
ATOM     12  N3  U5P d          36.152  -0.454  10.743  0.00  0.00    -0.275 N 
ATOM     13  O2  U5P d          37.584   1.264  10.648  0.00  0.00    -0.246 OA
ATOM     14  C4  U5P d          35.604  -1.494  11.408  0.00  0.00     0.250 A 
ATOM     15  H1  U5P d          35.821  -0.239   9.824  0.00  0.00     0.173 HD
ATOM     16  C5  U5P d          36.064  -1.828  12.683  0.00  0.00    -0.002 A 
ATOM     17  O4  U5P d          34.691  -2.152  10.863  0.00  0.00    -0.268 OA
ATOM     18  C6  U5P d          37.083  -1.054  13.230  0.00  0.00    -0.008 A 
ATOM     19  H2  U5P d          35.640  -2.668  13.230  0.00  0.00     0.094 H 
ATOM     20  H3  U5P d          37.469  -1.291  14.220  0.00  0.00     0.112 H 
ENDBRANCH   1  10
BRANCH   2  21
ATOM     21  O2' U5P d          39.189   1.682  15.170  0.00  0.00    -0.388 OA
ATOM     22  H6  U5P d          38.346   1.964  15.504  0.00  0.00     0.210 HD
ENDBRANCH   2  21
BRANCH   3  23
ATOM     23  O3' U5P d          41.202  -0.177  15.476  0.00  0.00    -0.390 OA
ATOM     24  H9  U5P d          40.662  -0.238  16.255  0.00  0.00     0.210 HD
ENDBRANCH   3  23
BRANCH   4  25
ATOM     25  C5' U5P d          42.037  -0.388  12.414  0.00  0.00     0.059 C 
ATOM     26  H10 U5P d          43.027  -0.178  12.846  0.00  0.00     0.079 H 
ATOM     27  H11 U5P d          42.053  -0.163  11.337  0.00  0.00     0.079 H 
BRANCH  25  28
ATOM     28  O5' U5P d          41.688  -1.749  12.626  0.00  0.00    -0.280 OA
BRANCH  28  29
ATOM     29  P   U5P d          41.009  -2.658  11.485  0.00  0.00     0.422 P 
ATOM     30  O1P U5P d          39.539  -2.714  11.849  0.00  0.00    -0.617 OA
ATOM     31  O2P U5P d          41.730  -3.987  11.576  0.00  0.00    -0.617 OA
ATOM     32  O3P U5P d          41.341  -1.880  10.233  0.00  0.00    -0.617 OA
ENDBRANCH  28  29
ENDBRANCH  25  28
ENDBRANCH   4  25
TORSDOF 6
ENDMDL
MODEL 5
REMARK VINA RESULT:      -4.8      2.590      5.336
REMARK  6 active torsions:
REMARK  status: ('A' for Active; 'I' for Inactive)
REMARK    1  A    between atoms: N1_1  and  C1'_9 
REMARK    2  A    between atoms: C2'_10  and  O2'_11 
REMARK    3  A    between atoms: C3'_12  and  O3'_14 
REMARK    4  A    between atoms: C4'_13  and  C5'_16 
REMARK    5  A    between atoms: C5'_16  and  O5'_17 
REMARK    6  A    between atoms: O5'_17  and  P_18 
ROOT
ATOM      1  C1' U5P d          36.249   0.112  12.238  0.00  0.00     0.141 C 
ATOM      2  C2' U5P d          36.637   0.855  13.493  0.00  0.00     0.105 C 
ATOM      3  C3' U5P d          38.011   1.390  13.162  0.00  0.00     0.091 C 
ATOM      4  C4' U5P d          37.940   1.610  11.660  0.00  0.00     0.089 C 
ATOM      5  O4' U5P d          37.152   0.504  11.201  0.00  0.00    -0.353 OA
ATOM      6  H4  U5P d          35.224   0.399  11.957  0.00  0.00     0.123 H 
ATOM      7  H5  U5P d          36.643   0.223  14.393  0.00  0.00     0.093 H 
ATOM      8  H7  U5P d          38.771   0.630  13.394  0.00  0.00     0.091 H 
ATOM      9  H8  U5P d          37.433   2.561  11.438  0.00  0.00     0.090 H 
ENDROOT
BRANCH   1  10
ATOM     10  N1  U5P d          36.289  -1.329  12.418  0.00  0.00    -0.280 N 
ATOM     11  C2  U5P d          35.366  -2.089  11.699  0.00  0.00     0.331 A 
ATOM     12  N3  U5P d          35.389  -3.414  11.819  0.00  0.00    -0.275 N 
ATOM     13  O2  U5P d          34.529  -1.529  10.972  0.00  0.00    -0.246 OA
ATOM     14  C4  U5P d          36.267  -4.048  12.626  0.00  0.00     0.250 A 
ATOM     15  H1  U5P d          34.735  -3.958  11.294  0.00  0.00     0.173 HD
ATOM     16  C5  U5P d          37.205  -3.314  13.353  0.00  0.00    -0.002 A 
ATOM     17  O4  U5P d          36.231  -5.296  12.704  0.00  0.00    -0.268 OA
ATOM     18  C6  U5P d          37.190  -1.929  13.219  0.00  0.00    -0.008 A 
ATOM     19  H2  U5P d          37.926  -3.809  14.002  0.00  0.00     0.094 H 
ATOM     20  H3  U5P d          37.913  -1.325  13.767  0.00  0.00     0.112 H 
ENDBRANCH   1  10
BRANCH   2  21
ATOM     21  O2' U5P d          35.684   1.921  13.597  0.00  0.00    -0.388 OA
ATOM     22  H6  U5P d          34.937   1.628  14.105  0.00  0.00     0.210 HD
ENDBRANCH   2  21
BRANCH   3  23
ATOM     23  O3' U5P d          38.345   2.578  13.881  0.00  0.00    -0.390 OA
ATOM     24  H9  U5P d          38.009   3.334  13.414  0.00  0.00     0.210 HD
ENDBRANCH   3  23
BRANCH   4  25
ATOM     25  C5' U5P d          39.316   1.628  11.005  0.00  0.00     0.059 C 
ATOM     26  H10 U5P d          40.042   2.131  11.661  0.00  0.00     0.079 H 
ATOM     27  H11 U5P d          39.270   2.153  10.039  0.00  0.00     0.079 H 
BRANCH  25  28
ATOM     28  O5' U5P d          39.689   0.271  10.809  0.00  0.00    -0.280 OA
BRANCH  28  29
ATOM     29  P   U5P d          41.186  -0.262  11.063  0.00  0.00     0.422 P 
ATOM     30  O1P U5P d          41.301  -1.524  10.232  0.00  0.00    -0.617 OA
ATOM     31  O2P U5P d          41.263  -0.485  12.559  0.00  0.00    -0.617 OA
ATOM     32  O3P U5P d          42.016   0.908  10.588  0.00  0.00    -0.617 OA
ENDBRANCH  28  29
ENDBRANCH  25  28
ENDBRANCH   4  25
TORSDOF 6
ENDMDL
MODEL 6
REMARK VINA RESULT:      -4.7      2.122      4.134
REMARK  6 active torsions:
REMARK  status: ('A' for Active; 'I' for Inactive)
REMARK    1  A    between atoms: N1_1  and  C1'_9 
REMARK    2  A    between atoms: C2'_10  and  O2'_11 
REMARK    3  A    between atoms: C3'_12  and  O3'_14 
REMARK    4  A    between atoms: C4'_13  and  C5'_16 
REMARK    5  A    between atoms: C5'_16  and  O5'_17 
REMARK    6  A    between atoms: O5'_17  and  P_18 
ROOT
ATOM      1  C1' U5P d          40.034  -2.904  12.975  0.00  0.00     0.141 C 
ATOM      2  C2' U5P d          39.746  -2.897  14.457  0.00  0.00     0.105 C 
ATOM      3  C3' U5P d          38.316  -3.378  14.528  0.00  0.00     0.091 C 
ATOM      4  C4' U5P d          38.205  -4.306  13.330  0.00  0.00     0.089 C 
ATOM      5  O4' U5P d          38.999  -3.652  12.332  0.00  0.00    -0.353 OA
ATOM      6  H4  U5P d          41.002  -3.397  12.802  0.00  0.00     0.123 H 
ATOM      7  H5  U5P d          39.877  -1.910  14.925  0.00  0.00     0.093 H 
ATOM      8  H7  U5P d          37.631  -2.526  14.406  0.00  0.00     0.091 H 
ATOM      9  H8  U5P d          38.628  -5.292  13.573  0.00  0.00     0.090 H 
ENDROOT
BRANCH   1  10
ATOM     10  N1  U5P d          40.097  -1.562  12.422  0.00  0.00    -0.280 N 
ATOM     11  C2  U5P d          40.619  -1.424  11.135  0.00  0.00     0.331 A 
ATOM     12  N3  U5P d          40.670  -0.214  10.586  0.00  0.00    -0.275 N 
ATOM     13  O2  U5P d          41.042  -2.420  10.525  0.00  0.00    -0.246 OA
ATOM     14  C4  U5P d          40.247   0.891  11.238  0.00  0.00     0.250 A 
ATOM     15  H1  U5P d          41.034  -0.119   9.660  0.00  0.00     0.173 HD
ATOM     16  C5  U5P d          39.714   0.783  12.524  0.00  0.00    -0.002 A 
ATOM     17  O4  U5P d          40.331   2.003  10.671  0.00  0.00    -0.268 OA
ATOM     18  C6  U5P d          39.650  -0.484  13.095  0.00  0.00    -0.008 A 
ATOM     19  H2  U5P d          39.361   1.661  13.061  0.00  0.00     0.094 H 
ATOM     20  H3  U5P d          39.234  -0.605  14.095  0.00  0.00     0.112 H 
ENDBRANCH   1  10
BRANCH   2  21
ATOM     21  O2' U5P d          40.642  -3.872  15.007  0.00  0.00    -0.388 OA
ATOM     22  H6  U5P d          40.145  -4.623  15.309  0.00  0.00     0.210 HD
ENDBRANCH   2  21
BRANCH   3  23
ATOM     23  O3' U5P d          37.996  -4.024  15.762  0.00  0.00    -0.390 OA
ATOM     24  H9  U5P d          37.232  -3.610  16.146  0.00  0.00     0.210 HD
ENDBRANCH   3  23
BRANCH   4  25
ATOM     25  C5' U5P d          36.766  -4.496  12.867  0.00  0.00     0.059 C 
ATOM     26  H10 U5P d          36.069  -4.238  13.678  0.00  0.00     0.079 H 
ATOM     27  H11 U5P d          36.600  -5.539  12.559  0.00  0.00     0.079 H 
BRANCH  25  28
ATOM     28  O5' U5P d          36.577  -3.622  11.762  0.00  0.00    -0.280 OA
BRANCH  28  29
ATOM     29  P   U5P d          35.730  -2.258  11.870  0.00  0.00     0.422 P 
ATOM     30  O1P U5P d          34.630  -2.396  10.836  0.00  0.00    -0.617 OA
ATOM     31  O2P U5P d          36.733  -1.161  11.578  0.00  0.00    -0.617 OA
ATOM     32  O3P U5P d          35.278  -2.289  13.311  0.00  0.00    -0.617 OA
ENDBRANCH  28  29
ENDBRANCH  25  28
ENDBRANCH   4  25
TORSDOF 6
ENDMDL
MODEL 7
REMARK VINA RESULT:      -4.6      2.309      4.178
REMARK  6 active torsions:
REMARK  status: ('A' for Active; 'I' for Inactive)
REMARK    1  A    between atoms: N1_1  and  C1'_9 
REMARK    2  A    between atoms: C2'_10  and  O2'_11 
REMARK    3  A    between atoms: C3'_12  and  O3'_14 
REMARK    4  A    between atoms: C4'_13  and  C5'_16 
REMARK    5  A    between atoms: C5'_16  and  O5'_17 
REMARK    6  A    between atoms: O5'_17  and  P_18 
ROOT
ATOM      1  C1' U5P d          39.086  -1.304  12.150  0.00  0.00     0.141 C 
ATOM      2  C2' U5P d          40.125  -1.684  13.177  0.00  0.00     0.105 C 
ATOM      3  C3' U5P d          39.647  -3.031  13.664  0.00  0.00     0.091 C 
ATOM      4  C4' U5P d          38.960  -3.614  12.440  0.00  0.00     0.089 C 
ATOM      5  O4' U5P d          38.325  -2.475  11.844  0.00  0.00    -0.353 OA
ATOM      6  H4  U5P d          39.595  -0.952  11.240  0.00  0.00     0.123 H 
ATOM      7  H5  U5P d          40.219  -0.955  13.996  0.00  0.00     0.093 H 
ATOM      8  H7  U5P d          38.916  -2.896  14.474  0.00  0.00     0.091 H 
ATOM      9  H8  U5P d          39.705  -4.042  11.753  0.00  0.00     0.090 H 
ENDROOT
BRANCH   1  10
ATOM     10  N1  U5P d          38.207  -0.247  12.622  0.00  0.00    -0.280 N 
ATOM     11  C2  U5P d          36.923  -0.192  12.079  0.00  0.00     0.331 A 
ATOM     12  N3  U5P d          36.083   0.747  12.504  0.00  0.00    -0.275 N 
ATOM     13  O2  U5P d          36.584  -1.002  11.200  0.00  0.00    -0.246 OA
ATOM     14  C4  U5P d          36.435   1.660  13.435  0.00  0.00     0.250 A 
ATOM     15  H1  U5P d          35.159   0.777  12.122  0.00  0.00     0.173 HD
ATOM     16  C5  U5P d          37.710   1.626  14.000  0.00  0.00    -0.002 A 
ATOM     17  O4  U5P d          35.602   2.525  13.785  0.00  0.00    -0.268 OA
ATOM     18  C6  U5P d          38.588   0.637  13.565  0.00  0.00    -0.008 A 
ATOM     19  H2  U5P d          38.009   2.349  14.757  0.00  0.00     0.094 H 
ATOM     20  H3  U5P d          39.588   0.578  13.989  0.00  0.00     0.112 H 
ENDBRANCH   1  10
BRANCH   2  21
ATOM     21  O2' U5P d          41.344  -1.810  12.433  0.00  0.00    -0.388 OA
ATOM     22  H6  U5P d          41.610  -2.722  12.416  0.00  0.00     0.210 HD
ENDBRANCH   2  21
BRANCH   3  23
ATOM     23  O3' U5P d          40.700  -3.862  14.157  0.00  0.00    -0.390 OA
ATOM     24  H9  U5P d          40.763  -3.764  15.099  0.00  0.00     0.210 HD
ENDBRANCH   3  23
BRANCH   4  25
ATOM     25  C5' U5P d          37.948  -4.697  12.796  0.00  0.00     0.059 C 
ATOM     26  H10 U5P d          37.873  -4.802  13.888  0.00  0.00     0.079 H 
ATOM     27  H11 U5P d          38.251  -5.659  12.355  0.00  0.00     0.079 H 
BRANCH  25  28
ATOM     28  O5' U5P d          36.702  -4.281  12.257  0.00  0.00    -0.280 OA
BRANCH  28  29
ATOM     29  P   U5P d          35.334  -4.323  13.102  0.00  0.00     0.422 P 
ATOM     30  O1P U5P d          35.600  -5.295  14.234  0.00  0.00    -0.617 OA
ATOM     31  O2P U5P d          34.285  -4.785  12.111  0.00  0.00    -0.617 OA
ATOM     32  O3P U5P d          35.177  -2.876  13.509  0.00  0.00    -0.617 OA
ENDBRANCH  28  29
ENDBRANCH  25  28
ENDBRANCH   4  25
TORSDOF 6
ENDMDL
MODEL 8
REMARK VINA RESULT:      -4.5      2.603      5.284
REMARK  6 active torsions:
REMARK  status: ('A' for Active; 'I' for Inactive)
REMARK    1  A    between atoms: N1_1  and  C1'_9 
REMARK    2  A    between atoms: C2'_10  and  O2'_11 
REMARK    3  A    between atoms: C3'_12  and  O3'_14 
REMARK    4  A    between atoms: C4'_13  and  C5'_16 
REMARK    5  A    between atoms: C5'_16  and  O5'_17 
REMARK    6  A    between atoms: O5'_17  and  P_18 
ROOT
ATOM      1  C1' U5P d          37.522  -1.271  12.141  0.00  0.00     0.141 C 
ATOM      2  C2' U5P d          36.582  -0.542  13.070  0.00  0.00     0.105 C 
ATOM      3  C3' U5P d          37.043   0.893  12.963  0.00  0.00     0.091 C 
ATOM      4  C4' U5P d          37.564   0.981  11.539  0.00  0.00     0.089 C 
ATOM      5  O4' U5P d          38.186  -0.294  11.335  0.00  0.00    -0.353 OA
ATOM      6  H4  U5P d          36.935  -1.940  11.493  0.00  0.00     0.123 H 
ATOM      7  H5  U5P d          36.614  -0.913  14.105  0.00  0.00     0.093 H 
ATOM      8  H7  U5P d          37.863   1.074  13.674  0.00  0.00     0.091 H 
ATOM      9  H8  U5P d          36.728   1.118  10.835  0.00  0.00     0.090 H 
ENDROOT
BRANCH   1  10
ATOM     10  N1  U5P d          38.498  -2.070  12.862  0.00  0.00    -0.280 N 
ATOM     11  C2  U5P d          38.244  -3.437  12.980  0.00  0.00     0.331 A 
ATOM     12  N3  U5P d          39.127  -4.204  13.613  0.00  0.00    -0.275 N 
ATOM     13  O2  U5P d          37.199  -3.919  12.512  0.00  0.00    -0.246 OA
ATOM     14  C4  U5P d          40.256  -3.703  14.159  0.00  0.00     0.250 A 
ATOM     15  H1  U5P d          38.949  -5.186  13.686  0.00  0.00     0.173 HD
ATOM     16  C5  U5P d          40.539  -2.341  14.051  0.00  0.00    -0.002 A 
ATOM     17  O4  U5P d          41.042  -4.476  14.751  0.00  0.00    -0.268 OA
ATOM     18  C6  U5P d          39.622  -1.538  13.380  0.00  0.00    -0.008 A 
ATOM     19  H2  U5P d          41.448  -1.920  14.479  0.00  0.00     0.094 H 
ATOM     20  H3  U5P d          39.814  -0.472  13.272  0.00  0.00     0.112 H 
ENDBRANCH   1  10
BRANCH   2  21
ATOM     21  O2' U5P d          35.286  -0.709  12.482  0.00  0.00    -0.388 OA
ATOM     22  H6  U5P d          34.710  -0.015  12.784  0.00  0.00     0.210 HD
ENDBRANCH   2  21
BRANCH   3  23
ATOM     23  O3' U5P d          36.009   1.842  13.235  0.00  0.00    -0.390 OA
ATOM     24  H9  U5P d          35.466   1.521  13.945  0.00  0.00     0.210 HD
ENDBRANCH   3  23
BRANCH   4  25
ATOM     25  C5' U5P d          38.552   2.125  11.346  0.00  0.00     0.059 C 
ATOM     26  H10 U5P d          38.875   2.517  12.322  0.00  0.00     0.079 H 
ATOM     27  H11 U5P d          38.089   2.934  10.761  0.00  0.00     0.079 H 
BRANCH  25  28
ATOM     28  O5' U5P d          39.664   1.586  10.643  0.00  0.00    -0.280 OA
BRANCH  28  29
ATOM     29  P   U5P d          41.153   1.579  11.250  0.00  0.00     0.422 P 
ATOM     30  O1P U5P d          40.989   1.983  12.702  0.00  0.00    -0.617 OA
ATOM     31  O2P U5P d          41.916   2.577  10.404  0.00  0.00    -0.617 OA
ATOM     32  O3P U5P d          41.576   0.148  11.016  0.00  0.00    -0.617 OA
ENDBRANCH  28  29
ENDBRANCH  25  28
ENDBRANCH   4  25
TORSDOF 6
ENDMDL
MODEL 9
REMARK VINA RESULT:      -4.0      1.815      2.149
REMARK  6 active torsions:
REMARK  status: ('A' for Active; 'I' for Inactive)
REMARK    1  A    between atoms: N1_1  and  C1'_9 
REMARK    2  A    between atoms: C2'_10  and  O2'_11 
REMARK    3  A    between atoms: C3'_12  and  O3'_14 
REMARK    4  A    between atoms: C4'_13  and  C5'_16 
REMARK    5  A    between atoms: C5'_16  and  O5'_17 
REMARK    6  A    between atoms: O5'_17  and  P_18 
ROOT
ATOM      1  C1' U5P d          37.540  -0.394  13.101  0.00  0.00     0.141 C 
ATOM      2  C2' U5P d          36.625  -0.828  11.983  0.00  0.00     0.105 C 
ATOM      3  C3' U5P d          36.806  -2.328  11.957  0.00  0.00     0.091 C 
ATOM      4  C4' U5P d          37.100  -2.663  13.410  0.00  0.00     0.089 C 
ATOM      5  O4' U5P d          37.903  -1.559  13.847  0.00  0.00    -0.353 OA
ATOM      6  H4  U5P d          36.996   0.303  13.757  0.00  0.00     0.123 H 
ATOM      7  H5  U5P d          36.865  -0.364  11.015  0.00  0.00     0.093 H 
ATOM      8  H7  U5P d          37.672  -2.587  11.330  0.00  0.00     0.091 H 
ATOM      9  H8  U5P d          36.164  -2.710  13.986  0.00  0.00     0.090 H 
ENDROOT
BRANCH   1  10
ATOM     10  N1  U5P d          38.732   0.275  12.609  0.00  0.00    -0.280 N 
ATOM     11  C2  U5P d          39.324   1.225  13.442  0.00  0.00     0.331 A 
ATOM     12  N3  U5P d          40.430   1.840  13.035  0.00  0.00    -0.275 N 
ATOM     13  O2  U5P d          38.809   1.497  14.540  0.00  0.00    -0.246 OA
ATOM     14  C4  U5P d          40.993   1.588  11.833  0.00  0.00     0.250 A 
ATOM     15  H1  U5P d          40.860   2.512  13.638  0.00  0.00     0.173 HD
ATOM     16  C5  U5P d          40.427   0.639  10.981  0.00  0.00    -0.002 A 
ATOM     17  O4  U5P d          42.029   2.208  11.503  0.00  0.00    -0.268 OA
ATOM     18  C6  U5P d          39.275  -0.014  11.411  0.00  0.00    -0.008 A 
ATOM     19  H2  U5P d          40.871   0.417  10.012  0.00  0.00     0.094 H 
ATOM     20  H3  U5P d          38.810  -0.765  10.773  0.00  0.00     0.112 H 
ENDBRANCH   1  10
BRANCH   2  21
ATOM     21  O2' U5P d          35.309  -0.479  12.431  0.00  0.00    -0.388 OA
ATOM     22  H6  U5P d          34.901  -1.236  12.833  0.00  0.00     0.210 HD
ENDBRANCH   2  21
BRANCH   3  23
ATOM     23  O3' U5P d          35.670  -3.027  11.446  0.00  0.00    -0.390 OA
ATOM     24  H9  U5P d          35.416  -3.706  12.059  0.00  0.00     0.210 HD
ENDBRANCH   3  23
BRANCH   4  25
ATOM     25  C5' U5P d          37.835  -3.988  13.568  0.00  0.00     0.059 C 
ATOM     26  H10 U5P d          38.095  -4.399  12.581  0.00  0.00     0.079 H 
ATOM     27  H11 U5P d          37.206  -4.709  14.111  0.00  0.00     0.079 H 
BRANCH  25  28
ATOM     28  O5' U5P d          39.015  -3.711  14.309  0.00  0.00    -0.280 OA
BRANCH  28  29
ATOM     29  P   U5P d          40.482  -3.746  13.649  0.00  0.00     0.422 P 
ATOM     30  O1P U5P d          40.241  -3.911  12.162  0.00  0.00    -0.617 OA
ATOM     31  O2P U5P d          41.171  -4.923  14.309  0.00  0.00    -0.617 OA
ATOM     32  O3P U5P d          41.043  -2.408  14.073  0.00  0.00    -0.617 OA
ENDBRANCH  28  29
ENDBRANCH  25  28
ENDBRANCH   4  25
TORSDOF 6
ENDMDL
MODEL 10
REMARK VINA RESULT:      -3.9      2.548      4.425
REMARK  6 active torsions:
REMARK  status: ('A' for Active; 'I' for Inactive)
REMARK    1  A    between atoms: N1_1  and  C1'_9 
REMARK    2  A    between atoms: C2'_10  and  O2'_11 
REMARK    3  A    between atoms: C3'_12  and  O3'_14 
REMARK    4  A    between atoms: C4'_13  and  C5'_16 
REMARK    5  A    between atoms: C5'_16  and  O5'_17 
REMARK    6  A    between atoms: O5'_17  and  P_18 
ROOT
ATOM      1  C1' U5P d          39.099  -3.435  13.585  0.00  0.00     0.141 C 
ATOM      2  C2' U5P d          38.269  -3.981  14.721  0.00  0.00     0.105 C 
ATOM      3  C3' U5P d          36.881  -4.044  14.130  0.00  0.00     0.091 C 
ATOM      4  C4' U5P d          37.146  -4.310  12.658  0.00  0.00     0.089 C 
ATOM      5  O4' U5P d          38.320  -3.533  12.389  0.00  0.00    -0.353 OA
ATOM      6  H4  U5P d          40.007  -4.047  13.480  0.00  0.00     0.123 H 
ATOM      7  H5  U5P d          38.307  -3.360  15.629  0.00  0.00     0.093 H 
ATOM      8  H7  U5P d          36.380  -3.072  14.251  0.00  0.00     0.091 H 
ATOM      9  H8  U5P d          37.347  -5.379  12.494  0.00  0.00     0.090 H 
ENDROOT
BRANCH   1  10
ATOM     10  N1  U5P d          39.498  -2.056  13.808  0.00  0.00    -0.280 N 
ATOM     11  C2  U5P d          40.745  -1.664  13.321  0.00  0.00     0.331 A 
ATOM     12  N3  U5P d          41.134  -0.402  13.486  0.00  0.00    -0.275 N 
ATOM     13  O2  U5P d          41.482  -2.490  12.758  0.00  0.00    -0.246 OA
ATOM     14  C4  U5P d          40.369   0.510  14.123  0.00  0.00     0.250 A 
ATOM     15  H1  U5P d          42.024  -0.120  13.127  0.00  0.00     0.173 HD
ATOM     16  C5  U5P d          39.114   0.148  14.615  0.00  0.00    -0.002 A 
ATOM     17  O4  U5P d          40.796   1.678  14.255  0.00  0.00    -0.268 OA
ATOM     18  C6  U5P d          38.700  -1.168  14.434  0.00  0.00    -0.008 A 
ATOM     19  H2  U5P d          38.479   0.872  15.124  0.00  0.00     0.094 H 
ATOM     20  H3  U5P d          37.724  -1.483  14.800  0.00  0.00     0.112 H 
ENDBRANCH   1  10
BRANCH   2  21
ATOM     21  O2' U5P d          38.788  -5.296  14.953  0.00  0.00    -0.388 OA
ATOM     22  H6  U5P d          38.871  -5.754  14.124  0.00  0.00     0.210 HD
ENDBRANCH   2  21
BRANCH   3  23
ATOM     23  O3' U5P d          36.053  -5.041  14.733  0.00  0.00    -0.390 OA
ATOM     24  H9  U5P d          36.538  -5.479  15.423  0.00  0.00     0.210 HD
ENDBRANCH   3  23
BRANCH   4  25
ATOM     25  C5' U5P d          35.981  -3.892  11.768  0.00  0.00     0.059 C 
ATOM     26  H10 U5P d          35.076  -3.742  12.374  0.00  0.00     0.079 H 
ATOM     27  H11 U5P d          35.790  -4.663  11.007  0.00  0.00     0.079 H 
BRANCH  25  28
ATOM     28  O5' U5P d          36.363  -2.673  11.146  0.00  0.00    -0.280 OA
BRANCH  28  29
ATOM     29  P   U5P d          35.635  -1.274  11.462  0.00  0.00     0.422 P 
ATOM     30  O1P U5P d          36.408  -0.239  10.668  0.00  0.00    -0.617 OA
ATOM     31  O2P U5P d          35.739  -1.118  12.965  0.00  0.00    -0.617 OA
ATOM     32  O3P U5P d          34.227  -1.543  10.983  0.00  0.00    -0.617 OA
ENDBRANCH  28  29
ENDBRANCH  25  28
ENDBRANCH   4  25
TORSDOF 6
ENDMDL
