MODEL 1
REMARK VINA RESULT:      -8.8      0.000      0.000
REMARK  14 active torsions:
REMARK  status: ('A' for Active; 'I' for Inactive)
REMARK    1  A    between atoms: CG_6  and  CB_7 
REMARK    2  A    between atoms: CB_7  and  CA_8 
REMARK    3  A    between atoms: CA_8  and  C_9 
REMARK    4  A    between atoms: CA_8  and  N_12 
REMARK       I    between atoms: N_12  and  CBC_13 
REMARK    5  A    between atoms: CBC_13  and  CAV_15 
REMARK    6  A    between atoms: CAV_15  and  CAW_16 
REMARK    7  A    between atoms: CAW_16  and  CBM_17 
REMARK    8  A    between atoms: CBM_17  and  OAE_18 
REMARK    9  A    between atoms: CBM_17  and  OAF_19 
REMARK   10  A    between atoms: CBM_17  and  CBL_20 
REMARK   11  A    between atoms: CBL_20  and  CAX_21 
REMARK   12  A    between atoms: CBL_20  and  NBA_28 
REMARK   13  A    between atoms: CAX_21  and  CBF_22 
REMARK       I    between atoms: NBA_28  and  CBE_29 
REMARK   14  A    between atoms: CBE_29  and  CBG_31 
ROOT
ATOM      1  CBM KAF d          46.201  44.457  47.925  0.00  0.00     0.180 C 
ENDROOT
BRANCH   1   2
ATOM      2  CAW KAF d          45.452  45.769  47.676  0.00  0.00    -0.003 C 
ATOM      3  H12 KAF d          44.593  45.825  48.361  0.00  0.00     0.041 H 
ATOM      4  H13 KAF d          46.132  46.611  47.872  0.00  0.00     0.041 H 
BRANCH   2   5
ATOM      5  CAV KAF d          44.943  45.864  46.226  0.00  0.00     0.014 C 
ATOM      6  H10 KAF d          44.879  44.857  45.788  0.00  0.00     0.047 H 
ATOM      7  H11 KAF d          43.949  46.334  46.211  0.00  0.00     0.047 H 
BRANCH   5   8
ATOM      8  CBC KAF d          45.926  46.713  45.425  0.00  0.00     0.218 C 
ATOM      9  N   KAF d          45.464  47.267  44.308  0.00  0.00    -0.346 N 
ATOM     10  H9  KAF d          44.515  47.109  44.035  0.00  0.00     0.163 HD
ATOM     11  OAA KAF d          47.077  46.876  45.828  0.00  0.00    -0.274 OA
BRANCH   9  12
ATOM     12  CA  KAF d          46.321  48.104  43.476  0.00  0.00     0.100 C 
ATOM     13  H8  KAF d          47.126  48.507  44.108  0.00  0.00     0.090 H 
BRANCH  12  14
ATOM     14  CB  KAF d          46.960  47.284  42.351  0.00  0.00    -0.013 C 
ATOM     15  H6  KAF d          47.817  47.850  41.959  0.00  0.00     0.043 H 
ATOM     16  H7  KAF d          47.313  46.334  42.778  0.00  0.00     0.043 H 
BRANCH  14  17
ATOM     17  CG  KAF d          46.043  46.968  41.203  0.00  0.00    -0.056 A 
ATOM     18  CD1 KAF d          44.790  46.425  41.434  0.00  0.00    -0.077 A 
ATOM     19  CE1 KAF d          43.942  46.111  40.387  0.00  0.00    -0.082 A 
ATOM     20  H1  KAF d          44.469  46.243  42.453  0.00  0.00     0.084 H 
ATOM     21  CZ  KAF d          44.347  46.343  39.085  0.00  0.00    -0.083 A 
ATOM     22  H2  KAF d          42.966  45.684  40.586  0.00  0.00     0.083 H 
ATOM     23  CE2 KAF d          45.596  46.886  38.839  0.00  0.00    -0.082 A 
ATOM     24  H3  KAF d          43.688  46.100  38.260  0.00  0.00     0.083 H 
ATOM     25  CD2 KAF d          46.435  47.195  39.894  0.00  0.00    -0.077 A 
ATOM     26  H4  KAF d          45.916  47.068  37.820  0.00  0.00     0.083 H 
ATOM     27  H5  KAF d          47.411  47.622  39.694  0.00  0.00     0.084 H 
ENDBRANCH  14  17
ENDBRANCH  12  14
BRANCH  12  28
ATOM     28  C   KAF d          45.530  49.274  42.901  0.00  0.00     0.197 C 
ATOM     29  O   KAF d          44.333  49.378  43.240  0.00  0.00    -0.646 OA
ATOM     30  OXT KAF d          46.115  50.080  42.146  0.00  0.00    -0.646 OA
ENDBRANCH  12  28
ENDBRANCH   9  12
ENDBRANCH   5   8
ENDBRANCH   2   5
ENDBRANCH   1   2
BRANCH   1  31
ATOM     31  OAE KAF d          47.555  44.563  47.470  0.00  0.00    -0.364 OA
ATOM     32  H14 KAF d          47.858  43.711  47.181  0.00  0.00     0.213 HD
ENDBRANCH   1  31
BRANCH   1  33
ATOM     33  OAF KAF d          45.545  43.424  47.181  0.00  0.00    -0.364 OA
ATOM     34  H15 KAF d          44.765  43.777  46.770  0.00  0.00     0.213 HD
ENDBRANCH   1  33
BRANCH   1  35
ATOM     35  CBL KAF d          46.157  44.081  49.410  0.00  0.00     0.070 C 
ATOM     36  H16 KAF d          46.761  43.171  49.537  0.00  0.00     0.081 H 
BRANCH  35  37
ATOM     37  CAX KAF d          44.724  43.775  49.886  0.00  0.00    -0.017 C 
ATOM     38  H17 KAF d          44.018  44.071  49.096  0.00  0.00     0.043 H 
ATOM     39  H18 KAF d          44.521  44.358  50.796  0.00  0.00     0.043 H 
BRANCH  37  40
ATOM     40  CBF KAF d          44.525  42.316  50.190  0.00  0.00    -0.056 A 
ATOM     41  CAO KAF d          45.608  41.487  50.426  0.00  0.00    -0.077 A 
ATOM     42  CAI KAF d          45.429  40.149  50.727  0.00  0.00    -0.082 A 
ATOM     43  H19 KAF d          46.611  41.892  50.373  0.00  0.00     0.084 H 
ATOM     44  CAG KAF d          44.150  39.626  50.795  0.00  0.00    -0.083 A 
ATOM     45  H20 KAF d          46.288  39.513  50.908  0.00  0.00     0.083 H 
ATOM     46  CAJ KAF d          43.059  40.442  50.562  0.00  0.00    -0.082 A 
ATOM     47  H21 KAF d          44.004  38.578  51.032  0.00  0.00     0.083 H 
ATOM     48  CAP KAF d          43.250  41.779  50.262  0.00  0.00    -0.077 A 
ATOM     49  H22 KAF d          42.055  40.035  50.613  0.00  0.00     0.083 H 
ATOM     50  H23 KAF d          42.391  42.414  50.080  0.00  0.00     0.084 H 
ENDBRANCH  37  40
ENDBRANCH  35  37
BRANCH  35  51
ATOM     51  NBA KAF d          46.729  45.124  50.255  0.00  0.00    -0.347 N 
ATOM     52  CBE KAF d          48.029  45.174  50.531  0.00  0.00     0.252 C 
ATOM     53  OAC KAF d          48.857  44.374  50.090  0.00  0.00    -0.268 OA
ATOM     54  H24 KAF d          46.125  45.823  50.638  0.00  0.00     0.163 HD
BRANCH  52  55
ATOM     55  CBG KAF d          48.455  46.331  51.434  0.00  0.00     0.032 A 
ATOM     56  CAR KAF d          47.886  47.583  51.279  0.00  0.00    -0.068 A 
ATOM     57  CAL KAF d          48.272  48.634  52.091  0.00  0.00    -0.082 A 
ATOM     58  H25 KAF d          47.133  47.741  50.517  0.00  0.00     0.085 H 
ATOM     59  CAH KAF d          49.234  48.444  53.066  0.00  0.00    -0.083 A 
ATOM     60  H26 KAF d          47.820  49.610  51.962  0.00  0.00     0.083 H 
ATOM     61  CAK KAF d          49.808  47.196  53.222  0.00  0.00    -0.082 A 
ATOM     62  H27 KAF d          49.535  49.267  53.702  0.00  0.00     0.083 H 
ATOM     63  CAQ KAF d          49.420  46.147  52.410  0.00  0.00    -0.068 A 
ATOM     64  H28 KAF d          50.564  47.040  53.984  0.00  0.00     0.083 H 
ATOM     65  H29 KAF d          49.876  45.172  52.537  0.00  0.00     0.085 H 
ENDBRANCH  52  55
ENDBRANCH  35  51
ENDBRANCH   1  35
TORSDOF 14
ENDMDL
MODEL 2
REMARK VINA RESULT:      -7.3      1.702      2.701
REMARK  14 active torsions:
REMARK  status: ('A' for Active; 'I' for Inactive)
REMARK    1  A    between atoms: CG_6  and  CB_7 
REMARK    2  A    between atoms: CB_7  and  CA_8 
REMARK    3  A    between atoms: CA_8  and  C_9 
REMARK    4  A    between atoms: CA_8  and  N_12 
REMARK       I    between atoms: N_12  and  CBC_13 
REMARK    5  A    between atoms: CBC_13  and  CAV_15 
REMARK    6  A    between atoms: CAV_15  and  CAW_16 
REMARK    7  A    between atoms: CAW_16  and  CBM_17 
REMARK    8  A    between atoms: CBM_17  and  OAE_18 
REMARK    9  A    between atoms: CBM_17  and  OAF_19 
REMARK   10  A    between atoms: CBM_17  and  CBL_20 
REMARK   11  A    between atoms: CBL_20  and  CAX_21 
REMARK   12  A    between atoms: CBL_20  and  NBA_28 
REMARK   13  A    between atoms: CAX_21  and  CBF_22 
REMARK       I    between atoms: NBA_28  and  CBE_29 
REMARK   14  A    between atoms: CBE_29  and  CBG_31 
ROOT
ATOM      1  CBM KAF d          46.240  46.637  46.068  0.00  0.00     0.180 C 
ENDROOT
BRANCH   1   2
ATOM      2  CAW KAF d          45.476  47.953  46.237  0.00  0.00    -0.003 C 
ATOM      3  H12 KAF d          45.067  47.999  47.257  0.00  0.00     0.041 H 
ATOM      4  H13 KAF d          46.172  48.792  46.083  0.00  0.00     0.041 H 
BRANCH   2   5
ATOM      5  CAV KAF d          44.320  48.070  45.228  0.00  0.00     0.014 C 
ATOM      6  H10 KAF d          44.229  47.134  44.657  0.00  0.00     0.047 H 
ATOM      7  H11 KAF d          43.379  48.266  45.762  0.00  0.00     0.047 H 
BRANCH   5   8
ATOM      8  CBC KAF d          44.624  49.225  44.278  0.00  0.00     0.218 C 
ATOM      9  N   KAF d          44.276  49.059  43.006  0.00  0.00    -0.346 N 
ATOM     10  H9  KAF d          43.844  48.204  42.720  0.00  0.00     0.163 HD
ATOM     11  OAA KAF d          45.147  50.256  44.702  0.00  0.00    -0.274 OA
BRANCH   9  12
ATOM     12  CA  KAF d          44.516  50.107  42.020  0.00  0.00     0.100 C 
ATOM     13  H8  KAF d          44.276  51.076  42.483  0.00  0.00     0.090 H 
BRANCH  12  14
ATOM     14  CB  KAF d          45.986  50.130  41.593  0.00  0.00    -0.013 C 
ATOM     15  H6  KAF d          46.078  50.789  40.717  0.00  0.00     0.043 H 
ATOM     16  H7  KAF d          46.578  50.541  42.424  0.00  0.00     0.043 H 
BRANCH  14  17
ATOM     17  CG  KAF d          46.559  48.789  41.231  0.00  0.00    -0.056 A 
ATOM     18  CD1 KAF d          46.162  48.148  40.069  0.00  0.00    -0.077 A 
ATOM     19  CE1 KAF d          46.665  46.904  39.731  0.00  0.00    -0.082 A 
ATOM     20  H1  KAF d          45.445  48.628  39.414  0.00  0.00     0.084 H 
ATOM     21  CZ  KAF d          47.583  46.287  40.563  0.00  0.00    -0.083 A 
ATOM     22  H2  KAF d          46.342  46.415  38.818  0.00  0.00     0.083 H 
ATOM     23  CE2 KAF d          47.988  46.917  41.726  0.00  0.00    -0.082 A 
ATOM     24  H3  KAF d          47.982  45.314  40.304  0.00  0.00     0.083 H 
ATOM     25  CD2 KAF d          47.478  48.160  42.054  0.00  0.00    -0.077 A 
ATOM     26  H4  KAF d          48.707  46.436  42.380  0.00  0.00     0.083 H 
ATOM     27  H5  KAF d          47.802  48.648  42.966  0.00  0.00     0.084 H 
ENDBRANCH  14  17
ENDBRANCH  12  14
BRANCH  12  28
ATOM     28  C   KAF d          43.610  49.918  40.808  0.00  0.00     0.197 C 
ATOM     29  O   KAF d          43.822  50.645  39.815  0.00  0.00    -0.646 OA
ATOM     30  OXT KAF d          42.724  49.037  40.852  0.00  0.00    -0.646 OA
ENDBRANCH  12  28
ENDBRANCH   9  12
ENDBRANCH   5   8
ENDBRANCH   2   5
ENDBRANCH   1   2
BRANCH   1  31
ATOM     31  OAE KAF d          47.600  46.895  45.703  0.00  0.00    -0.364 OA
ATOM     32  H14 KAF d          47.866  47.737  46.052  0.00  0.00     0.213 HD
ENDBRANCH   1  31
BRANCH   1  33
ATOM     33  OAF KAF d          45.614  45.893  45.017  0.00  0.00    -0.364 OA
ATOM     34  H15 KAF d          46.282  45.526  44.449  0.00  0.00     0.213 HD
ENDBRANCH   1  33
BRANCH   1  35
ATOM     35  CBL KAF d          46.174  45.803  47.352  0.00  0.00     0.070 C 
ATOM     36  H16 KAF d          46.811  44.919  47.205  0.00  0.00     0.081 H 
BRANCH  35  37
ATOM     37  CAX KAF d          44.743  45.316  47.651  0.00  0.00    -0.017 C 
ATOM     38  H17 KAF d          44.240  45.089  46.700  0.00  0.00     0.043 H 
ATOM     39  H18 KAF d          44.198  46.117  48.173  0.00  0.00     0.043 H 
BRANCH  37  40
ATOM     40  CBF KAF d          44.729  44.083  48.511  0.00  0.00    -0.056 A 
ATOM     41  CAO KAF d          43.920  44.010  49.632  0.00  0.00    -0.077 A 
ATOM     42  CAI KAF d          43.888  42.870  50.415  0.00  0.00    -0.082 A 
ATOM     43  H19 KAF d          43.301  44.858  49.900  0.00  0.00     0.084 H 
ATOM     44  CAG KAF d          44.675  41.784  50.077  0.00  0.00    -0.083 A 
ATOM     45  H20 KAF d          43.249  42.829  51.289  0.00  0.00     0.083 H 
ATOM     46  CAJ KAF d          45.489  41.843  48.962  0.00  0.00    -0.082 A 
ATOM     47  H21 KAF d          44.653  40.887  50.687  0.00  0.00     0.083 H 
ATOM     48  CAP KAF d          45.512  42.988  48.187  0.00  0.00    -0.077 A 
ATOM     49  H22 KAF d          46.109  40.994  48.696  0.00  0.00     0.083 H 
ATOM     50  H23 KAF d          46.153  43.029  47.312  0.00  0.00     0.084 H 
ENDBRANCH  37  40
ENDBRANCH  35  37
BRANCH  35  51
ATOM     51  NBA KAF d          46.681  46.537  48.508  0.00  0.00    -0.347 N 
ATOM     52  CBE KAF d          47.663  46.062  49.268  0.00  0.00     0.252 C 
ATOM     53  OAC KAF d          48.240  44.994  49.059  0.00  0.00    -0.268 OA
ATOM     54  H24 KAF d          46.277  47.423  48.734  0.00  0.00     0.163 HD
BRANCH  52  55
ATOM     55  CBG KAF d          48.067  46.959  50.438  0.00  0.00     0.032 A 
ATOM     56  CAR KAF d          47.711  48.297  50.447  0.00  0.00    -0.068 A 
ATOM     57  CAL KAF d          48.078  49.113  51.500  0.00  0.00    -0.082 A 
ATOM     58  H25 KAF d          47.140  48.708  49.622  0.00  0.00     0.085 H 
ATOM     59  CAH KAF d          48.808  48.600  52.557  0.00  0.00    -0.083 A 
ATOM     60  H26 KAF d          47.794  50.159  51.499  0.00  0.00     0.083 H 
ATOM     61  CAK KAF d          49.169  47.266  52.552  0.00  0.00    -0.082 A 
ATOM     62  H27 KAF d          49.094  49.240  53.384  0.00  0.00     0.083 H 
ATOM     63  CAQ KAF d          48.800  46.452  51.497  0.00  0.00    -0.068 A 
ATOM     64  H28 KAF d          49.742  46.857  53.376  0.00  0.00     0.083 H 
ATOM     65  H29 KAF d          49.088  45.407  51.499  0.00  0.00     0.085 H 
ENDBRANCH  52  55
ENDBRANCH  35  51
ENDBRANCH   1  35
TORSDOF 14
ENDMDL
MODEL 3
REMARK VINA RESULT:      -7.1      2.265      9.871
REMARK  14 active torsions:
REMARK  status: ('A' for Active; 'I' for Inactive)
REMARK    1  A    between atoms: CG_6  and  CB_7 
REMARK    2  A    between atoms: CB_7  and  CA_8 
REMARK    3  A    between atoms: CA_8  and  C_9 
REMARK    4  A    between atoms: CA_8  and  N_12 
REMARK       I    between atoms: N_12  and  CBC_13 
REMARK    5  A    between atoms: CBC_13  and  CAV_15 
REMARK    6  A    between atoms: CAV_15  and  CAW_16 
REMARK    7  A    between atoms: CAW_16  and  CBM_17 
REMARK    8  A    between atoms: CBM_17  and  OAE_18 
REMARK    9  A    between atoms: CBM_17  and  OAF_19 
REMARK   10  A    between atoms: CBM_17  and  CBL_20 
REMARK   11  A    between atoms: CBL_20  and  CAX_21 
REMARK   12  A    between atoms: CBL_20  and  NBA_28 
REMARK   13  A    between atoms: CAX_21  and  CBF_22 
REMARK       I    between atoms: NBA_28  and  CBE_29 
REMARK   14  A    between atoms: CBE_29  and  CBG_31 
ROOT
ATOM      1  CBM KAF d          45.217  46.091  46.336  0.00  0.00     0.180 C 
ENDROOT
BRANCH   1   2
ATOM      2  CAW KAF d          45.934  46.240  47.681  0.00  0.00    -0.003 C 
ATOM      3  H12 KAF d          45.650  47.202  48.132  0.00  0.00     0.041 H 
ATOM      4  H13 KAF d          45.624  45.418  48.344  0.00  0.00     0.041 H 
BRANCH   2   5
ATOM      5  CAV KAF d          47.465  46.198  47.514  0.00  0.00     0.014 C 
ATOM      6  H10 KAF d          47.720  45.711  46.562  0.00  0.00     0.047 H 
ATOM      7  H11 KAF d          47.867  47.221  47.522  0.00  0.00     0.047 H 
BRANCH   5   8
ATOM      8  CBC KAF d          48.054  45.403  48.674  0.00  0.00     0.218 C 
ATOM      9  N   KAF d          47.327  44.389  49.133  0.00  0.00    -0.346 N 
ATOM     10  H9  KAF d          46.439  44.191  48.718  0.00  0.00     0.163 HD
ATOM     11  OAA KAF d          49.160  45.694  49.128  0.00  0.00    -0.274 OA
BRANCH   9  12
ATOM     12  CA  KAF d          47.805  43.561  50.234  0.00  0.00     0.100 C 
ATOM     13  H8  KAF d          48.787  43.943  50.551  0.00  0.00     0.090 H 
BRANCH  12  14
ATOM     14  CB  KAF d          46.852  43.638  51.431  0.00  0.00    -0.013 C 
ATOM     15  H6  KAF d          47.373  43.231  52.310  0.00  0.00     0.043 H 
ATOM     16  H7  KAF d          46.609  44.696  51.607  0.00  0.00     0.043 H 
BRANCH  14  17
ATOM     17  CG  KAF d          45.564  42.884  51.260  0.00  0.00    -0.056 A 
ATOM     18  CD1 KAF d          45.361  41.683  51.919  0.00  0.00    -0.077 A 
ATOM     19  CE1 KAF d          44.189  40.967  51.758  0.00  0.00    -0.082 A 
ATOM     20  H1  KAF d          46.136  41.297  52.572  0.00  0.00     0.084 H 
ATOM     21  CZ  KAF d          43.196  41.456  50.927  0.00  0.00    -0.083 A 
ATOM     22  H2  KAF d          44.048  40.027  52.280  0.00  0.00     0.083 H 
ATOM     23  CE2 KAF d          43.385  42.656  50.264  0.00  0.00    -0.082 A 
ATOM     24  H3  KAF d          42.275  40.902  50.797  0.00  0.00     0.083 H 
ATOM     25  CD2 KAF d          44.562  43.362  50.433  0.00  0.00    -0.077 A 
ATOM     26  H4  KAF d          42.610  43.042  49.612  0.00  0.00     0.083 H 
ATOM     27  H5  KAF d          44.701  44.302  49.911  0.00  0.00     0.084 H 
ENDBRANCH  14  17
ENDBRANCH  12  14
BRANCH  12  28
ATOM     28  C   KAF d          47.977  42.115  49.781  0.00  0.00     0.197 C 
ATOM     29  O   KAF d          47.367  41.761  48.750  0.00  0.00    -0.646 OA
ATOM     30  OXT KAF d          48.730  41.365  50.439  0.00  0.00    -0.646 OA
ENDBRANCH  12  28
ENDBRANCH   9  12
ENDBRANCH   5   8
ENDBRANCH   2   5
ENDBRANCH   1   2
BRANCH   1  31
ATOM     31  OAE KAF d          43.797  46.128  46.523  0.00  0.00    -0.364 OA
ATOM     32  H14 KAF d          43.408  45.353  46.136  0.00  0.00     0.213 HD
ENDBRANCH   1  31
BRANCH   1  33
ATOM     33  OAF KAF d          45.575  44.822  45.780  0.00  0.00    -0.364 OA
ATOM     34  H15 KAF d          45.673  44.187  46.479  0.00  0.00     0.213 HD
ENDBRANCH   1  33
BRANCH   1  35
ATOM     35  CBL KAF d          45.662  47.186  45.361  0.00  0.00     0.070 C 
ATOM     36  H16 KAF d          46.743  47.332  45.499  0.00  0.00     0.081 H 
BRANCH  35  37
ATOM     37  CAX KAF d          44.960  48.529  45.642  0.00  0.00    -0.017 C 
ATOM     38  H17 KAF d          45.601  49.133  46.300  0.00  0.00     0.043 H 
ATOM     39  H18 KAF d          44.002  48.329  46.144  0.00  0.00     0.043 H 
BRANCH  37  40
ATOM     40  CBF KAF d          44.692  49.306  44.383  0.00  0.00    -0.056 A 
ATOM     41  CAO KAF d          45.434  50.434  44.075  0.00  0.00    -0.077 A 
ATOM     42  CAI KAF d          45.206  51.140  42.908  0.00  0.00    -0.082 A 
ATOM     43  H19 KAF d          46.205  50.769  44.759  0.00  0.00     0.084 H 
ATOM     44  CAG KAF d          44.223  50.718  42.031  0.00  0.00    -0.083 A 
ATOM     45  H20 KAF d          45.795  52.022  42.682  0.00  0.00     0.083 H 
ATOM     46  CAJ KAF d          43.474  49.594  42.326  0.00  0.00    -0.082 A 
ATOM     47  H21 KAF d          44.040  51.267  41.114  0.00  0.00     0.083 H 
ATOM     48  CAP KAF d          43.711  48.895  43.495  0.00  0.00    -0.077 A 
ATOM     49  H22 KAF d          42.702  49.261  41.641  0.00  0.00     0.083 H 
ATOM     50  H23 KAF d          43.121  48.014  43.721  0.00  0.00     0.084 H 
ENDBRANCH  37  40
ENDBRANCH  35  37
BRANCH  35  51
ATOM     51  NBA KAF d          45.430  46.808  43.970  0.00  0.00    -0.347 N 
ATOM     52  CBE KAF d          46.301  47.095  43.008  0.00  0.00     0.252 C 
ATOM     53  OAC KAF d          47.372  47.674  43.200  0.00  0.00    -0.268 OA
ATOM     54  H24 KAF d          44.591  46.317  43.735  0.00  0.00     0.163 HD
BRANCH  52  55
ATOM     55  CBG KAF d          45.899  46.627  41.610  0.00  0.00     0.032 A 
ATOM     56  CAR KAF d          46.811  46.670  40.569  0.00  0.00    -0.068 A 
ATOM     57  CAL KAF d          46.449  46.252  39.302  0.00  0.00    -0.082 A 
ATOM     58  H25 KAF d          47.815  47.034  40.749  0.00  0.00     0.085 H 
ATOM     59  CAH KAF d          45.169  45.787  39.061  0.00  0.00    -0.083 A 
ATOM     60  H26 KAF d          47.170  46.288  38.495  0.00  0.00     0.083 H 
ATOM     61  CAK KAF d          44.253  45.745  40.095  0.00  0.00    -0.082 A 
ATOM     62  H27 KAF d          44.886  45.458  38.068  0.00  0.00     0.083 H 
ATOM     63  CAQ KAF d          44.618  46.164  41.361  0.00  0.00    -0.068 A 
ATOM     64  H28 KAF d          43.248  45.383  39.913  0.00  0.00     0.083 H 
ATOM     65  H29 KAF d          43.894  46.129  42.168  0.00  0.00     0.085 H 
ENDBRANCH  52  55
ENDBRANCH  35  51
ENDBRANCH   1  35
TORSDOF 14
ENDMDL
MODEL 4
REMARK VINA RESULT:      -7.1      1.984     10.083
REMARK  14 active torsions:
REMARK  status: ('A' for Active; 'I' for Inactive)
REMARK    1  A    between atoms: CG_6  and  CB_7 
REMARK    2  A    between atoms: CB_7  and  CA_8 
REMARK    3  A    between atoms: CA_8  and  C_9 
REMARK    4  A    between atoms: CA_8  and  N_12 
REMARK       I    between atoms: N_12  and  CBC_13 
REMARK    5  A    between atoms: CBC_13  and  CAV_15 
REMARK    6  A    between atoms: CAV_15  and  CAW_16 
REMARK    7  A    between atoms: CAW_16  and  CBM_17 
REMARK    8  A    between atoms: CBM_17  and  OAE_18 
REMARK    9  A    between atoms: CBM_17  and  OAF_19 
REMARK   10  A    between atoms: CBM_17  and  CBL_20 
REMARK   11  A    between atoms: CBL_20  and  CAX_21 
REMARK   12  A    between atoms: CBL_20  and  NBA_28 
REMARK   13  A    between atoms: CAX_21  and  CBF_22 
REMARK       I    between atoms: NBA_28  and  CBE_29 
REMARK   14  A    between atoms: CBE_29  and  CBG_31 
ROOT
ATOM      1  CBM KAF d          45.467  46.366  46.158  0.00  0.00     0.180 C 
ENDROOT
BRANCH   1   2
ATOM      2  CAW KAF d          46.561  46.238  47.222  0.00  0.00    -0.003 C 
ATOM      3  H12 KAF d          47.503  46.635  46.814  0.00  0.00     0.041 H 
ATOM      4  H13 KAF d          46.269  46.823  48.107  0.00  0.00     0.041 H 
BRANCH   2   5
ATOM      5  CAV KAF d          46.776  44.771  47.640  0.00  0.00     0.014 C 
ATOM      6  H10 KAF d          46.289  44.104  46.914  0.00  0.00     0.047 H 
ATOM      7  H11 KAF d          47.853  44.550  47.676  0.00  0.00     0.047 H 
BRANCH   5   8
ATOM      8  CBC KAF d          46.161  44.569  49.021  0.00  0.00     0.218 C 
ATOM      9  N   KAF d          46.977  44.146  49.982  0.00  0.00    -0.346 N 
ATOM     10  H9  KAF d          47.939  43.975  49.771  0.00  0.00     0.163 HD
ATOM     11  OAA KAF d          44.970  44.813  49.212  0.00  0.00    -0.274 OA
BRANCH   9  12
ATOM     12  CA  KAF d          46.489  43.930  51.339  0.00  0.00     0.100 C 
ATOM     13  H8  KAF d          45.433  44.236  51.377  0.00  0.00     0.090 H 
BRANCH  12  14
ATOM     14  CB  KAF d          46.573  42.449  51.721  0.00  0.00    -0.013 C 
ATOM     15  H6  KAF d          47.576  42.084  51.457  0.00  0.00     0.043 H 
ATOM     16  H7  KAF d          46.428  42.368  52.808  0.00  0.00     0.043 H 
BRANCH  14  17
ATOM     17  CG  KAF d          45.562  41.566  51.047  0.00  0.00    -0.056 A 
ATOM     18  CD1 KAF d          45.857  40.956  49.839  0.00  0.00    -0.077 A 
ATOM     19  CE1 KAF d          44.931  40.155  49.196  0.00  0.00    -0.082 A 
ATOM     20  H1  KAF d          46.832  41.109  49.390  0.00  0.00     0.084 H 
ATOM     21  CZ  KAF d          43.686  39.955  49.766  0.00  0.00    -0.083 A 
ATOM     22  H2  KAF d          45.178  39.687  48.250  0.00  0.00     0.083 H 
ATOM     23  CE2 KAF d          43.377  40.557  50.973  0.00  0.00    -0.082 A 
ATOM     24  H3  KAF d          42.955  39.328  49.269  0.00  0.00     0.083 H 
ATOM     25  CD2 KAF d          44.312  41.356  51.606  0.00  0.00    -0.077 A 
ATOM     26  H4  KAF d          42.403  40.403  51.422  0.00  0.00     0.083 H 
ATOM     27  H5  KAF d          44.064  41.823  52.552  0.00  0.00     0.084 H 
ENDBRANCH  14  17
ENDBRANCH  12  14
BRANCH  12  28
ATOM     28  C   KAF d          47.272  44.783  52.331  0.00  0.00     0.197 C 
ATOM     29  O   KAF d          46.615  45.431  53.173  0.00  0.00    -0.646 OA
ATOM     30  OXT KAF d          48.520  44.777  52.274  0.00  0.00    -0.646 OA
ENDBRANCH  12  28
ENDBRANCH   9  12
ENDBRANCH   5   8
ENDBRANCH   2   5
ENDBRANCH   1   2
BRANCH   1  31
ATOM     31  OAE KAF d          44.222  46.726  46.767  0.00  0.00    -0.364 OA
ATOM     32  H14 KAF d          43.589  46.033  46.625  0.00  0.00     0.213 HD
ENDBRANCH   1  31
BRANCH   1  33
ATOM     33  OAF KAF d          45.316  45.092  45.522  0.00  0.00    -0.364 OA
ATOM     34  H15 KAF d          45.685  44.416  46.077  0.00  0.00     0.213 HD
ENDBRANCH   1  33
BRANCH   1  35
ATOM     35  CBL KAF d          45.865  47.392  45.092  0.00  0.00     0.070 C 
ATOM     36  H16 KAF d          46.954  47.529  45.156  0.00  0.00     0.081 H 
BRANCH  35  37
ATOM     37  CAX KAF d          45.197  48.760  45.331  0.00  0.00    -0.017 C 
ATOM     38  H17 KAF d          45.891  49.399  45.897  0.00  0.00     0.043 H 
ATOM     39  H18 KAF d          44.277  48.608  45.916  0.00  0.00     0.043 H 
BRANCH  37  40
ATOM     40  CBF KAF d          44.842  49.453  44.045  0.00  0.00    -0.056 A 
ATOM     41  CAO KAF d          45.599  50.515  43.580  0.00  0.00    -0.077 A 
ATOM     42  CAI KAF d          45.289  51.143  42.388  0.00  0.00    -0.082 A 
ATOM     43  H19 KAF d          46.446  50.861  44.160  0.00  0.00     0.084 H 
ATOM     44  CAG KAF d          44.208  50.706  41.643  0.00  0.00    -0.083 A 
ATOM     45  H20 KAF d          45.891  51.974  42.038  0.00  0.00     0.083 H 
ATOM     46  CAJ KAF d          43.443  49.647  42.095  0.00  0.00    -0.082 A 
ATOM     47  H21 KAF d          43.961  51.194  40.706  0.00  0.00     0.083 H 
ATOM     48  CAP KAF d          43.762  49.027  43.289  0.00  0.00    -0.077 A 
ATOM     49  H22 KAF d          42.594  49.303  41.514  0.00  0.00     0.083 H 
ATOM     50  H23 KAF d          43.159  48.196  43.638  0.00  0.00     0.084 H 
ENDBRANCH  37  40
ENDBRANCH  35  37
BRANCH  35  51
ATOM     51  NBA KAF d          45.545  46.933  43.744  0.00  0.00    -0.347 N 
ATOM     52  CBE KAF d          46.364  47.137  42.717  0.00  0.00     0.252 C 
ATOM     53  OAC KAF d          47.457  47.700  42.811  0.00  0.00    -0.268 OA
ATOM     54  H24 KAF d          44.683  46.450  43.588  0.00  0.00     0.163 HD
BRANCH  52  55
ATOM     55  CBG KAF d          45.871  46.593  41.378  0.00  0.00     0.032 A 
ATOM     56  CAR KAF d          44.611  46.029  41.274  0.00  0.00    -0.068 A 
ATOM     57  CAL KAF d          44.163  45.531  40.065  0.00  0.00    -0.082 A 
ATOM     58  H25 KAF d          43.972  45.977  42.148  0.00  0.00     0.085 H 
ATOM     59  CAH KAF d          44.971  45.590  38.945  0.00  0.00    -0.083 A 
ATOM     60  H26 KAF d          43.175  45.092  39.994  0.00  0.00     0.083 H 
ATOM     61  CAK KAF d          46.232  46.149  39.043  0.00  0.00    -0.082 A 
ATOM     62  H27 KAF d          44.619  45.201  37.997  0.00  0.00     0.083 H 
ATOM     63  CAQ KAF d          46.677  46.646  40.253  0.00  0.00    -0.068 A 
ATOM     64  H28 KAF d          46.872  46.197  38.169  0.00  0.00     0.083 H 
ATOM     65  H29 KAF d          47.668  47.082  40.323  0.00  0.00     0.085 H 
ENDBRANCH  52  55
ENDBRANCH  35  51
ENDBRANCH   1  35
TORSDOF 14
ENDMDL
MODEL 5
REMARK VINA RESULT:      -6.4      2.117     10.331
REMARK  14 active torsions:
REMARK  status: ('A' for Active; 'I' for Inactive)
REMARK    1  A    between atoms: CG_6  and  CB_7 
REMARK    2  A    between atoms: CB_7  and  CA_8 
REMARK    3  A    between atoms: CA_8  and  C_9 
REMARK    4  A    between atoms: CA_8  and  N_12 
REMARK       I    between atoms: N_12  and  CBC_13 
REMARK    5  A    between atoms: CBC_13  and  CAV_15 
REMARK    6  A    between atoms: CAV_15  and  CAW_16 
REMARK    7  A    between atoms: CAW_16  and  CBM_17 
REMARK    8  A    between atoms: CBM_17  and  OAE_18 
REMARK    9  A    between atoms: CBM_17  and  OAF_19 
REMARK   10  A    between atoms: CBM_17  and  CBL_20 
REMARK   11  A    between atoms: CBL_20  and  CAX_21 
REMARK   12  A    between atoms: CBL_20  and  NBA_28 
REMARK   13  A    between atoms: CAX_21  and  CBF_22 
REMARK       I    between atoms: NBA_28  and  CBE_29 
REMARK   14  A    between atoms: CBE_29  and  CBG_31 
ROOT
ATOM      1  CBM KAF d          46.144  47.242  45.149  0.00  0.00     0.180 C 
ENDROOT
BRANCH   1   2
ATOM      2  CAW KAF d          45.000  46.228  45.235  0.00  0.00    -0.003 C 
ATOM      3  H12 KAF d          44.174  46.567  44.592  0.00  0.00     0.041 H 
ATOM      4  H13 KAF d          45.361  45.250  44.882  0.00  0.00     0.041 H 
BRANCH   2   5
ATOM      5  CAV KAF d          44.482  46.080  46.677  0.00  0.00     0.014 C 
ATOM      6  H10 KAF d          44.530  47.051  47.190  0.00  0.00     0.047 H 
ATOM      7  H11 KAF d          43.442  45.723  46.664  0.00  0.00     0.047 H 
BRANCH   5   8
ATOM      8  CBC KAF d          45.364  45.069  47.404  0.00  0.00     0.218 C 
ATOM      9  N   KAF d          45.732  45.381  48.643  0.00  0.00    -0.346 N 
ATOM     10  H9  KAF d          45.432  46.246  49.044  0.00  0.00     0.163 HD
ATOM     11  OAA KAF d          45.685  44.016  46.854  0.00  0.00    -0.274 OA
BRANCH   9  12
ATOM     12  CA  KAF d          46.568  44.478  49.427  0.00  0.00     0.100 C 
ATOM     13  H8  KAF d          46.264  44.558  50.481  0.00  0.00     0.090 H 
BRANCH  12  14
ATOM     14  CB  KAF d          46.374  43.027  48.980  0.00  0.00    -0.013 C 
ATOM     15  H6  KAF d          45.926  43.034  47.976  0.00  0.00     0.043 H 
ATOM     16  H7  KAF d          47.362  42.546  48.937  0.00  0.00     0.043 H 
BRANCH  14  17
ATOM     17  CG  KAF d          45.493  42.203  49.877  0.00  0.00    -0.056 A 
ATOM     18  CD1 KAF d          46.047  41.283  50.752  0.00  0.00    -0.077 A 
ATOM     19  CE1 KAF d          45.250  40.504  51.571  0.00  0.00    -0.082 A 
ATOM     20  H1  KAF d          47.125  41.171  50.795  0.00  0.00     0.084 H 
ATOM     21  CZ  KAF d          43.874  40.644  51.521  0.00  0.00    -0.083 A 
ATOM     22  H2  KAF d          45.700  39.787  52.248  0.00  0.00     0.083 H 
ATOM     23  CE2 KAF d          43.307  41.561  50.653  0.00  0.00    -0.082 A 
ATOM     24  H3  KAF d          43.243  40.038  52.160  0.00  0.00     0.083 H 
ATOM     25  CD2 KAF d          44.115  42.334  49.839  0.00  0.00    -0.077 A 
ATOM     26  H4  KAF d          42.230  41.673  50.612  0.00  0.00     0.083 H 
ATOM     27  H5  KAF d          43.664  43.050  49.163  0.00  0.00     0.084 H 
ENDBRANCH  14  17
ENDBRANCH  12  14
BRANCH  12  28
ATOM     28  C   KAF d          48.035  44.879  49.318  0.00  0.00     0.197 C 
ATOM     29  O   KAF d          48.748  44.725  50.332  0.00  0.00    -0.646 OA
ATOM     30  OXT KAF d          48.459  45.315  48.227  0.00  0.00    -0.646 OA
ENDBRANCH  12  28
ENDBRANCH   9  12
ENDBRANCH   5   8
ENDBRANCH   2   5
ENDBRANCH   1   2
BRANCH   1  31
ATOM     31  OAE KAF d          47.276  46.777  45.894  0.00  0.00    -0.364 OA
ATOM     32  H14 KAF d          47.616  45.987  45.492  0.00  0.00     0.213 HD
ENDBRANCH   1  31
BRANCH   1  33
ATOM     33  OAF KAF d          45.690  48.473  45.720  0.00  0.00    -0.364 OA
ATOM     34  H15 KAF d          45.047  48.870  45.144  0.00  0.00     0.213 HD
ENDBRANCH   1  33
BRANCH   1  35
ATOM     35  CBL KAF d          46.529  47.502  43.689  0.00  0.00     0.070 C 
ATOM     36  H16 KAF d          47.316  46.782  43.421  0.00  0.00     0.081 H 
BRANCH  35  37
ATOM     37  CAX KAF d          47.092  48.922  43.485  0.00  0.00    -0.017 C 
ATOM     38  H17 KAF d          48.130  48.844  43.131  0.00  0.00     0.043 H 
ATOM     39  H18 KAF d          47.072  49.453  44.448  0.00  0.00     0.043 H 
BRANCH  37  40
ATOM     40  CBF KAF d          46.297  49.710  42.482  0.00  0.00    -0.056 A 
ATOM     41  CAO KAF d          46.764  49.890  41.191  0.00  0.00    -0.077 A 
ATOM     42  CAI KAF d          46.028  50.597  40.258  0.00  0.00    -0.082 A 
ATOM     43  H19 KAF d          47.722  49.469  40.906  0.00  0.00     0.084 H 
ATOM     44  CAG KAF d          44.805  51.136  40.615  0.00  0.00    -0.083 A 
ATOM     45  H20 KAF d          46.407  50.729  39.252  0.00  0.00     0.083 H 
ATOM     46  CAJ KAF d          44.326  50.966  41.901  0.00  0.00    -0.082 A 
ATOM     47  H21 KAF d          44.222  51.691  39.888  0.00  0.00     0.083 H 
ATOM     48  CAP KAF d          45.072  50.257  42.825  0.00  0.00    -0.077 A 
ATOM     49  H22 KAF d          43.369  51.389  42.185  0.00  0.00     0.083 H 
ATOM     50  H23 KAF d          44.691  50.126  43.832  0.00  0.00     0.084 H 
ENDBRANCH  37  40
ENDBRANCH  35  37
BRANCH  35  51
ATOM     51  NBA KAF d          45.404  47.299  42.782  0.00  0.00    -0.347 N 
ATOM     52  CBE KAF d          45.574  46.878  41.532  0.00  0.00     0.252 C 
ATOM     53  OAC KAF d          46.671  46.603  41.042  0.00  0.00    -0.268 OA
ATOM     54  H24 KAF d          44.478  47.482  43.110  0.00  0.00     0.163 HD
BRANCH  52  55
ATOM     55  CBG KAF d          44.288  46.722  40.721  0.00  0.00     0.032 A 
ATOM     56  CAR KAF d          44.191  45.745  39.746  0.00  0.00    -0.068 A 
ATOM     57  CAL KAF d          43.031  45.604  39.006  0.00  0.00    -0.082 A 
ATOM     58  H25 KAF d          45.031  45.086  39.559  0.00  0.00     0.085 H 
ATOM     59  CAH KAF d          41.954  46.441  39.234  0.00  0.00    -0.083 A 
ATOM     60  H26 KAF d          42.965  44.836  38.246  0.00  0.00     0.083 H 
ATOM     61  CAK KAF d          42.046  47.421  40.204  0.00  0.00    -0.082 A 
ATOM     62  H27 KAF d          41.045  46.330  38.655  0.00  0.00     0.083 H 
ATOM     63  CAQ KAF d          43.208  47.560  40.942  0.00  0.00    -0.068 A 
ATOM     64  H28 KAF d          41.207  48.082  40.387  0.00  0.00     0.083 H 
ATOM     65  H29 KAF d          43.273  48.331  41.701  0.00  0.00     0.085 H 
ENDBRANCH  52  55
ENDBRANCH  35  51
ENDBRANCH   1  35
TORSDOF 14
ENDMDL
MODEL 6
REMARK VINA RESULT:      -6.4      2.424      9.430
REMARK  14 active torsions:
REMARK  status: ('A' for Active; 'I' for Inactive)
REMARK    1  A    between atoms: CG_6  and  CB_7 
REMARK    2  A    between atoms: CB_7  and  CA_8 
REMARK    3  A    between atoms: CA_8  and  C_9 
REMARK    4  A    between atoms: CA_8  and  N_12 
REMARK       I    between atoms: N_12  and  CBC_13 
REMARK    5  A    between atoms: CBC_13  and  CAV_15 
REMARK    6  A    between atoms: CAV_15  and  CAW_16 
REMARK    7  A    between atoms: CAW_16  and  CBM_17 
REMARK    8  A    between atoms: CBM_17  and  OAE_18 
REMARK    9  A    between atoms: CBM_17  and  OAF_19 
REMARK   10  A    between atoms: CBM_17  and  CBL_20 
REMARK   11  A    between atoms: CBL_20  and  CAX_21 
REMARK   12  A    between atoms: CBL_20  and  NBA_28 
REMARK   13  A    between atoms: CAX_21  and  CBF_22 
REMARK       I    between atoms: NBA_28  and  CBE_29 
REMARK   14  A    between atoms: CBE_29  and  CBG_31 
ROOT
ATOM      1  CBM KAF d          44.627  45.816  47.287  0.00  0.00     0.180 C 
ENDROOT
BRANCH   1   2
ATOM      2  CAW KAF d          44.844  44.665  48.274  0.00  0.00    -0.003 C 
ATOM      3  H12 KAF d          45.357  45.052  49.166  0.00  0.00     0.041 H 
ATOM      4  H13 KAF d          43.865  44.253  48.563  0.00  0.00     0.041 H 
BRANCH   2   5
ATOM      5  CAV KAF d          45.696  43.541  47.654  0.00  0.00     0.014 C 
ATOM      6  H10 KAF d          45.153  43.085  46.814  0.00  0.00     0.047 H 
ATOM      7  H11 KAF d          46.649  43.954  47.293  0.00  0.00     0.047 H 
BRANCH   5   8
ATOM      8  CBC KAF d          45.962  42.491  48.727  0.00  0.00     0.218 C 
ATOM      9  N   KAF d          44.924  42.122  49.472  0.00  0.00    -0.346 N 
ATOM     10  H9  KAF d          44.030  42.539  49.312  0.00  0.00     0.163 HD
ATOM     11  OAA KAF d          47.087  42.009  48.860  0.00  0.00    -0.274 OA
BRANCH   9  12
ATOM     12  CA  KAF d          45.072  41.118  50.520  0.00  0.00     0.100 C 
ATOM     13  H8  KAF d          46.094  40.714  50.467  0.00  0.00     0.090 H 
BRANCH  12  14
ATOM     14  CB  KAF d          44.872  41.740  51.905  0.00  0.00    -0.013 C 
ATOM     15  H6  KAF d          43.960  42.353  51.877  0.00  0.00     0.043 H 
ATOM     16  H7  KAF d          44.743  40.924  52.631  0.00  0.00     0.043 H 
BRANCH  14  17
ATOM     17  CG  KAF d          46.005  42.608  52.376  0.00  0.00    -0.056 A 
ATOM     18  CD1 KAF d          45.766  43.903  52.804  0.00  0.00    -0.077 A 
ATOM     19  CE1 KAF d          46.800  44.721  53.222  0.00  0.00    -0.082 A 
ATOM     20  H1  KAF d          44.750  44.282  52.811  0.00  0.00     0.084 H 
ATOM     21  CZ  KAF d          48.097  44.242  53.216  0.00  0.00    -0.083 A 
ATOM     22  H2  KAF d          46.594  45.733  53.552  0.00  0.00     0.083 H 
ATOM     23  CE2 KAF d          48.351  42.950  52.792  0.00  0.00    -0.082 A 
ATOM     24  H3  KAF d          48.913  44.877  53.542  0.00  0.00     0.083 H 
ATOM     25  CD2 KAF d          47.309  42.141  52.376  0.00  0.00    -0.077 A 
ATOM     26  H4  KAF d          49.367  42.571  52.786  0.00  0.00     0.083 H 
ATOM     27  H5  KAF d          47.516  41.129  52.046  0.00  0.00     0.084 H 
ENDBRANCH  14  17
ENDBRANCH  12  14
BRANCH  12  28
ATOM     28  C   KAF d          44.091  39.971  50.303  0.00  0.00     0.197 C 
ATOM     29  O   KAF d          43.981  39.522  49.142  0.00  0.00    -0.646 OA
ATOM     30  OXT KAF d          43.467  39.520  51.288  0.00  0.00    -0.646 OA
ENDBRANCH  12  28
ENDBRANCH   9  12
ENDBRANCH   5   8
ENDBRANCH   2   5
ENDBRANCH   1   2
BRANCH   1  31
ATOM     31  OAE KAF d          44.381  47.036  47.995  0.00  0.00    -0.364 OA
ATOM     32  H14 KAF d          45.022  47.133  48.689  0.00  0.00     0.213 HD
ENDBRANCH   1  31
BRANCH   1  33
ATOM     33  OAF KAF d          43.479  45.506  46.490  0.00  0.00    -0.364 OA
ATOM     34  H15 KAF d          42.876  44.975  46.997  0.00  0.00     0.213 HD
ENDBRANCH   1  33
BRANCH   1  35
ATOM     35  CBL KAF d          45.833  45.965  46.355  0.00  0.00     0.070 C 
ATOM     36  H16 KAF d          46.354  44.997  46.331  0.00  0.00     0.081 H 
BRANCH  35  37
ATOM     37  CAX KAF d          46.826  47.029  46.862  0.00  0.00    -0.017 C 
ATOM     38  H17 KAF d          46.267  47.940  47.121  0.00  0.00     0.043 H 
ATOM     39  H18 KAF d          47.545  47.254  46.060  0.00  0.00     0.043 H 
BRANCH  37  40
ATOM     40  CBF KAF d          47.585  46.567  48.075  0.00  0.00    -0.056 A 
ATOM     41  CAO KAF d          47.494  47.256  49.273  0.00  0.00    -0.077 A 
ATOM     42  CAI KAF d          48.174  46.823  50.396  0.00  0.00    -0.082 A 
ATOM     43  H19 KAF d          46.881  48.147  49.330  0.00  0.00     0.084 H 
ATOM     44  CAG KAF d          48.958  45.686  50.329  0.00  0.00    -0.083 A 
ATOM     45  H20 KAF d          48.092  47.374  51.327  0.00  0.00     0.083 H 
ATOM     46  CAJ KAF d          49.060  44.988  49.139  0.00  0.00    -0.082 A 
ATOM     47  H21 KAF d          49.493  45.341  51.208  0.00  0.00     0.083 H 
ATOM     48  CAP KAF d          48.375  45.430  48.022  0.00  0.00    -0.077 A 
ATOM     49  H22 KAF d          49.675  44.097  49.083  0.00  0.00     0.083 H 
ATOM     50  H23 KAF d          48.458  44.879  47.092  0.00  0.00     0.084 H 
ENDBRANCH  37  40
ENDBRANCH  35  37
BRANCH  35  51
ATOM     51  NBA KAF d          45.434  46.297  44.991  0.00  0.00    -0.347 N 
ATOM     52  CBE KAF d          45.009  47.512  44.657  0.00  0.00     0.252 C 
ATOM     53  OAC KAF d          44.939  48.456  45.445  0.00  0.00    -0.268 OA
ATOM     54  H24 KAF d          45.480  45.588  44.287  0.00  0.00     0.163 HD
BRANCH  52  55
ATOM     55  CBG KAF d          44.629  47.683  43.187  0.00  0.00     0.032 A 
ATOM     56  CAR KAF d          45.362  47.050  42.198  0.00  0.00    -0.068 A 
ATOM     57  CAL KAF d          45.024  47.206  40.866  0.00  0.00    -0.082 A 
ATOM     58  H25 KAF d          46.208  46.429  42.469  0.00  0.00     0.085 H 
ATOM     59  CAH KAF d          43.949  47.998  40.508  0.00  0.00    -0.083 A 
ATOM     60  H26 KAF d          45.604  46.706  40.099  0.00  0.00     0.083 H 
ATOM     61  CAK KAF d          43.215  48.634  41.492  0.00  0.00    -0.082 A 
ATOM     62  H27 KAF d          43.683  48.119  39.465  0.00  0.00     0.083 H 
ATOM     63  CAQ KAF d          43.555  48.477  42.822  0.00  0.00    -0.068 A 
ATOM     64  H28 KAF d          42.371  49.258  41.219  0.00  0.00     0.083 H 
ATOM     65  H29 KAF d          42.976  48.980  43.588  0.00  0.00     0.085 H 
ENDBRANCH  52  55
ENDBRANCH  35  51
ENDBRANCH   1  35
TORSDOF 14
ENDMDL
