MODEL 1
REMARK VINA RESULT:      -5.2      0.000      0.000
REMARK  6 active torsions:
REMARK  status: ('A' for Active; 'I' for Inactive)
REMARK    1  A    between atoms: N1_1  and  C1'_9 
REMARK    2  A    between atoms: C2'_10  and  O2'_11 
REMARK    3  A    between atoms: C3'_12  and  O3'_14 
REMARK    4  A    between atoms: C4'_13  and  C5'_16 
REMARK    5  A    between atoms: C5'_16  and  O5'_17 
REMARK    6  A    between atoms: O5'_17  and  P_18 
ROOT
ATOM      1  C1' U5P d          36.449  -1.134  12.194  0.00  0.00     0.141 C 
ATOM      2  C2' U5P d          35.850  -1.990  11.105  0.00  0.00     0.105 C 
ATOM      3  C3' U5P d          35.950  -3.386  11.675  0.00  0.00     0.091 C 
ATOM      4  C4' U5P d          35.819  -3.155  13.172  0.00  0.00     0.089 C 
ATOM      5  O4' U5P d          36.532  -1.929  13.380  0.00  0.00    -0.353 OA
ATOM      6  H4  U5P d          35.786  -0.275  12.377  0.00  0.00     0.123 H 
ATOM      7  H5  U5P d          36.370  -1.898  10.139  0.00  0.00     0.093 H 
ATOM      8  H7  U5P d          36.939  -3.811  11.447  0.00  0.00     0.091 H 
ATOM      9  H8  U5P d          34.761  -3.036  13.447  0.00  0.00     0.090 H 
ENDROOT
BRANCH   1  10
ATOM     10  N1  U5P d          37.764  -0.631  11.838  0.00  0.00    -0.280 N 
ATOM     11  C2  U5P d          37.833   0.653  11.295  0.00  0.00     0.331 A 
ATOM     12  N3  U5P d          39.023   1.156  10.979  0.00  0.00    -0.275 N 
ATOM     13  O2  U5P d          36.793   1.303  11.098  0.00  0.00    -0.246 OA
ATOM     14  C4  U5P d          40.168   0.461  11.151  0.00  0.00     0.250 A 
ATOM     15  H1  U5P d          39.072   2.081  10.601  0.00  0.00     0.173 HD
ATOM     16  C5  U5P d          40.130  -0.823  11.697  0.00  0.00    -0.002 A 
ATOM     17  O4  U5P d          41.255   0.986  10.824  0.00  0.00    -0.268 OA
ATOM     18  C6  U5P d          38.887  -1.347  12.039  0.00  0.00    -0.008 A 
ATOM     19  H2  U5P d          41.043  -1.396  11.851  0.00  0.00     0.094 H 
ATOM     20  H3  U5P d          38.822  -2.344  12.473  0.00  0.00     0.112 H 
ENDBRANCH   1  10
BRANCH   2  21
ATOM     21  O2' U5P d          34.484  -1.569  11.018  0.00  0.00    -0.388 OA
ATOM     22  H6  U5P d          33.936  -2.314  10.800  0.00  0.00     0.210 HD
ENDBRANCH   2  21
BRANCH   3  23
ATOM     23  O3' U5P d          34.960  -4.280  11.164  0.00  0.00    -0.390 OA
ATOM     24  H9  U5P d          34.259  -3.778  10.764  0.00  0.00     0.210 HD
ENDBRANCH   3  23
BRANCH   4  25
ATOM     25  C5' U5P d          36.411  -4.294  13.994  0.00  0.00     0.059 C 
ATOM     26  H10 U5P d          36.811  -5.073  13.330  0.00  0.00     0.079 H 
ATOM     27  H11 U5P d          35.641  -4.729  14.648  0.00  0.00     0.079 H 
BRANCH  25  28
ATOM     28  O5' U5P d          37.456  -3.730  14.774  0.00  0.00    -0.280 OA
BRANCH  28  29
ATOM     29  P   U5P d          38.967  -4.277  14.724  0.00  0.00     0.422 P 
ATOM     30  O1P U5P d          39.130  -4.857  13.333  0.00  0.00    -0.617 OA
ATOM     31  O2P U5P d          39.043  -5.296  15.842  0.00  0.00    -0.617 OA
ATOM     32  O3P U5P d          39.761  -3.022  15.003  0.00  0.00    -0.617 OA
ENDBRANCH  28  29
ENDBRANCH  25  28
ENDBRANCH   4  25
TORSDOF 6
ENDMDL
MODEL 2
REMARK VINA RESULT:      -5.1      1.836      4.005
REMARK  6 active torsions:
REMARK  status: ('A' for Active; 'I' for Inactive)
REMARK    1  A    between atoms: N1_1  and  C1'_9 
REMARK    2  A    between atoms: C2'_10  and  O2'_11 
REMARK    3  A    between atoms: C3'_12  and  O3'_14 
REMARK    4  A    between atoms: C4'_13  and  C5'_16 
REMARK    5  A    between atoms: C5'_16  and  O5'_17 
REMARK    6  A    between atoms: O5'_17  and  P_18 
ROOT
ATOM      1  C1' U5P d          39.323  -1.964  13.065  0.00  0.00     0.141 C 
ATOM      2  C2' U5P d          38.978  -2.039  14.532  0.00  0.00     0.105 C 
ATOM      3  C3' U5P d          37.987  -3.178  14.592  0.00  0.00     0.091 C 
ATOM      4  C4' U5P d          38.439  -4.085  13.460  0.00  0.00     0.089 C 
ATOM      5  O4' U5P d          38.854  -3.164  12.444  0.00  0.00    -0.353 OA
ATOM      6  H4  U5P d          40.416  -1.902  12.958  0.00  0.00     0.123 H 
ATOM      7  H5  U5P d          38.560  -1.103  14.933  0.00  0.00     0.093 H 
ATOM      8  H7  U5P d          36.974  -2.801  14.388  0.00  0.00     0.091 H 
ATOM      9  H8  U5P d          39.287  -4.706  13.786  0.00  0.00     0.090 H 
ENDROOT
BRANCH   1  10
ATOM     10  N1  U5P d          38.732  -0.804  12.420  0.00  0.00    -0.280 N 
ATOM     11  C2  U5P d          39.604   0.131  11.862  0.00  0.00     0.331 A 
ATOM     12  N3  U5P d          39.099   1.194  11.242  0.00  0.00    -0.275 N 
ATOM     13  O2  U5P d          40.832  -0.025  11.962  0.00  0.00    -0.246 OA
ATOM     14  C4  U5P d          37.768   1.407  11.146  0.00  0.00     0.250 A 
ATOM     15  H1  U5P d          39.725   1.858  10.833  0.00  0.00     0.173 HD
ATOM     16  C5  U5P d          36.872   0.485  11.689  0.00  0.00    -0.002 A 
ATOM     17  O4  U5P d          37.356   2.432  10.559  0.00  0.00    -0.268 OA
ATOM     18  C6  U5P d          37.399  -0.633  12.329  0.00  0.00    -0.008 A 
ATOM     19  H2  U5P d          35.797   0.637  11.615  0.00  0.00     0.094 H 
ATOM     20  H3  U5P d          36.728  -1.375  12.759  0.00  0.00     0.112 H 
ENDBRANCH   1  10
BRANCH   2  21
ATOM     21  O2' U5P d          40.206  -2.394  15.178  0.00  0.00    -0.388 OA
ATOM     22  H6  U5P d          40.100  -3.227  15.624  0.00  0.00     0.210 HD
ENDBRANCH   2  21
BRANCH   3  23
ATOM     23  O3' U5P d          37.961  -3.841  15.857  0.00  0.00    -0.390 OA
ATOM     24  H9  U5P d          37.190  -3.568  16.340  0.00  0.00     0.210 HD
ENDBRANCH   3  23
BRANCH   4  25
ATOM     25  C5' U5P d          37.327  -5.003  12.965  0.00  0.00     0.059 C 
ATOM     26  H10 U5P d          36.611  -5.203  13.776  0.00  0.00     0.079 H 
ATOM     27  H11 U5P d          37.750  -5.954  12.607  0.00  0.00     0.079 H 
BRANCH  25  28
ATOM     28  O5' U5P d          36.683  -4.320  11.898  0.00  0.00    -0.280 OA
BRANCH  28  29
ATOM     29  P   U5P d          35.136  -3.884  11.957  0.00  0.00     0.422 P 
ATOM     30  O1P U5P d          34.982  -2.830  10.879  0.00  0.00    -0.617 OA
ATOM     31  O2P U5P d          34.936  -3.371  13.368  0.00  0.00    -0.617 OA
ATOM     32  O3P U5P d          34.434  -5.195  11.691  0.00  0.00    -0.617 OA
ENDBRANCH  28  29
ENDBRANCH  25  28
ENDBRANCH   4  25
TORSDOF 6
ENDMDL
MODEL 3
REMARK VINA RESULT:      -5.0      2.063      4.595
REMARK  6 active torsions:
REMARK  status: ('A' for Active; 'I' for Inactive)
REMARK    1  A    between atoms: N1_1  and  C1'_9 
REMARK    2  A    between atoms: C2'_10  and  O2'_11 
REMARK    3  A    between atoms: C3'_12  and  O3'_14 
REMARK    4  A    between atoms: C4'_13  and  C5'_16 
REMARK    5  A    between atoms: C5'_16  and  O5'_17 
REMARK    6  A    between atoms: O5'_17  and  P_18 
ROOT
ATOM      1  C1' U5P d          37.199  -0.389  11.818  0.00  0.00     0.141 C 
ATOM      2  C2' U5P d          36.756   0.554  12.909  0.00  0.00     0.105 C 
ATOM      3  C3' U5P d          37.999   0.707  13.754  0.00  0.00     0.091 C 
ATOM      4  C4' U5P d          39.122   0.553  12.742  0.00  0.00     0.089 C 
ATOM      5  O4' U5P d          38.627  -0.456  11.852  0.00  0.00    -0.353 OA
ATOM      6  H4  U5P d          36.876   0.014  10.846  0.00  0.00     0.123 H 
ATOM      7  H5  U5P d          35.901   0.179  13.492  0.00  0.00     0.093 H 
ATOM      8  H7  U5P d          38.048  -0.104  14.495  0.00  0.00     0.091 H 
ATOM      9  H8  U5P d          39.280   1.498  12.202  0.00  0.00     0.090 H 
ENDROOT
BRANCH   1  10
ATOM     10  N1  U5P d          36.633  -1.718  11.976  0.00  0.00    -0.280 N 
ATOM     11  C2  U5P d          35.430  -1.982  11.321  0.00  0.00     0.331 A 
ATOM     12  N3  U5P d          34.894  -3.196  11.423  0.00  0.00    -0.275 N 
ATOM     13  O2  U5P d          34.866  -1.088  10.669  0.00  0.00    -0.246 OA
ATOM     14  C4  U5P d          35.468  -4.178  12.151  0.00  0.00     0.250 A 
ATOM     15  H1  U5P d          34.037  -3.387  10.944  0.00  0.00     0.173 HD
ATOM     16  C5  U5P d          36.675  -3.943  12.812  0.00  0.00    -0.002 A 
ATOM     17  O4  U5P d          34.909  -5.295  12.216  0.00  0.00    -0.268 OA
ATOM     18  C6  U5P d          37.243  -2.678  12.697  0.00  0.00    -0.008 A 
ATOM     19  H2  U5P d          37.156  -4.725  13.397  0.00  0.00     0.094 H 
ATOM     20  H3  U5P d          38.187  -2.463  13.195  0.00  0.00     0.112 H 
ENDBRANCH   1  10
BRANCH   2  21
ATOM     21  O2' U5P d          36.443   1.777  12.231  0.00  0.00    -0.388 OA
ATOM     22  H6  U5P d          37.107   1.952  11.574  0.00  0.00     0.210 HD
ENDBRANCH   2  21
BRANCH   3  23
ATOM     23  O3' U5P d          38.055   1.949  14.460  0.00  0.00    -0.390 OA
ATOM     24  H9  U5P d          38.851   1.980  14.978  0.00  0.00     0.210 HD
ENDBRANCH   3  23
BRANCH   4  25
ATOM     25  C5' U5P d          40.438   0.135  13.387  0.00  0.00     0.059 C 
ATOM     26  H10 U5P d          41.072   1.017  13.562  0.00  0.00     0.079 H 
ATOM     27  H11 U5P d          40.971  -0.576  12.737  0.00  0.00     0.079 H 
BRANCH  25  28
ATOM     28  O5' U5P d          40.106  -0.483  14.622  0.00  0.00    -0.280 OA
BRANCH  28  29
ATOM     29  P   U5P d          40.459  -2.019  14.946  0.00  0.00     0.422 P 
ATOM     30  O1P U5P d          40.698  -2.662  13.594  0.00  0.00    -0.617 OA
ATOM     31  O2P U5P d          39.245  -2.543  15.685  0.00  0.00    -0.617 OA
ATOM     32  O3P U5P d          41.680  -1.877  15.824  0.00  0.00    -0.617 OA
ENDBRANCH  28  29
ENDBRANCH  25  28
ENDBRANCH   4  25
TORSDOF 6
ENDMDL
MODEL 4
REMARK VINA RESULT:      -4.8      2.411      4.466
REMARK  6 active torsions:
REMARK  status: ('A' for Active; 'I' for Inactive)
REMARK    1  A    between atoms: N1_1  and  C1'_9 
REMARK    2  A    between atoms: C2'_10  and  O2'_11 
REMARK    3  A    between atoms: C3'_12  and  O3'_14 
REMARK    4  A    between atoms: C4'_13  and  C5'_16 
REMARK    5  A    between atoms: C5'_16  and  O5'_17 
REMARK    6  A    between atoms: O5'_17  and  P_18 
ROOT
ATOM      1  C1' U5P d          38.833  -0.360  13.190  0.00  0.00     0.141 C 
ATOM      2  C2' U5P d          38.947   0.330  11.852  0.00  0.00     0.105 C 
ATOM      3  C3' U5P d          37.622   0.019  11.195  0.00  0.00     0.091 C 
ATOM      4  C4' U5P d          36.668  -0.073  12.374  0.00  0.00     0.089 C 
ATOM      5  O4' U5P d          37.459  -0.701  13.391  0.00  0.00    -0.353 OA
ATOM      6  H4  U5P d          39.155   0.337  13.978  0.00  0.00     0.123 H 
ATOM      7  H5  U5P d          39.800  -0.018  11.251  0.00  0.00     0.093 H 
ATOM      8  H7  U5P d          37.680  -0.952  10.683  0.00  0.00     0.091 H 
ATOM      9  H8  U5P d          36.360   0.934  12.693  0.00  0.00     0.090 H 
ENDROOT
BRANCH   1  10
ATOM     10  N1  U5P d          39.660  -1.553  13.266  0.00  0.00    -0.280 N 
ATOM     11  C2  U5P d          40.080  -1.960  14.532  0.00  0.00     0.331 A 
ATOM     12  N3  U5P d          40.818  -3.061  14.643  0.00  0.00    -0.275 N 
ATOM     13  O2  U5P d          39.779  -1.290  15.534  0.00  0.00    -0.246 OA
ATOM     14  C4  U5P d          41.188  -3.792  13.568  0.00  0.00     0.250 A 
ATOM     15  H1  U5P d          41.109  -3.358  15.552  0.00  0.00     0.173 HD
ATOM     16  C5  U5P d          40.776  -3.411  12.290  0.00  0.00    -0.002 A 
ATOM     17  O4  U5P d          41.891  -4.812  13.738  0.00  0.00    -0.268 OA
ATOM     18  C6  U5P d          39.995  -2.266  12.173  0.00  0.00    -0.008 A 
ATOM     19  H2  U5P d          41.058  -3.992  11.413  0.00  0.00     0.094 H 
ATOM     20  H3  U5P d          39.652  -1.944  11.191  0.00  0.00     0.112 H 
ENDBRANCH   1  10
BRANCH   2  21
ATOM     21  O2' U5P d          39.048   1.724  12.167  0.00  0.00    -0.388 OA
ATOM     22  H6  U5P d          38.562   1.904  12.964  0.00  0.00     0.210 HD
ENDBRANCH   2  21
BRANCH   3  23
ATOM     23  O3' U5P d          37.223   0.998  10.234  0.00  0.00    -0.390 OA
ATOM     24  H9  U5P d          37.782   1.762  10.311  0.00  0.00     0.210 HD
ENDBRANCH   3  23
BRANCH   4  25
ATOM     25  C5' U5P d          35.419  -0.885  12.054  0.00  0.00     0.059 C 
ATOM     26  H10 U5P d          35.375  -1.106  10.977  0.00  0.00     0.079 H 
ATOM     27  H11 U5P d          34.517  -0.328  12.351  0.00  0.00     0.079 H 
BRANCH  25  28
ATOM     28  O5' U5P d          35.517  -2.091  12.799  0.00  0.00    -0.280 OA
BRANCH  28  29
ATOM     29  P   U5P d          35.556  -3.540  12.102  0.00  0.00     0.422 P 
ATOM     30  O1P U5P d          34.557  -4.377  12.876  0.00  0.00    -0.617 OA
ATOM     31  O2P U5P d          36.995  -3.993  12.240  0.00  0.00    -0.617 OA
ATOM     32  O3P U5P d          35.166  -3.210  10.680  0.00  0.00    -0.617 OA
ENDBRANCH  28  29
ENDBRANCH  25  28
ENDBRANCH   4  25
TORSDOF 6
ENDMDL
MODEL 5
REMARK VINA RESULT:      -4.7      1.671      2.138
REMARK  6 active torsions:
REMARK  status: ('A' for Active; 'I' for Inactive)
REMARK    1  A    between atoms: N1_1  and  C1'_9 
REMARK    2  A    between atoms: C2'_10  and  O2'_11 
REMARK    3  A    between atoms: C3'_12  and  O3'_14 
REMARK    4  A    between atoms: C4'_13  and  C5'_16 
REMARK    5  A    between atoms: C5'_16  and  O5'_17 
REMARK    6  A    between atoms: O5'_17  and  P_18 
ROOT
ATOM      1  C1' U5P d          35.937  -0.776  12.338  0.00  0.00     0.141 C 
ATOM      2  C2' U5P d          35.543  -1.479  11.062  0.00  0.00     0.105 C 
ATOM      3  C3' U5P d          36.003  -2.899  11.299  0.00  0.00     0.091 C 
ATOM      4  C4' U5P d          35.857  -3.060  12.803  0.00  0.00     0.089 C 
ATOM      5  O4' U5P d          36.246  -1.777  13.311  0.00  0.00    -0.353 OA
ATOM      6  H4  U5P d          35.085  -0.176  12.691  0.00  0.00     0.123 H 
ATOM      7  H5  U5P d          35.998  -1.040  10.161  0.00  0.00     0.093 H 
ATOM      8  H7  U5P d          37.060  -3.000  11.012  0.00  0.00     0.091 H 
ATOM      9  H8  U5P d          34.810  -3.275  13.063  0.00  0.00     0.090 H 
ENDROOT
BRANCH   1  10
ATOM     10  N1  U5P d          37.075   0.107  12.151  0.00  0.00    -0.280 N 
ATOM     11  C2  U5P d          37.897   0.334  13.255  0.00  0.00     0.331 A 
ATOM     12  N3  U5P d          38.963   1.118  13.116  0.00  0.00    -0.275 N 
ATOM     13  O2  U5P d          37.620  -0.178  14.353  0.00  0.00    -0.246 OA
ATOM     14  C4  U5P d          39.269   1.714  11.943  0.00  0.00     0.250 A 
ATOM     15  H1  U5P d          39.556   1.271  13.906  0.00  0.00     0.173 HD
ATOM     16  C5  U5P d          38.469   1.499  10.820  0.00  0.00    -0.002 A 
ATOM     17  O4  U5P d          40.280   2.448  11.879  0.00  0.00    -0.268 OA
ATOM     18  C6  U5P d          37.360   0.671  10.961  0.00  0.00    -0.008 A 
ATOM     19  H2  U5P d          38.705   1.965   9.865  0.00  0.00     0.094 H 
ATOM     20  H3  U5P d          36.718   0.477  10.104  0.00  0.00     0.112 H 
ENDBRANCH   1  10
BRANCH   2  21
ATOM     21  O2' U5P d          34.113  -1.403  11.029  0.00  0.00    -0.388 OA
ATOM     22  H6  U5P d          33.791  -1.125  11.878  0.00  0.00     0.210 HD
ENDBRANCH   2  21
BRANCH   3  23
ATOM     23  O3' U5P d          35.254  -3.868  10.562  0.00  0.00    -0.390 OA
ATOM     24  H9  U5P d          35.258  -4.693  11.033  0.00  0.00     0.210 HD
ENDBRANCH   3  23
BRANCH   4  25
ATOM     25  C5' U5P d          36.735  -4.174  13.361  0.00  0.00     0.059 C 
ATOM     26  H10 U5P d          36.176  -5.121  13.386  0.00  0.00     0.079 H 
ATOM     27  H11 U5P d          37.072  -3.919  14.377  0.00  0.00     0.079 H 
BRANCH  25  28
ATOM     28  O5' U5P d          37.851  -4.286  12.488  0.00  0.00    -0.280 OA
BRANCH  28  29
ATOM     29  P   U5P d          39.292  -3.663  12.837  0.00  0.00     0.422 P 
ATOM     30  O1P U5P d          39.209  -3.275  14.300  0.00  0.00    -0.617 OA
ATOM     31  O2P U5P d          39.444  -2.494  11.886  0.00  0.00    -0.617 OA
ATOM     32  O3P U5P d          40.213  -4.818  12.521  0.00  0.00    -0.617 OA
ENDBRANCH  28  29
ENDBRANCH  25  28
ENDBRANCH   4  25
TORSDOF 6
ENDMDL
MODEL 6
REMARK VINA RESULT:      -4.5      1.804      2.598
REMARK  6 active torsions:
REMARK  status: ('A' for Active; 'I' for Inactive)
REMARK    1  A    between atoms: N1_1  and  C1'_9 
REMARK    2  A    between atoms: C2'_10  and  O2'_11 
REMARK    3  A    between atoms: C3'_12  and  O3'_14 
REMARK    4  A    between atoms: C4'_13  and  C5'_16 
REMARK    5  A    between atoms: C5'_16  and  O5'_17 
REMARK    6  A    between atoms: O5'_17  and  P_18 
ROOT
ATOM      1  C1' U5P d          36.378  -1.992  13.006  0.00  0.00     0.141 C 
ATOM      2  C2' U5P d          36.744  -3.225  12.218  0.00  0.00     0.105 C 
ATOM      3  C3' U5P d          37.798  -3.880  13.079  0.00  0.00     0.091 C 
ATOM      4  C4' U5P d          37.385  -3.485  14.487  0.00  0.00     0.089 C 
ATOM      5  O4' U5P d          36.906  -2.144  14.326  0.00  0.00    -0.353 OA
ATOM      6  H4  U5P d          35.282  -1.915  13.059  0.00  0.00     0.123 H 
ATOM      7  H5  U5P d          37.113  -3.005  11.205  0.00  0.00     0.093 H 
ATOM      8  H7  U5P d          38.785  -3.456  12.846  0.00  0.00     0.091 H 
ATOM      9  H8  U5P d          36.576  -4.141  14.844  0.00  0.00     0.090 H 
ENDROOT
BRANCH   1  10
ATOM     10  N1  U5P d          36.895  -0.777  12.399  0.00  0.00    -0.280 N 
ATOM     11  C2  U5P d          36.400  -0.430  11.141  0.00  0.00     0.331 A 
ATOM     12  N3  U5P d          36.832   0.688  10.564  0.00  0.00    -0.275 N 
ATOM     13  O2  U5P d          35.580  -1.167  10.569  0.00  0.00    -0.246 OA
ATOM     14  C4  U5P d          37.747   1.492  11.148  0.00  0.00     0.250 A 
ATOM     15  H1  U5P d          36.467   0.941   9.668  0.00  0.00     0.173 HD
ATOM     16  C5  U5P d          38.255   1.173  12.408  0.00  0.00    -0.002 A 
ATOM     17  O4  U5P d          38.121   2.525  10.549  0.00  0.00    -0.268 OA
ATOM     18  C6  U5P d          37.796   0.010  13.018  0.00  0.00    -0.008 A 
ATOM     19  H2  U5P d          38.987   1.813  12.897  0.00  0.00     0.094 H 
ATOM     20  H3  U5P d          38.167  -0.266  14.004  0.00  0.00     0.112 H 
ENDBRANCH   1  10
BRANCH   2  21
ATOM     21  O2' U5P d          35.545  -4.010  12.190  0.00  0.00    -0.388 OA
ATOM     22  H6  U5P d          35.026  -3.821  12.963  0.00  0.00     0.210 HD
ENDBRANCH   2  21
BRANCH   3  23
ATOM     23  O3' U5P d          37.876  -5.296  12.901  0.00  0.00    -0.390 OA
ATOM     24  H9  U5P d          37.468  -5.730  13.641  0.00  0.00     0.210 HD
ENDBRANCH   3  23
BRANCH   4  25
ATOM     25  C5' U5P d          38.540  -3.554  15.478  0.00  0.00     0.059 C 
ATOM     26  H10 U5P d          38.327  -4.300  16.258  0.00  0.00     0.079 H 
ATOM     27  H11 U5P d          38.699  -2.570  15.945  0.00  0.00     0.079 H 
BRANCH  25  28
ATOM     28  O5' U5P d          39.689  -3.936  14.735  0.00  0.00    -0.280 OA
BRANCH  28  29
ATOM     29  P   U5P d          41.032  -3.051  14.699  0.00  0.00     0.422 P 
ATOM     30  O1P U5P d          40.585  -1.642  15.038  0.00  0.00    -0.617 OA
ATOM     31  O2P U5P d          41.565  -3.219  13.292  0.00  0.00    -0.617 OA
ATOM     32  O3P U5P d          41.880  -3.734  15.747  0.00  0.00    -0.617 OA
ENDBRANCH  28  29
ENDBRANCH  25  28
ENDBRANCH   4  25
TORSDOF 6
ENDMDL
MODEL 7
REMARK VINA RESULT:      -4.3      2.447      5.206
REMARK  6 active torsions:
REMARK  status: ('A' for Active; 'I' for Inactive)
REMARK    1  A    between atoms: N1_1  and  C1'_9 
REMARK    2  A    between atoms: C2'_10  and  O2'_11 
REMARK    3  A    between atoms: C3'_12  and  O3'_14 
REMARK    4  A    between atoms: C4'_13  and  C5'_16 
REMARK    5  A    between atoms: C5'_16  and  O5'_17 
REMARK    6  A    between atoms: O5'_17  and  P_18 
ROOT
ATOM      1  C1' U5P d          38.683  -2.788  14.181  0.00  0.00     0.141 C 
ATOM      2  C2' U5P d          39.216  -4.185  13.978  0.00  0.00     0.105 C 
ATOM      3  C3' U5P d          40.523  -3.950  13.258  0.00  0.00     0.091 C 
ATOM      4  C4' U5P d          40.976  -2.604  13.799  0.00  0.00     0.089 C 
ATOM      5  O4' U5P d          39.751  -1.871  13.928  0.00  0.00    -0.353 OA
ATOM      6  H4  U5P d          38.351  -2.681  15.224  0.00  0.00     0.123 H 
ATOM      7  H5  U5P d          38.537  -4.834  13.405  0.00  0.00     0.093 H 
ATOM      8  H7  U5P d          40.344  -3.877  12.175  0.00  0.00     0.091 H 
ATOM      9  H8  U5P d          41.453  -2.731  14.783  0.00  0.00     0.090 H 
ENDROOT
BRANCH   1  10
ATOM     10  N1  U5P d          37.558  -2.496  13.308  0.00  0.00    -0.280 N 
ATOM     11  C2  U5P d          37.045  -1.199  13.338  0.00  0.00     0.331 A 
ATOM     12  N3  U5P d          36.031  -0.889  12.535  0.00  0.00    -0.275 N 
ATOM     13  O2  U5P d          37.523  -0.358  14.117  0.00  0.00    -0.246 OA
ATOM     14  C4  U5P d          35.469  -1.791  11.702  0.00  0.00     0.250 A 
ATOM     15  H1  U5P d          35.672   0.045  12.550  0.00  0.00     0.173 HD
ATOM     16  C5  U5P d          35.966  -3.094  11.647  0.00  0.00    -0.002 A 
ATOM     17  O4  U5P d          34.510  -1.440  10.980  0.00  0.00    -0.268 OA
ATOM     18  C6  U5P d          37.034  -3.418  12.478  0.00  0.00    -0.008 A 
ATOM     19  H2  U5P d          35.531  -3.833  10.976  0.00  0.00     0.094 H 
ATOM     20  H3  U5P d          37.450  -4.424  12.456  0.00  0.00     0.112 H 
ENDBRANCH   1  10
BRANCH   2  21
ATOM     21  O2' U5P d          39.443  -4.685  15.301  0.00  0.00    -0.388 OA
ATOM     22  H6  U5P d          39.531  -3.956  15.904  0.00  0.00     0.210 HD
ENDBRANCH   2  21
BRANCH   3  23
ATOM     23  O3' U5P d          41.484  -4.986  13.474  0.00  0.00    -0.390 OA
ATOM     24  H9  U5P d          41.858  -5.248  12.641  0.00  0.00     0.210 HD
ENDBRANCH   3  23
BRANCH   4  25
ATOM     25  C5' U5P d          41.957  -1.899  12.871  0.00  0.00     0.059 C 
ATOM     26  H10 U5P d          42.156  -2.521  11.986  0.00  0.00     0.079 H 
ATOM     27  H11 U5P d          42.902  -1.698  13.398  0.00  0.00     0.079 H 
BRANCH  25  28
ATOM     28  O5' U5P d          41.342  -0.678  12.483  0.00  0.00    -0.280 OA
BRANCH  28  29
ATOM     29  P   U5P d          40.960  -0.346  10.956  0.00  0.00     0.422 P 
ATOM     30  O1P U5P d          39.551   0.209  11.014  0.00  0.00    -0.617 OA
ATOM     31  O2P U5P d          41.084  -1.671  10.234  0.00  0.00    -0.617 OA
ATOM     32  O3P U5P d          42.035   0.646  10.577  0.00  0.00    -0.617 OA
ENDBRANCH  28  29
ENDBRANCH  25  28
ENDBRANCH   4  25
TORSDOF 6
ENDMDL
MODEL 8
REMARK VINA RESULT:      -4.3      2.224      2.962
REMARK  6 active torsions:
REMARK  status: ('A' for Active; 'I' for Inactive)
REMARK    1  A    between atoms: N1_1  and  C1'_9 
REMARK    2  A    between atoms: C2'_10  and  O2'_11 
REMARK    3  A    between atoms: C3'_12  and  O3'_14 
REMARK    4  A    between atoms: C4'_13  and  C5'_16 
REMARK    5  A    between atoms: C5'_16  and  O5'_17 
REMARK    6  A    between atoms: O5'_17  and  P_18 
ROOT
ATOM      1  C1' U5P d          37.030  -1.760  13.817  0.00  0.00     0.141 C 
ATOM      2  C2' U5P d          36.281  -2.841  13.076  0.00  0.00     0.105 C 
ATOM      3  C3' U5P d          37.323  -3.921  12.905  0.00  0.00     0.091 C 
ATOM      4  C4' U5P d          38.198  -3.753  14.136  0.00  0.00     0.089 C 
ATOM      5  O4' U5P d          38.241  -2.332  14.318  0.00  0.00    -0.353 OA
ATOM      6  H4  U5P d          36.414  -1.414  14.661  0.00  0.00     0.123 H 
ATOM      7  H5  U5P d          35.867  -2.506  12.114  0.00  0.00     0.093 H 
ATOM      8  H7  U5P d          37.913  -3.728  11.997  0.00  0.00     0.091 H 
ATOM      9  H8  U5P d          37.728  -4.238  15.005  0.00  0.00     0.090 H 
ENDROOT
BRANCH   1  10
ATOM     10  N1  U5P d          37.331  -0.619  12.969  0.00  0.00    -0.280 N 
ATOM     11  C2  U5P d          38.179   0.359  13.490  0.00  0.00     0.331 A 
ATOM     12  N3  U5P d          38.496   1.406  12.733  0.00  0.00    -0.275 N 
ATOM     13  O2  U5P d          38.614   0.254  14.648  0.00  0.00    -0.246 OA
ATOM     14  C4  U5P d          38.012   1.564  11.482  0.00  0.00     0.250 A 
ATOM     15  H1  U5P d          39.113   2.101  13.104  0.00  0.00     0.173 HD
ATOM     16  C5  U5P d          37.167   0.598  10.933  0.00  0.00    -0.002 A 
ATOM     17  O4  U5P d          38.340   2.576  10.825  0.00  0.00    -0.268 OA
ATOM     18  C6  U5P d          36.843  -0.504  11.719  0.00  0.00    -0.008 A 
ATOM     19  H2  U5P d          36.774   0.704   9.923  0.00  0.00     0.094 H 
ATOM     20  H3  U5P d          36.190  -1.279  11.320  0.00  0.00     0.112 H 
ENDBRANCH   1  10
BRANCH   2  21
ATOM     21  O2' U5P d          35.253  -3.259  13.983  0.00  0.00    -0.388 OA
ATOM     22  H6  U5P d          35.597  -3.929  14.563  0.00  0.00     0.210 HD
ENDBRANCH   2  21
BRANCH   3  23
ATOM     23  O3' U5P d          36.767  -5.233  12.795  0.00  0.00    -0.390 OA
ATOM     24  H9  U5P d          36.677  -5.461  11.877  0.00  0.00     0.210 HD
ENDBRANCH   3  23
BRANCH   4  25
ATOM     25  C5' U5P d          39.593  -4.337  13.948  0.00  0.00     0.059 C 
ATOM     26  H10 U5P d          39.589  -5.411  14.187  0.00  0.00     0.079 H 
ATOM     27  H11 U5P d          40.312  -3.819  14.599  0.00  0.00     0.079 H 
BRANCH  25  28
ATOM     28  O5' U5P d          39.934  -4.139  12.583  0.00  0.00    -0.280 OA
BRANCH  28  29
ATOM     29  P   U5P d          41.012  -3.043  12.110  0.00  0.00     0.422 P 
ATOM     30  O1P U5P d          42.011  -3.811  11.266  0.00  0.00    -0.617 OA
ATOM     31  O2P U5P d          41.578  -2.482  13.397  0.00  0.00    -0.617 OA
ATOM     32  O3P U5P d          40.144  -2.061  11.358  0.00  0.00    -0.617 OA
ENDBRANCH  28  29
ENDBRANCH  25  28
ENDBRANCH   4  25
TORSDOF 6
ENDMDL
MODEL 9
REMARK VINA RESULT:      -4.2      2.325      4.206
REMARK  6 active torsions:
REMARK  status: ('A' for Active; 'I' for Inactive)
REMARK    1  A    between atoms: N1_1  and  C1'_9 
REMARK    2  A    between atoms: C2'_10  and  O2'_11 
REMARK    3  A    between atoms: C3'_12  and  O3'_14 
REMARK    4  A    between atoms: C4'_13  and  C5'_16 
REMARK    5  A    between atoms: C5'_16  and  O5'_17 
REMARK    6  A    between atoms: O5'_17  and  P_18 
ROOT
ATOM      1  C1' U5P d          39.343  -1.386  12.503  0.00  0.00     0.141 C 
ATOM      2  C2' U5P d          40.172  -1.853  13.674  0.00  0.00     0.105 C 
ATOM      3  C3' U5P d          39.570  -3.199  14.004  0.00  0.00     0.091 C 
ATOM      4  C4' U5P d          39.088  -3.699  12.652  0.00  0.00     0.089 C 
ATOM      5  O4' U5P d          38.607  -2.510  12.013  0.00  0.00    -0.353 OA
ATOM      6  H4  U5P d          40.015  -1.018  11.714  0.00  0.00     0.123 H 
ATOM      7  H5  U5P d          40.146  -1.165  14.532  0.00  0.00     0.093 H 
ATOM      8  H7  U5P d          38.714  -3.067  14.681  0.00  0.00     0.091 H 
ATOM      9  H8  U5P d          39.927  -4.129  12.084  0.00  0.00     0.090 H 
ENDROOT
BRANCH   1  10
ATOM     10  N1  U5P d          38.432  -0.314  12.868  0.00  0.00    -0.280 N 
ATOM     11  C2  U5P d          37.181  -0.300  12.250  0.00  0.00     0.331 A 
ATOM     12  N3  U5P d          36.312   0.653  12.576  0.00  0.00    -0.275 N 
ATOM     13  O2  U5P d          36.898  -1.157  11.397  0.00  0.00    -0.246 OA
ATOM     14  C4  U5P d          36.604   1.617  13.475  0.00  0.00     0.250 A 
ATOM     15  H1  U5P d          35.411   0.655  12.140  0.00  0.00     0.173 HD
ATOM     16  C5  U5P d          37.845   1.624  14.114  0.00  0.00    -0.002 A 
ATOM     17  O4  U5P d          35.747   2.492  13.732  0.00  0.00    -0.268 OA
ATOM     18  C6  U5P d          38.752   0.622  13.782  0.00  0.00    -0.008 A 
ATOM     19  H2  U5P d          38.095   2.389  14.847  0.00  0.00     0.094 H 
ATOM     20  H3  U5P d          39.727   0.594  14.266  0.00  0.00     0.112 H 
ENDBRANCH   1  10
BRANCH   2  21
ATOM     21  O2' U5P d          41.497  -2.000  13.148  0.00  0.00    -0.388 OA
ATOM     22  H6  U5P d          41.472  -2.560  12.381  0.00  0.00     0.210 HD
ENDBRANCH   2  21
BRANCH   3  23
ATOM     23  O3' U5P d          40.491  -4.094  14.630  0.00  0.00    -0.390 OA
ATOM     24  H9  U5P d          41.372  -3.899  14.333  0.00  0.00     0.210 HD
ENDBRANCH   3  23
BRANCH   4  25
ATOM     25  C5' U5P d          37.993  -4.752  12.774  0.00  0.00     0.059 C 
ATOM     26  H10 U5P d          37.852  -5.033  13.828  0.00  0.00     0.079 H 
ATOM     27  H11 U5P d          38.259  -5.646  12.189  0.00  0.00     0.079 H 
BRANCH  25  28
ATOM     28  O5' U5P d          36.806  -4.165  12.259  0.00  0.00    -0.280 OA
BRANCH  28  29
ATOM     29  P   U5P d          35.386  -4.283  13.006  0.00  0.00     0.422 P 
ATOM     30  O1P U5P d          34.415  -4.739  11.935  0.00  0.00    -0.617 OA
ATOM     31  O2P U5P d          35.119  -2.893  13.544  0.00  0.00    -0.617 OA
ATOM     32  O3P U5P d          35.688  -5.296  14.085  0.00  0.00    -0.617 OA
ENDBRANCH  28  29
ENDBRANCH  25  28
ENDBRANCH   4  25
TORSDOF 6
ENDMDL
MODEL 10
REMARK VINA RESULT:      -4.1      2.612      5.311
REMARK  6 active torsions:
REMARK  status: ('A' for Active; 'I' for Inactive)
REMARK    1  A    between atoms: N1_1  and  C1'_9 
REMARK    2  A    between atoms: C2'_10  and  O2'_11 
REMARK    3  A    between atoms: C3'_12  and  O3'_14 
REMARK    4  A    between atoms: C4'_13  and  C5'_16 
REMARK    5  A    between atoms: C5'_16  and  O5'_17 
REMARK    6  A    between atoms: O5'_17  and  P_18 
ROOT
ATOM      1  C1' U5P d          36.254   0.123  12.231  0.00  0.00     0.141 C 
ATOM      2  C2' U5P d          36.624   0.837  13.509  0.00  0.00     0.105 C 
ATOM      3  C3' U5P d          37.989   1.405  13.199  0.00  0.00     0.091 C 
ATOM      4  C4' U5P d          37.920   1.667  11.704  0.00  0.00     0.089 C 
ATOM      5  O4' U5P d          37.155   0.560  11.210  0.00  0.00    -0.353 OA
ATOM      6  H4  U5P d          35.226   0.399  11.953  0.00  0.00     0.123 H 
ATOM      7  H5  U5P d          36.638   0.178  14.390  0.00  0.00     0.093 H 
ATOM      8  H7  U5P d          38.762   0.653  13.412  0.00  0.00     0.091 H 
ATOM      9  H8  U5P d          37.397   2.615  11.507  0.00  0.00     0.090 H 
ENDROOT
BRANCH   1  10
ATOM     10  N1  U5P d          36.321  -1.322  12.370  0.00  0.00    -0.280 N 
ATOM     11  C2  U5P d          35.404  -2.077  11.637  0.00  0.00     0.331 A 
ATOM     12  N3  U5P d          35.450  -3.404  11.720  0.00  0.00    -0.275 N 
ATOM     13  O2  U5P d          34.551  -1.511  10.934  0.00  0.00    -0.246 OA
ATOM     14  C4  U5P d          36.345  -4.046  12.501  0.00  0.00     0.250 A 
ATOM     15  H1  U5P d          34.800  -3.944  11.185  0.00  0.00     0.173 HD
ATOM     16  C5  U5P d          37.278  -3.317  13.240  0.00  0.00    -0.002 A 
ATOM     17  O4  U5P d          36.331  -5.297  12.544  0.00  0.00    -0.268 OA
ATOM     18  C6  U5P d          37.238  -1.929  13.146  0.00  0.00    -0.008 A 
ATOM     19  H2  U5P d          38.012  -3.817  13.870  0.00  0.00     0.094 H 
ATOM     20  H3  U5P d          37.955  -1.329  13.705  0.00  0.00     0.112 H 
ENDBRANCH   1  10
BRANCH   2  21
ATOM     21  O2' U5P d          35.652   1.881  13.638  0.00  0.00    -0.388 OA
ATOM     22  H6  U5P d          36.089   2.694  13.862  0.00  0.00     0.210 HD
ENDBRANCH   2  21
BRANCH   3  23
ATOM     23  O3' U5P d          38.299   2.578  13.953  0.00  0.00    -0.390 OA
ATOM     24  H9  U5P d          38.822   2.338  14.709  0.00  0.00     0.210 HD
ENDBRANCH   3  23
BRANCH   4  25
ATOM     25  C5' U5P d          39.298   1.729  11.055  0.00  0.00     0.059 C 
ATOM     26  H10 U5P d          40.039   2.108  11.775  0.00  0.00     0.079 H 
ATOM     27  H11 U5P d          39.274   2.386  10.173  0.00  0.00     0.079 H 
BRANCH  25  28
ATOM     28  O5' U5P d          39.625   0.401  10.669  0.00  0.00    -0.280 OA
BRANCH  28  29
ATOM     29  P   U5P d          41.066  -0.256  10.954  0.00  0.00     0.422 P 
ATOM     30  O1P U5P d          41.034  -1.596  10.247  0.00  0.00    -0.617 OA
ATOM     31  O2P U5P d          41.155  -0.344  12.463  0.00  0.00    -0.617 OA
ATOM     32  O3P U5P d          41.997   0.773  10.357  0.00  0.00    -0.617 OA
ENDBRANCH  28  29
ENDBRANCH  25  28
ENDBRANCH   4  25
TORSDOF 6
ENDMDL
