MODEL 1
REMARK VINA RESULT:      -9.5      0.000      0.000
REMARK  6 active torsions:
REMARK  status: ('A' for Active; 'I' for Inactive)
REMARK    1  A    between atoms: C2_2  and  O5_5 
REMARK    2  A    between atoms: O5_5  and  C6_6 
REMARK    3  A    between atoms: C11_9  and  N16_12 
REMARK    4  A    between atoms: N16_12  and  C18_13 
REMARK    5  A    between atoms: C23_17  and  C26_19 
REMARK    6  A    between atoms: C29_21  and  C36_25 
REMARK       I    between atoms: C36_25  and  N38_27 
ROOT
ATOM      1  C18 STJ d          20.715  44.237  54.463  0.00  0.00     0.131 A 
ATOM      2  N19 STJ d          20.732  44.222  55.825  0.00  0.00    -0.224 NA
ATOM      3  C20 STJ d          21.896  44.300  56.516  0.00  0.00     0.089 A 
ATOM      4  N22 STJ d          23.073  44.389  55.851  0.00  0.00    -0.241 NA
ATOM      5  C23 STJ d          23.118  44.405  54.494  0.00  0.00     0.072 A 
ATOM      6  C24 STJ d          21.918  44.324  53.765  0.00  0.00    -0.010 A 
ATOM      7  H6  STJ d          21.885  44.290  57.600  0.00  0.00     0.146 H 
ATOM      8  H7  STJ d          21.929  44.329  52.681  0.00  0.00     0.093 H 
ENDROOT
BRANCH   1   9
ATOM      9  N16 STJ d          19.570  44.165  53.734  0.00  0.00    -0.341 N 
ATOM     10  H5  STJ d          18.899  44.930  53.891  0.00  0.00     0.167 HD
BRANCH   9  11
ATOM     11  C11 STJ d          19.184  43.234  52.832  0.00  0.00     0.033 A 
ATOM     12  C9  STJ d          19.992  42.739  51.804  0.00  0.00    -0.055 A 
ATOM     13  C7  STJ d          19.501  41.785  50.908  0.00  0.00    -0.048 A 
ATOM     14  H2  STJ d          21.010  43.099  51.702  0.00  0.00     0.087 H 
ATOM     15  C6  STJ d          18.172  41.323  51.028  0.00  0.00     0.078 A 
ATOM     16  H1  STJ d          20.141  41.401  50.122  0.00  0.00     0.087 H 
ATOM     17  C14 STJ d          17.356  41.827  52.036  0.00  0.00    -0.048 A 
ATOM     18  C12 STJ d          17.854  42.779  52.934  0.00  0.00    -0.055 A 
ATOM     19  H4  STJ d          16.332  41.482  52.127  0.00  0.00     0.087 H 
ATOM     20  H3  STJ d          17.211  43.170  53.715  0.00  0.00     0.087 H 
BRANCH  15  21
ATOM     21  O5  STJ d          17.649  40.384  50.134  0.00  0.00    -0.255 OA
BRANCH  21  22
ATOM     22  C2  STJ d          17.377  39.068  50.578  0.00  0.00     0.530 C 
ATOM     23  F1  STJ d          16.823  38.418  49.526  0.00  0.00    -0.144 F 
ATOM     24  F3  STJ d          16.523  39.115  51.639  0.00  0.00    -0.144 F 
ATOM     25  F4  STJ d          18.540  38.468  50.945  0.00  0.00    -0.144 F 
ENDBRANCH  21  22
ENDBRANCH  15  21
ENDBRANCH   9  11
ENDBRANCH   1   9
BRANCH   5  26
ATOM     26  C26 STJ d          24.432  44.493  53.818  0.00  0.00    -0.006 A 
ATOM     27  C27 STJ d          24.462  45.076  52.547  0.00  0.00    -0.056 A 
ATOM     28  C29 STJ d          25.654  45.213  51.835  0.00  0.00     0.032 A 
ATOM     29  H8  STJ d          23.538  45.430  52.105  0.00  0.00     0.086 H 
ATOM     30  C30 STJ d          26.854  44.745  52.403  0.00  0.00    -0.068 A 
ATOM     31  C32 STJ d          26.836  44.154  53.680  0.00  0.00    -0.081 A 
ATOM     32  H9  STJ d          27.787  44.838  51.858  0.00  0.00     0.085 H 
ATOM     33  C34 STJ d          25.626  44.028  54.392  0.00  0.00    -0.071 A 
ATOM     34  H10 STJ d          27.759  43.795  54.120  0.00  0.00     0.083 H 
ATOM     35  H11 STJ d          25.617  43.573  55.376  0.00  0.00     0.084 H 
BRANCH  28  36
ATOM     36  C36 STJ d          25.523  45.866  50.473  0.00  0.00     0.249 C 
ATOM     37  O37 STJ d          25.991  45.261  49.522  0.00  0.00    -0.268 OA
ATOM     38  N38 STJ d          24.960  47.085  50.309  0.00  0.00    -0.366 N 
ATOM     39  H12 STJ d          24.890  47.485  49.396  0.00  0.00     0.159 HD
ATOM     40  H13 STJ d          24.612  47.585  51.103  0.00  0.00     0.159 HD
ENDBRANCH  28  36
ENDBRANCH   5  26
TORSDOF 6
ENDMDL
MODEL 2
REMARK VINA RESULT:      -8.7      1.578      1.716
REMARK  6 active torsions:
REMARK  status: ('A' for Active; 'I' for Inactive)
REMARK    1  A    between atoms: C2_2  and  O5_5 
REMARK    2  A    between atoms: O5_5  and  C6_6 
REMARK    3  A    between atoms: C11_9  and  N16_12 
REMARK    4  A    between atoms: N16_12  and  C18_13 
REMARK    5  A    between atoms: C23_17  and  C26_19 
REMARK    6  A    between atoms: C29_21  and  C36_25 
REMARK       I    between atoms: C36_25  and  N38_27 
ROOT
ATOM      1  C18 STJ d          21.041  44.635  55.784  0.00  0.00     0.131 A 
ATOM      2  N19 STJ d          21.286  44.332  57.089  0.00  0.00    -0.224 NA
ATOM      3  C20 STJ d          22.485  44.604  57.663  0.00  0.00     0.089 A 
ATOM      4  N22 STJ d          23.469  45.182  56.932  0.00  0.00    -0.241 NA
ATOM      5  C23 STJ d          23.282  45.503  55.626  0.00  0.00     0.072 A 
ATOM      6  C24 STJ d          22.045  45.225  55.019  0.00  0.00    -0.010 A 
ATOM      7  H6  STJ d          22.656  44.359  58.705  0.00  0.00     0.146 H 
ATOM      8  H7  STJ d          21.875  45.467  53.976  0.00  0.00     0.093 H 
ENDROOT
BRANCH   1   9
ATOM      9  N16 STJ d          19.853  44.381  55.174  0.00  0.00    -0.341 N 
ATOM     10  H5  STJ d          19.034  44.844  55.596  0.00  0.00     0.167 HD
BRANCH   9  11
ATOM     11  C11 STJ d          19.589  43.612  54.094  0.00  0.00     0.033 A 
ATOM     12  C9  STJ d          20.537  43.224  53.143  0.00  0.00    -0.055 A 
ATOM     13  C7  STJ d          20.169  42.436  52.049  0.00  0.00    -0.048 A 
ATOM     14  H2  STJ d          21.569  43.537  53.256  0.00  0.00     0.087 H 
ATOM     15  C6  STJ d          18.823  42.036  51.889  0.00  0.00     0.078 A 
ATOM     16  H1  STJ d          20.915  42.132  51.324  0.00  0.00     0.087 H 
ATOM     17  C14 STJ d          17.871  42.437  52.821  0.00  0.00    -0.048 A 
ATOM     18  C12 STJ d          18.247  43.222  53.918  0.00  0.00    -0.055 A 
ATOM     19  H4  STJ d          16.835  42.140  52.698  0.00  0.00     0.087 H 
ATOM     20  H3  STJ d          17.498  43.533  54.639  0.00  0.00     0.087 H 
BRANCH  15  21
ATOM     21  O5  STJ d          18.423  41.264  50.794  0.00  0.00    -0.255 OA
BRANCH  21  22
ATOM     22  C2  STJ d          18.103  39.899  50.978  0.00  0.00     0.530 C 
ATOM     23  F1  STJ d          16.751  39.831  51.044  0.00  0.00    -0.144 F 
ATOM     24  F3  STJ d          18.680  39.448  52.127  0.00  0.00    -0.144 F 
ATOM     25  F4  STJ d          18.561  39.183  49.918  0.00  0.00    -0.144 F 
ENDBRANCH  21  22
ENDBRANCH  15  21
ENDBRANCH   9  11
ENDBRANCH   1   9
BRANCH   5  26
ATOM     26  C26 STJ d          24.394  46.124  54.871  0.00  0.00    -0.006 A 
ATOM     27  C27 STJ d          24.483  45.835  53.505  0.00  0.00    -0.056 A 
ATOM     28  C29 STJ d          25.490  46.381  52.708  0.00  0.00     0.032 A 
ATOM     29  H8  STJ d          23.754  45.172  53.056  0.00  0.00     0.086 H 
ATOM     30  C30 STJ d          26.446  47.234  53.292  0.00  0.00    -0.068 A 
ATOM     31  C32 STJ d          26.368  47.530  54.666  0.00  0.00    -0.081 A 
ATOM     32  H9  STJ d          27.238  47.660  52.687  0.00  0.00     0.085 H 
ATOM     33  C34 STJ d          25.342  46.977  55.459  0.00  0.00    -0.071 A 
ATOM     34  H10 STJ d          27.101  48.189  55.117  0.00  0.00     0.083 H 
ATOM     35  H11 STJ d          25.285  47.209  56.516  0.00  0.00     0.084 H 
BRANCH  28  36
ATOM     36  C36 STJ d          25.451  45.975  51.248  0.00  0.00     0.249 C 
ATOM     37  O37 STJ d          25.897  44.874  50.969  0.00  0.00    -0.268 OA
ATOM     38  N38 STJ d          24.991  46.802  50.282  0.00  0.00    -0.366 N 
ATOM     39  H12 STJ d          24.980  46.500  49.329  0.00  0.00     0.159 HD
ATOM     40  H13 STJ d          24.661  47.715  50.522  0.00  0.00     0.159 HD
ENDBRANCH  28  36
ENDBRANCH   5  26
TORSDOF 6
ENDMDL
MODEL 3
REMARK VINA RESULT:      -7.6      4.469      8.491
REMARK  6 active torsions:
REMARK  status: ('A' for Active; 'I' for Inactive)
REMARK    1  A    between atoms: C2_2  and  O5_5 
REMARK    2  A    between atoms: O5_5  and  C6_6 
REMARK    3  A    between atoms: C11_9  and  N16_12 
REMARK    4  A    between atoms: N16_12  and  C18_13 
REMARK    5  A    between atoms: C23_17  and  C26_19 
REMARK    6  A    between atoms: C29_21  and  C36_25 
REMARK       I    between atoms: C36_25  and  N38_27 
ROOT
ATOM      1  C18 STJ d          20.964  43.677  54.746  0.00  0.00     0.131 A 
ATOM      2  N19 STJ d          19.851  44.189  55.340  0.00  0.00    -0.224 NA
ATOM      3  C20 STJ d          18.608  43.876  54.897  0.00  0.00     0.089 A 
ATOM      4  N22 STJ d          18.456  43.042  53.840  0.00  0.00    -0.241 NA
ATOM      5  C23 STJ d          19.529  42.503  53.207  0.00  0.00     0.072 A 
ATOM      6  C24 STJ d          20.824  42.821  53.654  0.00  0.00    -0.010 A 
ATOM      7  H6  STJ d          17.736  44.293  55.388  0.00  0.00     0.146 H 
ATOM      8  H7  STJ d          21.696  42.408  53.161  0.00  0.00     0.093 H 
ENDROOT
BRANCH   1   9
ATOM      9  N16 STJ d          22.226  43.963  55.161  0.00  0.00    -0.341 N 
ATOM     10  H5  STJ d          22.514  43.509  56.040  0.00  0.00     0.167 HD
BRANCH   9  11
ATOM     11  C11 STJ d          23.159  44.757  54.588  0.00  0.00     0.033 A 
ATOM     12  C9  STJ d          23.645  45.942  55.146  0.00  0.00    -0.055 A 
ATOM     13  C7  STJ d          24.603  46.707  54.473  0.00  0.00    -0.048 A 
ATOM     14  H2  STJ d          23.276  46.273  56.110  0.00  0.00     0.087 H 
ATOM     15  C6  STJ d          25.078  46.289  53.210  0.00  0.00     0.078 A 
ATOM     16  H1  STJ d          24.981  47.619  54.920  0.00  0.00     0.087 H 
ATOM     17  C14 STJ d          24.582  45.120  52.640  0.00  0.00    -0.048 A 
ATOM     18  C12 STJ d          23.627  44.356  53.321  0.00  0.00    -0.055 A 
ATOM     19  H4  STJ d          24.937  44.800  51.667  0.00  0.00     0.087 H 
ATOM     20  H3  STJ d          23.243  43.448  52.869  0.00  0.00     0.087 H 
BRANCH  15  21
ATOM     21  O5  STJ d          26.021  47.044  52.506  0.00  0.00    -0.255 OA
BRANCH  21  22
ATOM     22  C2  STJ d          25.588  47.998  51.555  0.00  0.00     0.530 C 
ATOM     23  F1  STJ d          26.708  48.589  51.072  0.00  0.00    -0.144 F 
ATOM     24  F3  STJ d          24.769  48.903  52.161  0.00  0.00    -0.144 F 
ATOM     25  F4  STJ d          24.920  47.365  50.555  0.00  0.00    -0.144 F 
ENDBRANCH  21  22
ENDBRANCH  15  21
ENDBRANCH   9  11
ENDBRANCH   1   9
BRANCH   5  26
ATOM     26  C26 STJ d          19.308  41.606  52.050  0.00  0.00    -0.006 A 
ATOM     27  C27 STJ d          18.190  40.766  52.093  0.00  0.00    -0.056 A 
ATOM     28  C29 STJ d          17.892  39.893  51.047  0.00  0.00     0.032 A 
ATOM     29  H8  STJ d          17.541  40.794  52.960  0.00  0.00     0.086 H 
ATOM     30  C30 STJ d          18.741  39.847  49.924  0.00  0.00    -0.068 A 
ATOM     31  C32 STJ d          19.870  40.687  49.870  0.00  0.00    -0.081 A 
ATOM     32  H9  STJ d          18.526  39.169  49.106  0.00  0.00     0.085 H 
ATOM     33  C34 STJ d          20.156  41.568  50.931  0.00  0.00    -0.071 A 
ATOM     34  H10 STJ d          20.523  40.655  49.005  0.00  0.00     0.083 H 
ATOM     35  H11 STJ d          21.026  42.213  50.885  0.00  0.00     0.084 H 
BRANCH  28  36
ATOM     36  C36 STJ d          16.648  39.050  51.241  0.00  0.00     0.249 C 
ATOM     37  O37 STJ d          16.212  38.472  50.259  0.00  0.00    -0.268 OA
ATOM     38  N38 STJ d          16.011  38.970  52.432  0.00  0.00    -0.366 N 
ATOM     39  H12 STJ d          15.192  38.404  52.524  0.00  0.00     0.159 HD
ATOM     40  H13 STJ d          16.359  39.477  53.220  0.00  0.00     0.159 HD
ENDBRANCH  28  36
ENDBRANCH   5  26
TORSDOF 6
ENDMDL
MODEL 4
REMARK VINA RESULT:      -7.5      2.101      2.901
REMARK  6 active torsions:
REMARK  status: ('A' for Active; 'I' for Inactive)
REMARK    1  A    between atoms: C2_2  and  O5_5 
REMARK    2  A    between atoms: O5_5  and  C6_6 
REMARK    3  A    between atoms: C11_9  and  N16_12 
REMARK    4  A    between atoms: N16_12  and  C18_13 
REMARK    5  A    between atoms: C23_17  and  C26_19 
REMARK    6  A    between atoms: C29_21  and  C36_25 
REMARK       I    between atoms: C36_25  and  N38_27 
ROOT
ATOM      1  C18 STJ d          23.111  44.981  55.667  0.00  0.00     0.131 A 
ATOM      2  N19 STJ d          23.973  44.589  56.647  0.00  0.00    -0.224 NA
ATOM      3  C20 STJ d          25.265  45.001  56.656  0.00  0.00     0.089 A 
ATOM      4  N22 STJ d          25.723  45.814  55.674  0.00  0.00    -0.241 NA
ATOM      5  C23 STJ d          24.911  46.235  54.670  0.00  0.00     0.072 A 
ATOM      6  C24 STJ d          23.569  45.814  54.648  0.00  0.00    -0.010 A 
ATOM      7  H6  STJ d          25.931  44.679  57.448  0.00  0.00     0.146 H 
ATOM      8  H7  STJ d          22.904  46.131  53.853  0.00  0.00     0.093 H 
ENDROOT
BRANCH   1   9
ATOM      9  N16 STJ d          21.810  44.593  55.624  0.00  0.00    -0.341 N 
ATOM     10  H5  STJ d          21.273  44.756  56.489  0.00  0.00     0.167 HD
BRANCH   9  11
ATOM     11  C11 STJ d          21.116  44.025  54.612  0.00  0.00     0.033 A 
ATOM     12  C9  STJ d          21.688  43.511  53.446  0.00  0.00    -0.055 A 
ATOM     13  C7  STJ d          20.888  42.953  52.445  0.00  0.00    -0.048 A 
ATOM     14  H2  STJ d          22.764  43.545  53.316  0.00  0.00     0.087 H 
ATOM     15  C6  STJ d          19.484  42.918  52.601  0.00  0.00     0.078 A 
ATOM     16  H1  STJ d          21.344  42.547  51.549  0.00  0.00     0.087 H 
ATOM     17  C14 STJ d          18.907  43.447  53.752  0.00  0.00    -0.048 A 
ATOM     18  C12 STJ d          19.714  44.001  54.753  0.00  0.00    -0.055 A 
ATOM     19  H4  STJ d          17.830  43.431  53.872  0.00  0.00     0.087 H 
ATOM     20  H3  STJ d          19.256  44.414  55.645  0.00  0.00     0.087 H 
BRANCH  15  21
ATOM     21  O5  STJ d          18.659  42.383  51.608  0.00  0.00    -0.255 OA
BRANCH  21  22
ATOM     22  C2  STJ d          18.644  40.986  51.385  0.00  0.00     0.530 C 
ATOM     23  F1  STJ d          17.545  40.733  50.632  0.00  0.00    -0.144 F 
ATOM     24  F3  STJ d          18.590  40.336  52.581  0.00  0.00    -0.144 F 
ATOM     25  F4  STJ d          19.769  40.627  50.712  0.00  0.00    -0.144 F 
ENDBRANCH  21  22
ENDBRANCH  15  21
ENDBRANCH   9  11
ENDBRANCH   1   9
BRANCH   5  26
ATOM     26  C26 STJ d          25.465  47.114  53.616  0.00  0.00    -0.006 A 
ATOM     27  C27 STJ d          25.716  46.540  52.365  0.00  0.00    -0.056 A 
ATOM     28  C29 STJ d          26.227  47.290  51.307  0.00  0.00     0.032 A 
ATOM     29  H8  STJ d          25.508  45.487  52.216  0.00  0.00     0.086 H 
ATOM     30  C30 STJ d          26.509  48.656  51.502  0.00  0.00    -0.068 A 
ATOM     31  C32 STJ d          26.262  49.245  52.756  0.00  0.00    -0.081 A 
ATOM     32  H9  STJ d          26.913  49.250  50.690  0.00  0.00     0.085 H 
ATOM     33  C34 STJ d          25.739  48.477  53.816  0.00  0.00    -0.071 A 
ATOM     34  H10 STJ d          26.475  50.297  52.908  0.00  0.00     0.083 H 
ATOM     35  H11 STJ d          25.550  48.936  54.780  0.00  0.00     0.084 H 
BRANCH  28  36
ATOM     36  C36 STJ d          26.443  46.525  50.016  0.00  0.00     0.249 C 
ATOM     37  O37 STJ d          27.033  47.107  49.120  0.00  0.00    -0.268 OA
ATOM     38  N38 STJ d          25.969  45.272  49.833  0.00  0.00    -0.366 N 
ATOM     39  H12 STJ d          26.131  44.797  48.968  0.00  0.00     0.159 HD
ATOM     40  H13 STJ d          25.457  44.820  50.564  0.00  0.00     0.159 HD
ENDBRANCH  28  36
ENDBRANCH   5  26
TORSDOF 6
ENDMDL
MODEL 5
REMARK VINA RESULT:      -7.1      4.689      8.421
REMARK  6 active torsions:
REMARK  status: ('A' for Active; 'I' for Inactive)
REMARK    1  A    between atoms: C2_2  and  O5_5 
REMARK    2  A    between atoms: O5_5  and  C6_6 
REMARK    3  A    between atoms: C11_9  and  N16_12 
REMARK    4  A    between atoms: N16_12  and  C18_13 
REMARK    5  A    between atoms: C23_17  and  C26_19 
REMARK    6  A    between atoms: C29_21  and  C36_25 
REMARK       I    between atoms: C36_25  and  N38_27 
ROOT
ATOM      1  C18 STJ d          22.895  43.754  54.385  0.00  0.00     0.131 A 
ATOM      2  N19 STJ d          22.616  44.308  55.597  0.00  0.00    -0.224 NA
ATOM      3  C20 STJ d          21.351  44.339  56.084  0.00  0.00     0.089 A 
ATOM      4  N22 STJ d          20.333  43.818  55.357  0.00  0.00    -0.241 NA
ATOM      5  C23 STJ d          20.551  43.255  54.141  0.00  0.00     0.072 A 
ATOM      6  C24 STJ d          21.858  43.218  53.624  0.00  0.00    -0.010 A 
ATOM      7  H6  STJ d          21.153  44.781  57.054  0.00  0.00     0.146 H 
ATOM      8  H7  STJ d          22.055  42.780  52.652  0.00  0.00     0.093 H 
ENDROOT
BRANCH   1   9
ATOM      9  N16 STJ d          24.149  43.701  53.864  0.00  0.00    -0.341 N 
ATOM     10  H5  STJ d          24.628  42.794  53.962  0.00  0.00     0.167 HD
BRANCH   9  11
ATOM     11  C11 STJ d          24.859  44.664  53.234  0.00  0.00     0.033 A 
ATOM     12  C9  STJ d          25.882  44.423  52.312  0.00  0.00    -0.055 A 
ATOM     13  C7  STJ d          26.572  45.485  51.720  0.00  0.00    -0.048 A 
ATOM     14  H2  STJ d          26.143  43.403  52.054  0.00  0.00     0.087 H 
ATOM     15  C6  STJ d          26.247  46.816  52.062  0.00  0.00     0.078 A 
ATOM     16  H1  STJ d          27.356  45.286  50.998  0.00  0.00     0.087 H 
ATOM     17  C14 STJ d          25.243  47.061  52.995  0.00  0.00    -0.048 A 
ATOM     18  C12 STJ d          24.552  45.994  53.582  0.00  0.00    -0.055 A 
ATOM     19  H4  STJ d          24.996  48.081  53.268  0.00  0.00     0.087 H 
ATOM     20  H3  STJ d          23.774  46.193  54.310  0.00  0.00     0.087 H 
BRANCH  15  21
ATOM     21  O5  STJ d          26.933  47.896  51.500  0.00  0.00    -0.255 OA
BRANCH  21  22
ATOM     22  C2  STJ d          26.527  48.410  50.246  0.00  0.00     0.530 C 
ATOM     23  F1  STJ d          27.035  49.664  50.165  0.00  0.00    -0.144 F 
ATOM     24  F3  STJ d          25.166  48.419  50.179  0.00  0.00    -0.144 F 
ATOM     25  F4  STJ d          27.035  47.630  49.255  0.00  0.00    -0.144 F 
ENDBRANCH  21  22
ENDBRANCH  15  21
ENDBRANCH   9  11
ENDBRANCH   1   9
BRANCH   5  26
ATOM     26  C26 STJ d          19.402  42.709  53.384  0.00  0.00    -0.006 A 
ATOM     27  C27 STJ d          19.683  41.812  52.348  0.00  0.00    -0.056 A 
ATOM     28  C29 STJ d          18.667  41.237  51.585  0.00  0.00     0.032 A 
ATOM     29  H8  STJ d          20.714  41.558  52.133  0.00  0.00     0.086 H 
ATOM     30  C30 STJ d          17.326  41.574  51.855  0.00  0.00    -0.068 A 
ATOM     31  C32 STJ d          17.031  42.477  52.893  0.00  0.00    -0.081 A 
ATOM     32  H9  STJ d          16.526  41.140  51.266  0.00  0.00     0.085 H 
ATOM     33  C34 STJ d          18.067  43.047  53.661  0.00  0.00    -0.071 A 
ATOM     34  H10 STJ d          16.000  42.736  53.104  0.00  0.00     0.083 H 
ATOM     35  H11 STJ d          17.835  43.741  54.460  0.00  0.00     0.084 H 
BRANCH  28  36
ATOM     36  C36 STJ d          19.131  40.284  50.501  0.00  0.00     0.249 C 
ATOM     37  O37 STJ d          20.288  40.389  50.131  0.00  0.00    -0.268 OA
ATOM     38  N38 STJ d          18.299  39.384  49.929  0.00  0.00    -0.366 N 
ATOM     39  H12 STJ d          18.639  38.771  49.217  0.00  0.00     0.159 HD
ATOM     40  H13 STJ d          17.343  39.333  50.218  0.00  0.00     0.159 HD
ENDBRANCH  28  36
ENDBRANCH   5  26
TORSDOF 6
ENDMDL
MODEL 6
REMARK VINA RESULT:      -6.8      5.837      9.368
REMARK  6 active torsions:
REMARK  status: ('A' for Active; 'I' for Inactive)
REMARK    1  A    between atoms: C2_2  and  O5_5 
REMARK    2  A    between atoms: O5_5  and  C6_6 
REMARK    3  A    between atoms: C11_9  and  N16_12 
REMARK    4  A    between atoms: N16_12  and  C18_13 
REMARK    5  A    between atoms: C23_17  and  C26_19 
REMARK    6  A    between atoms: C29_21  and  C36_25 
REMARK       I    between atoms: C36_25  and  N38_27 
ROOT
ATOM      1  C18 STJ d          21.211  44.161  55.379  0.00  0.00     0.131 A 
ATOM      2  N19 STJ d          22.410  44.060  54.741  0.00  0.00    -0.224 NA
ATOM      3  C20 STJ d          22.517  43.452  53.533  0.00  0.00     0.089 A 
ATOM      4  N22 STJ d          21.418  42.926  52.941  0.00  0.00    -0.241 NA
ATOM      5  C23 STJ d          20.197  42.994  53.531  0.00  0.00     0.072 A 
ATOM      6  C24 STJ d          20.072  43.620  54.784  0.00  0.00    -0.010 A 
ATOM      7  H6  STJ d          23.481  43.388  53.042  0.00  0.00     0.146 H 
ATOM      8  H7  STJ d          19.109  43.681  55.278  0.00  0.00     0.093 H 
ENDROOT
BRANCH   1   9
ATOM      9  N16 STJ d          21.062  44.764  56.588  0.00  0.00    -0.341 N 
ATOM     10  H5  STJ d          20.095  44.808  56.941  0.00  0.00     0.167 HD
BRANCH   9  11
ATOM     11  C11 STJ d          21.997  45.315  57.394  0.00  0.00     0.033 A 
ATOM     12  C9  STJ d          22.687  44.628  58.396  0.00  0.00    -0.055 A 
ATOM     13  C7  STJ d          23.630  45.285  59.192  0.00  0.00    -0.048 A 
ATOM     14  H2  STJ d          22.489  43.574  58.558  0.00  0.00     0.087 H 
ATOM     15  C6  STJ d          23.883  46.661  58.996  0.00  0.00     0.078 A 
ATOM     16  H1  STJ d          24.167  44.739  59.959  0.00  0.00     0.087 H 
ATOM     17  C14 STJ d          23.183  47.355  58.013  0.00  0.00    -0.048 A 
ATOM     18  C12 STJ d          22.243  46.691  57.215  0.00  0.00    -0.055 A 
ATOM     19  H4  STJ d          23.367  48.414  57.864  0.00  0.00     0.087 H 
ATOM     20  H3  STJ d          21.700  47.240  56.454  0.00  0.00     0.087 H 
BRANCH  15  21
ATOM     21  O5  STJ d          24.806  47.348  59.789  0.00  0.00    -0.255 OA
BRANCH  21  22
ATOM     22  C2  STJ d          26.131  47.527  59.327  0.00  0.00     0.530 C 
ATOM     23  F1  STJ d          26.083  47.412  57.978  0.00  0.00    -0.144 F 
ATOM     24  F3  STJ d          26.936  46.576  59.880  0.00  0.00    -0.144 F 
ATOM     25  F4  STJ d          26.567  48.765  59.680  0.00  0.00    -0.144 F 
ENDBRANCH  21  22
ENDBRANCH  15  21
ENDBRANCH   9  11
ENDBRANCH   1   9
BRANCH   5  26
ATOM     26  C26 STJ d          19.031  42.393  52.846  0.00  0.00    -0.006 A 
ATOM     27  C27 STJ d          19.283  41.367  51.929  0.00  0.00    -0.056 A 
ATOM     28  C29 STJ d          18.248  40.733  51.241  0.00  0.00     0.032 A 
ATOM     29  H8  STJ d          20.305  41.058  51.748  0.00  0.00     0.086 H 
ATOM     30  C30 STJ d          16.919  41.140  51.465  0.00  0.00    -0.068 A 
ATOM     31  C32 STJ d          16.653  42.173  52.384  0.00  0.00    -0.081 A 
ATOM     32  H9  STJ d          16.105  40.661  50.933  0.00  0.00     0.085 H 
ATOM     33  C34 STJ d          17.707  42.801  53.077  0.00  0.00    -0.071 A 
ATOM     34  H10 STJ d          15.631  42.486  52.560  0.00  0.00     0.083 H 
ATOM     35  H11 STJ d          17.497  43.595  53.785  0.00  0.00     0.084 H 
BRANCH  28  36
ATOM     36  C36 STJ d          18.681  39.640  50.284  0.00  0.00     0.249 C 
ATOM     37  O37 STJ d          19.570  39.917  49.494  0.00  0.00    -0.268 OA
ATOM     38  N38 STJ d          18.088  38.425  50.262  0.00  0.00    -0.366 N 
ATOM     39  H12 STJ d          18.400  37.728  49.616  0.00  0.00     0.159 HD
ATOM     40  H13 STJ d          17.337  38.224  50.891  0.00  0.00     0.159 HD
ENDBRANCH  28  36
ENDBRANCH   5  26
TORSDOF 6
ENDMDL
