MODEL 1
REMARK VINA RESULT:      -8.0      0.000      0.000
REMARK  4 active torsions:
REMARK  status: ('A' for Active; 'I' for Inactive)
REMARK    1  A    between atoms: CA_2  and  N_1 
REMARK    2  A    between atoms: CA_2  and  CB_5 
REMARK    3  A    between atoms: CA_2  and  C_3 
REMARK    4  A    between atoms: CB_5  and  CG_6 
ROOT
ATOM      1  CG  TRP d         -27.472  -4.783 -21.892  0.00  0.00    -0.028 A 
ATOM      2  CD1 TRP d         -27.968  -5.698 -22.784  0.00  0.00    -0.015 A 
ATOM      3  CD2 TRP d         -28.368  -3.664 -21.926  0.00  0.00    -0.002 A 
ATOM      4  NE1 TRP d         -29.118  -5.221 -23.362  0.00  0.00    -0.365 N 
ATOM      5  CE2 TRP d         -29.395  -3.980 -22.853  0.00  0.00     0.042 A 
ATOM      6  CE3 TRP d         -28.414  -2.437 -21.250  0.00  0.00    -0.070 A 
ATOM      7  CZ2 TRP d         -30.449  -3.108 -23.139  0.00  0.00    -0.056 A 
ATOM      8  CZ3 TRP d         -29.465  -1.563 -21.532  0.00  0.00    -0.082 A 
ATOM      9  CH2 TRP d         -30.478  -1.912 -22.472  0.00  0.00    -0.081 A 
ATOM     10  H7  TRP d         -27.515  -6.664 -23.002  0.00  0.00     0.112 H 
ATOM     11  H8  TRP d         -29.682  -5.717 -24.067  0.00  0.00     0.165 HD
ATOM     12  H9  TRP d         -27.651  -2.173 -20.527  0.00  0.00     0.084 H 
ATOM     13  H10 TRP d         -31.214  -3.369 -23.861  0.00  0.00     0.086 H 
ATOM     14  H11 TRP d         -29.511  -0.604 -21.029  0.00  0.00     0.083 H 
ATOM     15  H12 TRP d         -31.288  -1.217 -22.662  0.00  0.00     0.083 H 
ENDROOT
BRANCH   1  16
ATOM     16  CB  TRP d         -26.262  -4.936 -21.039  0.00  0.00    -0.003 C 
ATOM     17  H5  TRP d         -26.027  -6.008 -20.971  0.00  0.00     0.044 H 
ATOM     18  H6  TRP d         -25.430  -4.410 -21.532  0.00  0.00     0.044 H 
BRANCH  16  19
ATOM     19  CA  TRP d         -26.391  -4.385 -19.609  0.00  0.00     0.186 C 
ATOM     20  H4  TRP d         -27.253  -3.702 -19.563  0.00  0.00     0.101 H 
BRANCH  19  21
ATOM     21  N   TRP d         -25.196  -3.635 -19.258  0.00  0.00    -0.065 N 
ATOM     22  H1  TRP d         -24.478  -3.808 -19.943  0.00  0.00     0.275 HD
ATOM     23  H2  TRP d         -24.871  -3.927 -18.349  0.00  0.00     0.275 HD
ATOM     24  H3  TRP d         -25.411  -2.651 -19.238  0.00  0.00     0.275 HD
ENDBRANCH  19  21
BRANCH  19  25
ATOM     25  C   TRP d         -26.650  -5.559 -18.657  0.00  0.00     0.204 C 
ATOM     26  O   TRP d         -27.667  -6.242 -18.728  0.00  0.00    -0.646 OA
ATOM     27  OXT TRP d         -25.831  -5.876 -17.794  0.00  0.00    -0.646 OA
ENDBRANCH  19  25
ENDBRANCH  16  19
ENDBRANCH   1  16
TORSDOF 4
ENDMDL
MODEL 2
REMARK VINA RESULT:      -7.8      1.599      1.912
REMARK  4 active torsions:
REMARK  status: ('A' for Active; 'I' for Inactive)
REMARK    1  A    between atoms: CA_2  and  N_1 
REMARK    2  A    between atoms: CA_2  and  CB_5 
REMARK    3  A    between atoms: CA_2  and  C_3 
REMARK    4  A    between atoms: CB_5  and  CG_6 
ROOT
ATOM      1  CG  TRP d         -27.342  -4.460 -21.325  0.00  0.00    -0.028 A 
ATOM      2  CD1 TRP d         -26.181  -4.249 -22.021  0.00  0.00    -0.015 A 
ATOM      3  CD2 TRP d         -28.298  -3.527 -21.848  0.00  0.00    -0.002 A 
ATOM      4  NE1 TRP d         -26.358  -3.251 -22.948  0.00  0.00    -0.365 N 
ATOM      5  CE2 TRP d         -27.646  -2.792 -22.872  0.00  0.00     0.042 A 
ATOM      6  CE3 TRP d         -29.643  -3.255 -21.565  0.00  0.00    -0.070 A 
ATOM      7  CZ2 TRP d         -28.285  -1.789 -23.606  0.00  0.00    -0.056 A 
ATOM      8  CZ3 TRP d         -30.285  -2.254 -22.295  0.00  0.00    -0.082 A 
ATOM      9  CH2 TRP d         -29.599  -1.534 -23.315  0.00  0.00    -0.081 A 
ATOM     10  H7  TRP d         -25.252  -4.794 -21.862  0.00  0.00     0.112 H 
ATOM     11  H8  TRP d         -25.636  -2.903 -23.596  0.00  0.00     0.165 HD
ATOM     12  H9  TRP d         -30.172  -3.808 -20.797  0.00  0.00     0.084 H 
ATOM     13  H10 TRP d         -27.761  -1.235 -24.375  0.00  0.00     0.086 H 
ATOM     14  H11 TRP d         -31.323  -2.021 -22.083  0.00  0.00     0.083 H 
ATOM     15  H12 TRP d         -30.128  -0.770 -23.873  0.00  0.00     0.083 H 
ENDROOT
BRANCH   1  16
ATOM     16  CB  TRP d         -27.570  -5.473 -20.260  0.00  0.00    -0.003 C 
ATOM     17  H5  TRP d         -28.616  -5.805 -20.325  0.00  0.00     0.044 H 
ATOM     18  H6  TRP d         -26.902  -6.326 -20.453  0.00  0.00     0.044 H 
BRANCH  16  19
ATOM     19  CA  TRP d         -27.315  -4.986 -18.823  0.00  0.00     0.186 C 
ATOM     20  H4  TRP d         -28.046  -5.457 -18.148  0.00  0.00     0.101 H 
BRANCH  19  21
ATOM     21  N   TRP d         -27.492  -3.545 -18.751  0.00  0.00    -0.065 N 
ATOM     22  H1  TRP d         -27.681  -3.277 -17.799  0.00  0.00     0.275 HD
ATOM     23  H2  TRP d         -28.266  -3.271 -19.337  0.00  0.00     0.275 HD
ATOM     24  H3  TRP d         -26.652  -3.087 -19.069  0.00  0.00     0.275 HD
ENDBRANCH  19  21
BRANCH  19  25
ATOM     25  C   TRP d         -25.909  -5.428 -18.402  0.00  0.00     0.204 C 
ATOM     26  O   TRP d         -24.900  -4.993 -18.947  0.00  0.00    -0.646 OA
ATOM     27  OXT TRP d         -25.738  -6.227 -17.480  0.00  0.00    -0.646 OA
ENDBRANCH  19  25
ENDBRANCH  16  19
ENDBRANCH   1  16
TORSDOF 4
ENDMDL
MODEL 3
REMARK VINA RESULT:      -6.6      2.655      4.869
REMARK  4 active torsions:
REMARK  status: ('A' for Active; 'I' for Inactive)
REMARK    1  A    between atoms: CA_2  and  N_1 
REMARK    2  A    between atoms: CA_2  and  CB_5 
REMARK    3  A    between atoms: CA_2  and  C_3 
REMARK    4  A    between atoms: CB_5  and  CG_6 
ROOT
ATOM      1  CG  TRP d         -27.585  -4.147 -22.551  0.00  0.00    -0.028 A 
ATOM      2  CD1 TRP d         -26.340  -3.606 -22.733  0.00  0.00    -0.015 A 
ATOM      3  CD2 TRP d         -27.545  -4.830 -21.290  0.00  0.00    -0.002 A 
ATOM      4  NE1 TRP d         -25.533  -3.903 -21.663  0.00  0.00    -0.365 N 
ATOM      5  CE2 TRP d         -26.242  -4.646 -20.758  0.00  0.00     0.042 A 
ATOM      6  CE3 TRP d         -28.486  -5.561 -20.552  0.00  0.00    -0.070 A 
ATOM      7  CZ2 TRP d         -25.847  -5.180 -19.529  0.00  0.00    -0.056 A 
ATOM      8  CZ3 TRP d         -28.095  -6.096 -19.324  0.00  0.00    -0.082 A 
ATOM      9  CH2 TRP d         -26.778  -5.894 -18.821  0.00  0.00    -0.081 A 
ATOM     10  H7  TRP d         -26.035  -3.024 -23.602  0.00  0.00     0.112 H 
ATOM     11  H8  TRP d         -24.550  -3.613 -21.558  0.00  0.00     0.165 HD
ATOM     12  H9  TRP d         -29.493  -5.708 -20.926  0.00  0.00     0.084 H 
ATOM     13  H10 TRP d         -24.842  -5.035 -19.150  0.00  0.00     0.086 H 
ATOM     14  H11 TRP d         -28.805  -6.675 -18.743  0.00  0.00     0.083 H 
ATOM     15  H12 TRP d         -26.507  -6.312 -17.859  0.00  0.00     0.083 H 
ENDROOT
BRANCH   1  16
ATOM     16  CB  TRP d         -28.753  -4.025 -23.466  0.00  0.00    -0.003 C 
ATOM     17  H5  TRP d         -28.419  -4.290 -24.480  0.00  0.00     0.044 H 
ATOM     18  H6  TRP d         -29.521  -4.738 -23.134  0.00  0.00     0.044 H 
BRANCH  16  19
ATOM     19  CA  TRP d         -29.396  -2.628 -23.528  0.00  0.00     0.186 C 
ATOM     20  H4  TRP d         -30.329  -2.688 -24.107  0.00  0.00     0.101 H 
BRANCH  19  21
ATOM     21  N   TRP d         -28.500  -1.701 -24.200  0.00  0.00    -0.065 N 
ATOM     22  H1  TRP d         -28.970  -0.821 -24.337  0.00  0.00     0.275 HD
ATOM     23  H2  TRP d         -28.232  -2.082 -25.094  0.00  0.00     0.275 HD
ATOM     24  H3  TRP d         -27.678  -1.559 -23.635  0.00  0.00     0.275 HD
ENDBRANCH  19  21
BRANCH  19  25
ATOM     25  C   TRP d         -29.737  -2.186 -22.100  0.00  0.00     0.204 C 
ATOM     26  O   TRP d         -29.026  -1.406 -21.474  0.00  0.00    -0.646 OA
ATOM     27  OXT TRP d         -30.754  -2.584 -21.532  0.00  0.00    -0.646 OA
ENDBRANCH  19  25
ENDBRANCH  16  19
ENDBRANCH   1  16
TORSDOF 4
ENDMDL
MODEL 4
REMARK VINA RESULT:      -6.3      1.772      2.060
REMARK  4 active torsions:
REMARK  status: ('A' for Active; 'I' for Inactive)
REMARK    1  A    between atoms: CA_2  and  N_1 
REMARK    2  A    between atoms: CA_2  and  CB_5 
REMARK    3  A    between atoms: CA_2  and  C_3 
REMARK    4  A    between atoms: CB_5  and  CG_6 
ROOT
ATOM      1  CG  TRP d         -26.777  -4.133 -21.806  0.00  0.00    -0.028 A 
ATOM      2  CD1 TRP d         -25.866  -3.402 -22.521  0.00  0.00    -0.015 A 
ATOM      3  CD2 TRP d         -28.070  -3.625 -22.165  0.00  0.00    -0.002 A 
ATOM      4  NE1 TRP d         -26.511  -2.478 -23.306  0.00  0.00    -0.365 N 
ATOM      5  CE2 TRP d         -27.862  -2.593 -23.117  0.00  0.00     0.042 A 
ATOM      6  CE3 TRP d         -29.380  -3.953 -21.790  0.00  0.00    -0.070 A 
ATOM      7  CZ2 TRP d         -28.913  -1.872 -23.689  0.00  0.00    -0.056 A 
ATOM      8  CZ3 TRP d         -30.432  -3.235 -22.360  0.00  0.00    -0.082 A 
ATOM      9  CH2 TRP d         -30.187  -2.203 -23.311  0.00  0.00    -0.081 A 
ATOM     10  H7  TRP d         -24.786  -3.534 -22.473  0.00  0.00     0.112 H 
ATOM     11  H8  TRP d         -26.051  -1.806 -23.937  0.00  0.00     0.165 HD
ATOM     12  H9  TRP d         -29.571  -4.745 -21.075  0.00  0.00     0.084 H 
ATOM     13  H10 TRP d         -28.726  -1.080 -24.405  0.00  0.00     0.086 H 
ATOM     14  H11 TRP d         -31.453  -3.466 -22.073  0.00  0.00     0.083 H 
ATOM     15  H12 TRP d         -31.025  -1.670 -23.744  0.00  0.00     0.083 H 
ENDROOT
BRANCH   1  16
ATOM     16  CB  TRP d         -26.483  -5.250 -20.867  0.00  0.00    -0.003 C 
ATOM     17  H5  TRP d         -27.312  -5.971 -20.926  0.00  0.00     0.044 H 
ATOM     18  H6  TRP d         -25.552  -5.735 -21.196  0.00  0.00     0.044 H 
BRANCH  16  19
ATOM     19  CA  TRP d         -26.312  -4.843 -19.394  0.00  0.00     0.186 C 
ATOM     20  H4  TRP d         -25.715  -3.920 -19.343  0.00  0.00     0.101 H 
BRANCH  19  21
ATOM     21  N   TRP d         -25.601  -5.885 -18.672  0.00  0.00    -0.065 N 
ATOM     22  H1  TRP d         -24.994  -6.378 -19.307  0.00  0.00     0.275 HD
ATOM     23  H2  TRP d         -26.265  -6.531 -18.273  0.00  0.00     0.275 HD
ATOM     24  H3  TRP d         -25.052  -5.470 -17.936  0.00  0.00     0.275 HD
ENDBRANCH  19  21
BRANCH  19  25
ATOM     25  C   TRP d         -27.698  -4.559 -18.803  0.00  0.00     0.204 C 
ATOM     26  O   TRP d         -28.482  -5.460 -18.522  0.00  0.00    -0.646 OA
ATOM     27  OXT TRP d         -28.071  -3.409 -18.568  0.00  0.00    -0.646 OA
ENDBRANCH  19  25
ENDBRANCH  16  19
ENDBRANCH   1  16
TORSDOF 4
ENDMDL
MODEL 5
REMARK VINA RESULT:      -6.0      3.045      4.846
REMARK  4 active torsions:
REMARK  status: ('A' for Active; 'I' for Inactive)
REMARK    1  A    between atoms: CA_2  and  N_1 
REMARK    2  A    between atoms: CA_2  and  CB_5 
REMARK    3  A    between atoms: CA_2  and  C_3 
REMARK    4  A    between atoms: CB_5  and  CG_6 
ROOT
ATOM      1  CG  TRP d         -27.563  -4.131 -21.838  0.00  0.00    -0.028 A 
ATOM      2  CD1 TRP d         -28.514  -5.102 -22.013  0.00  0.00    -0.015 A 
ATOM      3  CD2 TRP d         -26.885  -4.449 -20.614  0.00  0.00    -0.002 A 
ATOM      4  NE1 TRP d         -28.464  -6.006 -20.980  0.00  0.00    -0.365 N 
ATOM      5  CE2 TRP d         -27.473  -5.639 -20.110  0.00  0.00     0.042 A 
ATOM      6  CE3 TRP d         -25.830  -3.858 -19.907  0.00  0.00    -0.070 A 
ATOM      7  CZ2 TRP d         -27.054  -6.242 -18.921  0.00  0.00    -0.056 A 
ATOM      8  CZ3 TRP d         -25.409  -4.457 -18.719  0.00  0.00    -0.082 A 
ATOM      9  CH2 TRP d         -26.023  -5.650 -18.241  0.00  0.00    -0.081 A 
ATOM     10  H7  TRP d         -29.208  -5.149 -22.850  0.00  0.00     0.112 H 
ATOM     11  H8  TRP d         -29.075  -6.828 -20.877  0.00  0.00     0.165 HD
ATOM     12  H9  TRP d         -25.353  -2.956 -20.274  0.00  0.00     0.084 H 
ATOM     13  H10 TRP d         -27.528  -7.144 -18.552  0.00  0.00     0.086 H 
ATOM     14  H11 TRP d         -24.601  -4.007 -18.152  0.00  0.00     0.083 H 
ATOM     15  H12 TRP d         -25.667  -6.099 -17.321  0.00  0.00     0.083 H 
ENDROOT
BRANCH   1  16
ATOM     16  CB  TRP d         -27.274  -2.992 -22.751  0.00  0.00    -0.003 C 
ATOM     17  H5  TRP d         -26.221  -2.706 -22.615  0.00  0.00     0.044 H 
ATOM     18  H6  TRP d         -27.429  -3.337 -23.784  0.00  0.00     0.044 H 
BRANCH  16  19
ATOM     19  CA  TRP d         -28.139  -1.739 -22.534  0.00  0.00     0.186 C 
ATOM     20  H4  TRP d         -27.718  -0.905 -23.114  0.00  0.00     0.101 H 
BRANCH  19  21
ATOM     21  N   TRP d         -28.126  -1.368 -21.128  0.00  0.00    -0.065 N 
ATOM     22  H1  TRP d         -28.834  -0.671 -20.959  0.00  0.00     0.275 HD
ATOM     23  H2  TRP d         -27.221  -0.993 -20.888  0.00  0.00     0.275 HD
ATOM     24  H3  TRP d         -28.314  -2.181 -20.564  0.00  0.00     0.275 HD
ENDBRANCH  19  21
BRANCH  19  25
ATOM     25  C   TRP d         -29.553  -2.028 -23.053  0.00  0.00     0.204 C 
ATOM     26  O   TRP d         -29.754  -2.468 -24.180  0.00  0.00    -0.646 OA
ATOM     27  OXT TRP d         -30.544  -1.847 -22.345  0.00  0.00    -0.646 OA
ENDBRANCH  19  25
ENDBRANCH  16  19
ENDBRANCH   1  16
TORSDOF 4
ENDMDL
