MODEL 1
REMARK VINA RESULT:      -5.8      0.000      0.000
REMARK  17 active torsions:
REMARK  status: ('A' for Active; 'I' for Inactive)
REMARK    1  A    between atoms: CAJ_10  and  OAA_1 
REMARK    2  A    between atoms: CAK_11  and  OAB_2 
REMARK    3  A    between atoms: CAN_14  and  OAC_3 
REMARK    4  A    between atoms: CAO_15  and  OAD_4 
REMARK    5  A    between atoms: CAP_16  and  OAE_5 
REMARK    6  A    between atoms: CAQ_17  and  OAF_6 
REMARK    7  A    between atoms: CAR_18  and  OAG_7 
REMARK    8  A    between atoms: CAS_19  and  OAH_8 
REMARK    9  A    between atoms: CAT_20  and  OAI_9 
REMARK   10  A    between atoms: CAN_14  and  CAJ_10 
REMARK   11  A    between atoms: CAU_21  and  CAK_11 
REMARK   12  A    between atoms: CAL_12  and  CAO_15 
REMARK   13  A    between atoms: SAV_22  and  CAL_12 
REMARK   14  A    between atoms: CAQ_17  and  CAN_14 
REMARK   15  A    between atoms: CAO_15  and  CAR_18 
REMARK   16  A    between atoms: CAS_19  and  CAQ_17 
REMARK   17  A    between atoms: CAR_18  and  CAS_19 
ROOT
ATOM      1  CAO DSK d          -2.546 -20.281 -22.085  0.00  0.00     0.070 C 
ATOM      2  H19 DSK d          -1.581 -20.790 -22.221  0.00  0.00     0.088 H 
ENDROOT
BRANCH   1   3
ATOM      3  OAD DSK d          -2.804 -19.501 -23.244  0.00  0.00    -0.392 OA
ATOM      4  H4  DSK d          -3.452 -19.939 -23.782  0.00  0.00     0.210 HD
ENDBRANCH   1   3
BRANCH   1   5
ATOM      5  CAL DSK d          -3.634 -21.384 -21.895  0.00  0.00    -0.005 C 
ATOM      6  H14 DSK d          -4.384 -21.288 -22.694  0.00  0.00     0.051 H 
ATOM      7  H15 DSK d          -4.119 -21.243 -20.919  0.00  0.00     0.051 H 
BRANCH   5   8
ATOM      8  SAV DSK d          -2.915 -23.044 -21.961  0.00  0.00    -0.206 SA
ATOM      9  CAM DSK d          -2.500 -23.664 -20.279  0.00  0.00    -0.005 C 
ATOM     10  CAP DSK d          -1.123 -23.007 -20.054  0.00  0.00     0.069 C 
ATOM     11  H16 DSK d          -3.235 -23.329 -19.533  0.00  0.00     0.051 H 
ATOM     12  H17 DSK d          -2.433 -24.762 -20.259  0.00  0.00     0.051 H 
ATOM     13  CAT DSK d          -0.346 -23.343 -21.356  0.00  0.00     0.074 C 
ATOM     14  H20 DSK d          -1.229 -21.920 -19.921  0.00  0.00     0.088 H 
ATOM     15  CAU DSK d          -1.193 -22.721 -22.503  0.00  0.00     0.030 C 
ATOM     16  H24 DSK d          -0.222 -24.427 -21.495  0.00  0.00     0.088 H 
ATOM     17  H25 DSK d          -1.026 -21.633 -22.512  0.00  0.00     0.062 H 
BRANCH  10  18
ATOM     18  OAE DSK d          -0.413 -23.571 -18.910  0.00  0.00    -0.392 OA
ATOM     19  H5  DSK d          -0.974 -24.195 -18.466  0.00  0.00     0.210 HD
ENDBRANCH  10  18
BRANCH  13  20
ATOM     20  OAI DSK d           0.925 -22.689 -21.262  0.00  0.00    -0.392 OA
ATOM     21  H9  DSK d           1.206 -22.676 -20.353  0.00  0.00     0.210 HD
ENDBRANCH  13  20
BRANCH  15  22
ATOM     22  CAK DSK d          -0.845 -23.223 -23.932  0.00  0.00     0.030 C 
ATOM     23  H12 DSK d          -1.198 -24.260 -24.030  0.00  0.00     0.075 H 
ATOM     24  H13 DSK d          -1.369 -22.586 -24.660  0.00  0.00     0.075 H 
BRANCH  22  25
ATOM     25  OAB DSK d           0.554 -23.193 -24.231  0.00  0.00    -0.400 OA
ATOM     26  H2  DSK d           0.876 -22.302 -24.149  0.00  0.00     0.209 HD
ENDBRANCH  22  25
ENDBRANCH  15  22
ENDBRANCH   5   8
ENDBRANCH   1   5
BRANCH   1  27
ATOM     27  CAR DSK d          -2.420 -19.353 -20.879  0.00  0.00     0.088 C 
ATOM     28  H22 DSK d          -3.246 -19.514 -20.170  0.00  0.00     0.091 H 
BRANCH  27  29
ATOM     29  OAG DSK d          -1.141 -19.650 -20.292  0.00  0.00    -0.390 OA
ATOM     30  H7  DSK d          -0.702 -18.838 -20.065  0.00  0.00     0.210 HD
ENDBRANCH  27  29
BRANCH  27  31
ATOM     31  CAS DSK d          -2.356 -17.874 -21.328  0.00  0.00     0.090 C 
ATOM     32  H23 DSK d          -3.247 -17.663 -21.939  0.00  0.00     0.091 H 
BRANCH  31  33
ATOM     33  OAH DSK d          -1.192 -17.649 -22.121  0.00  0.00    -0.390 OA
ATOM     34  H8  DSK d          -1.427 -17.673 -23.041  0.00  0.00     0.210 HD
ENDBRANCH  31  33
BRANCH  31  35
ATOM     35  CAQ DSK d          -2.342 -16.910 -20.144  0.00  0.00     0.089 C 
ATOM     36  H21 DSK d          -2.595 -17.451 -19.221  0.00  0.00     0.091 H 
BRANCH  35  37
ATOM     37  OAF DSK d          -3.309 -15.884 -20.399  0.00  0.00    -0.390 OA
ATOM     38  H6  DSK d          -4.133 -16.283 -20.652  0.00  0.00     0.210 HD
ENDBRANCH  35  37
BRANCH  35  39
ATOM     39  CAN DSK d          -0.957 -16.245 -19.994  0.00  0.00     0.083 C 
ATOM     40  H18 DSK d          -0.172 -16.971 -20.248  0.00  0.00     0.090 H 
BRANCH  39  41
ATOM     41  OAC DSK d          -0.878 -15.124 -20.887  0.00  0.00    -0.391 OA
ATOM     42  H3  DSK d          -0.217 -15.293 -21.548  0.00  0.00     0.210 HD
ENDBRANCH  39  41
BRANCH  39  43
ATOM     43  CAJ DSK d          -0.762 -15.778 -18.545  0.00  0.00     0.043 C 
ATOM     44  H10 DSK d          -0.314 -16.588 -17.950  0.00  0.00     0.078 H 
ATOM     45  H11 DSK d          -0.102 -14.898 -18.523  0.00  0.00     0.078 H 
BRANCH  43  46
ATOM     46  OAA DSK d          -2.032 -15.438 -18.015  0.00  0.00    -0.398 OA
ATOM     47  H1  DSK d          -2.286 -14.579 -18.331  0.00  0.00     0.209 HD
ENDBRANCH  43  46
ENDBRANCH  39  43
ENDBRANCH  35  39
ENDBRANCH  31  35
ENDBRANCH  27  31
ENDBRANCH   1  27
TORSDOF 17
ENDMDL
MODEL 2
REMARK VINA RESULT:      -5.7      2.146      7.020
REMARK  17 active torsions:
REMARK  status: ('A' for Active; 'I' for Inactive)
REMARK    1  A    between atoms: CAJ_10  and  OAA_1 
REMARK    2  A    between atoms: CAK_11  and  OAB_2 
REMARK    3  A    between atoms: CAN_14  and  OAC_3 
REMARK    4  A    between atoms: CAO_15  and  OAD_4 
REMARK    5  A    between atoms: CAP_16  and  OAE_5 
REMARK    6  A    between atoms: CAQ_17  and  OAF_6 
REMARK    7  A    between atoms: CAR_18  and  OAG_7 
REMARK    8  A    between atoms: CAS_19  and  OAH_8 
REMARK    9  A    between atoms: CAT_20  and  OAI_9 
REMARK   10  A    between atoms: CAN_14  and  CAJ_10 
REMARK   11  A    between atoms: CAU_21  and  CAK_11 
REMARK   12  A    between atoms: CAL_12  and  CAO_15 
REMARK   13  A    between atoms: SAV_22  and  CAL_12 
REMARK   14  A    between atoms: CAQ_17  and  CAN_14 
REMARK   15  A    between atoms: CAO_15  and  CAR_18 
REMARK   16  A    between atoms: CAS_19  and  CAQ_17 
REMARK   17  A    between atoms: CAR_18  and  CAS_19 
ROOT
ATOM      1  CAO DSK d          -2.876 -19.684 -21.579  0.00  0.00     0.070 C 
ATOM      2  H19 DSK d          -3.946 -19.429 -21.552  0.00  0.00     0.088 H 
ENDROOT
BRANCH   1   3
ATOM      3  OAD DSK d          -2.367 -19.326 -22.856  0.00  0.00    -0.392 OA
ATOM      4  H4  DSK d          -1.444 -19.543 -22.901  0.00  0.00     0.210 HD
ENDBRANCH   1   3
BRANCH   1   5
ATOM      5  CAL DSK d          -2.174 -18.872 -20.446  0.00  0.00    -0.005 C 
ATOM      6  H14 DSK d          -1.095 -19.083 -20.471  0.00  0.00     0.051 H 
ATOM      7  H15 DSK d          -2.586 -19.184 -19.475  0.00  0.00     0.051 H 
BRANCH   5   8
ATOM      8  SAV DSK d          -2.430 -17.091 -20.648  0.00  0.00    -0.206 SA
ATOM      9  CAM DSK d          -1.062 -16.319 -21.604  0.00  0.00    -0.005 C 
ATOM     10  CAP DSK d          -0.010 -16.107 -20.496  0.00  0.00     0.069 C 
ATOM     11  H16 DSK d          -0.689 -16.991 -22.391  0.00  0.00     0.051 H 
ATOM     12  H17 DSK d          -1.372 -15.365 -22.055  0.00  0.00     0.051 H 
ATOM     13  CAT DSK d          -0.817 -15.419 -19.360  0.00  0.00     0.074 C 
ATOM     14  H20 DSK d           0.404 -17.071 -20.165  0.00  0.00     0.088 H 
ATOM     15  CAU DSK d          -1.953 -16.423 -19.008  0.00  0.00     0.030 C 
ATOM     16  H24 DSK d          -1.227 -14.448 -19.674  0.00  0.00     0.088 H 
ATOM     17  H25 DSK d          -1.525 -17.239 -18.407  0.00  0.00     0.062 H 
BRANCH  10  18
ATOM     18  OAE DSK d           1.077 -15.227 -20.914  0.00  0.00    -0.392 OA
ATOM     19  H5  DSK d           1.407 -14.753 -20.161  0.00  0.00     0.210 HD
ENDBRANCH  10  18
BRANCH  13  20
ATOM     20  OAI DSK d           0.076 -15.265 -18.251  0.00  0.00    -0.392 OA
ATOM     21  H9  DSK d           0.796 -15.881 -18.337  0.00  0.00     0.210 HD
ENDBRANCH  13  20
BRANCH  15  22
ATOM     22  CAK DSK d          -3.120 -15.834 -18.168  0.00  0.00     0.030 C 
ATOM     23  H12 DSK d          -3.912 -16.596 -18.094  0.00  0.00     0.075 H 
ATOM     24  H13 DSK d          -2.741 -15.600 -17.163  0.00  0.00     0.075 H 
BRANCH  22  25
ATOM     25  OAB DSK d          -3.690 -14.645 -18.723  0.00  0.00    -0.400 OA
ATOM     26  H2  DSK d          -4.631 -14.653 -18.589  0.00  0.00     0.209 HD
ENDBRANCH  22  25
ENDBRANCH  15  22
ENDBRANCH   5   8
ENDBRANCH   1   5
BRANCH   1  27
ATOM     27  CAR DSK d          -2.750 -21.194 -21.398  0.00  0.00     0.088 C 
ATOM     28  H22 DSK d          -1.786 -21.457 -20.936  0.00  0.00     0.091 H 
BRANCH  27  29
ATOM     29  OAG DSK d          -3.864 -21.583 -20.576  0.00  0.00    -0.390 OA
ATOM     30  H7  DSK d          -4.101 -22.482 -20.771  0.00  0.00     0.210 HD
ENDBRANCH  27  29
BRANCH  27  31
ATOM     31  CAS DSK d          -2.933 -21.926 -22.748  0.00  0.00     0.090 C 
ATOM     32  H23 DSK d          -2.351 -21.388 -23.512  0.00  0.00     0.091 H 
BRANCH  31  33
ATOM     33  OAH DSK d          -4.307 -21.922 -23.129  0.00  0.00    -0.390 OA
ATOM     34  H8  DSK d          -4.813 -21.450 -22.479  0.00  0.00     0.210 HD
ENDBRANCH  31  33
BRANCH  31  35
ATOM     35  CAQ DSK d          -2.439 -23.370 -22.695  0.00  0.00     0.089 C 
ATOM     36  H21 DSK d          -3.173 -24.032 -23.178  0.00  0.00     0.091 H 
BRANCH  35  37
ATOM     37  OAF DSK d          -2.276 -23.731 -21.319  0.00  0.00    -0.390 OA
ATOM     38  H6  DSK d          -2.209 -22.943 -20.792  0.00  0.00     0.210 HD
ENDBRANCH  35  37
BRANCH  35  39
ATOM     39  CAN DSK d          -1.071 -23.511 -23.399  0.00  0.00     0.083 C 
ATOM     40  H18 DSK d          -1.129 -24.306 -24.156  0.00  0.00     0.090 H 
BRANCH  39  41
ATOM     41  OAC DSK d          -0.746 -22.267 -24.037  0.00  0.00    -0.391 OA
ATOM     42  H3  DSK d          -0.616 -21.597 -23.376  0.00  0.00     0.210 HD
ENDBRANCH  39  41
BRANCH  39  43
ATOM     43  CAJ DSK d           0.006 -23.871 -22.368  0.00  0.00     0.043 C 
ATOM     44  H10 DSK d          -0.432 -24.493 -21.574  0.00  0.00     0.078 H 
ATOM     45  H11 DSK d           0.821 -24.423 -22.860  0.00  0.00     0.078 H 
BRANCH  43  46
ATOM     46  OAA DSK d           0.508 -22.667 -21.814  0.00  0.00    -0.398 OA
ATOM     47  H1  DSK d           0.659 -22.787 -20.883  0.00  0.00     0.209 HD
ENDBRANCH  43  46
ENDBRANCH  39  43
ENDBRANCH  35  39
ENDBRANCH  31  35
ENDBRANCH  27  31
ENDBRANCH   1  27
TORSDOF 17
ENDMDL
MODEL 3
REMARK VINA RESULT:      -5.5      2.520      7.046
REMARK  17 active torsions:
REMARK  status: ('A' for Active; 'I' for Inactive)
REMARK    1  A    between atoms: CAJ_10  and  OAA_1 
REMARK    2  A    between atoms: CAK_11  and  OAB_2 
REMARK    3  A    between atoms: CAN_14  and  OAC_3 
REMARK    4  A    between atoms: CAO_15  and  OAD_4 
REMARK    5  A    between atoms: CAP_16  and  OAE_5 
REMARK    6  A    between atoms: CAQ_17  and  OAF_6 
REMARK    7  A    between atoms: CAR_18  and  OAG_7 
REMARK    8  A    between atoms: CAS_19  and  OAH_8 
REMARK    9  A    between atoms: CAT_20  and  OAI_9 
REMARK   10  A    between atoms: CAN_14  and  CAJ_10 
REMARK   11  A    between atoms: CAU_21  and  CAK_11 
REMARK   12  A    between atoms: CAL_12  and  CAO_15 
REMARK   13  A    between atoms: SAV_22  and  CAL_12 
REMARK   14  A    between atoms: CAQ_17  and  CAN_14 
REMARK   15  A    between atoms: CAO_15  and  CAR_18 
REMARK   16  A    between atoms: CAS_19  and  CAQ_17 
REMARK   17  A    between atoms: CAR_18  and  CAS_19 
ROOT
ATOM      1  CAO DSK d          -1.747 -19.853 -21.006  0.00  0.00     0.070 C 
ATOM      2  H19 DSK d          -1.057 -19.230 -21.594  0.00  0.00     0.088 H 
ENDROOT
BRANCH   1   3
ATOM      3  OAD DSK d          -1.030 -20.985 -20.534  0.00  0.00    -0.392 OA
ATOM      4  H4  DSK d          -1.526 -21.408 -19.844  0.00  0.00     0.210 HD
ENDBRANCH   1   3
BRANCH   1   5
ATOM      5  CAL DSK d          -2.269 -18.982 -19.821  0.00  0.00    -0.005 C 
ATOM      6  H14 DSK d          -1.535 -19.017 -19.002  0.00  0.00     0.051 H 
ATOM      7  H15 DSK d          -3.228 -19.392 -19.471  0.00  0.00     0.051 H 
BRANCH   5   8
ATOM      8  SAV DSK d          -2.512 -17.258 -20.319  0.00  0.00    -0.206 SA
ATOM      9  CAM DSK d          -1.171 -16.688 -21.443  0.00  0.00    -0.005 C 
ATOM     10  CAP DSK d          -0.076 -16.307 -20.425  0.00  0.00     0.069 C 
ATOM     11  H16 DSK d          -0.837 -17.493 -22.114  0.00  0.00     0.051 H 
ATOM     12  H17 DSK d          -1.488 -15.821 -22.041  0.00  0.00     0.051 H 
ATOM     13  CAT DSK d          -0.832 -15.419 -19.399  0.00  0.00     0.074 C 
ATOM     14  H20 DSK d           0.339 -17.206 -19.947  0.00  0.00     0.088 H 
ATOM     15  CAU DSK d          -1.964 -16.326 -18.838  0.00  0.00     0.030 C 
ATOM     16  H24 DSK d          -1.241 -14.509 -19.862  0.00  0.00     0.088 H 
ATOM     17  H25 DSK d          -1.523 -17.033 -18.120  0.00  0.00     0.062 H 
BRANCH  10  18
ATOM     18  OAE DSK d           1.004 -15.532 -21.029  0.00  0.00    -0.392 OA
ATOM     19  H5  DSK d           0.782 -14.609 -21.006  0.00  0.00     0.210 HD
ENDBRANCH  10  18
BRANCH  13  20
ATOM     20  OAI DSK d           0.105 -15.091 -18.365  0.00  0.00    -0.392 OA
ATOM     21  H9  DSK d           0.907 -15.585 -18.498  0.00  0.00     0.210 HD
ENDBRANCH  13  20
BRANCH  15  22
ATOM     22  CAK DSK d          -3.092 -15.580 -18.072  0.00  0.00     0.030 C 
ATOM     23  H12 DSK d          -3.865 -16.312 -17.793  0.00  0.00     0.075 H 
ATOM     24  H13 DSK d          -2.660 -15.139 -17.161  0.00  0.00     0.075 H 
BRANCH  22  25
ATOM     25  OAB DSK d          -3.713 -14.535 -18.828  0.00  0.00    -0.400 OA
ATOM     26  H2  DSK d          -4.570 -14.349 -18.464  0.00  0.00     0.209 HD
ENDBRANCH  22  25
ENDBRANCH  15  22
ENDBRANCH   5   8
ENDBRANCH   1   5
BRANCH   1  27
ATOM     27  CAR DSK d          -2.862 -20.323 -21.937  0.00  0.00     0.088 C 
ATOM     28  H22 DSK d          -3.851 -20.146 -21.489  0.00  0.00     0.091 H 
BRANCH  27  29
ATOM     29  OAG DSK d          -2.685 -19.586 -23.160  0.00  0.00    -0.390 OA
ATOM     30  H7  DSK d          -1.770 -19.607 -23.412  0.00  0.00     0.210 HD
ENDBRANCH  27  29
BRANCH  27  31
ATOM     31  CAS DSK d          -2.680 -21.815 -22.302  0.00  0.00     0.090 C 
ATOM     32  H23 DSK d          -2.459 -22.369 -21.378  0.00  0.00     0.091 H 
BRANCH  31  33
ATOM     33  OAH DSK d          -1.586 -21.972 -23.206  0.00  0.00    -0.390 OA
ATOM     34  H8  DSK d          -1.878 -22.450 -23.973  0.00  0.00     0.210 HD
ENDBRANCH  31  33
BRANCH  31  35
ATOM     35  CAQ DSK d          -3.934 -22.413 -22.936  0.00  0.00     0.089 C 
ATOM     36  H21 DSK d          -3.752 -22.613 -24.002  0.00  0.00     0.091 H 
BRANCH  35  37
ATOM     37  OAF DSK d          -4.999 -21.468 -22.783  0.00  0.00    -0.390 OA
ATOM     38  H6  DSK d          -4.662 -20.589 -22.909  0.00  0.00     0.210 HD
ENDBRANCH  35  37
BRANCH  35  39
ATOM     39  CAN DSK d          -4.339 -23.722 -22.224  0.00  0.00     0.083 C 
ATOM     40  H18 DSK d          -4.460 -24.522 -22.968  0.00  0.00     0.090 H 
BRANCH  39  41
ATOM     41  OAC DSK d          -3.308 -24.086 -21.295  0.00  0.00    -0.391 OA
ATOM     42  H3  DSK d          -2.792 -23.318 -21.079  0.00  0.00     0.210 HD
ENDBRANCH  39  41
BRANCH  39  43
ATOM     43  CAJ DSK d          -5.667 -23.517 -21.483  0.00  0.00     0.043 C 
ATOM     44  H10 DSK d          -6.373 -22.974 -22.128  0.00  0.00     0.078 H 
ATOM     45  H11 DSK d          -6.095 -24.493 -21.209  0.00  0.00     0.078 H 
BRANCH  43  46
ATOM     46  OAA DSK d          -5.408 -22.762 -20.311  0.00  0.00    -0.398 OA
ATOM     47  H1  DSK d          -5.529 -23.313 -19.547  0.00  0.00     0.209 HD
ENDBRANCH  43  46
ENDBRANCH  39  43
ENDBRANCH  35  39
ENDBRANCH  31  35
ENDBRANCH  27  31
ENDBRANCH   1  27
TORSDOF 17
ENDMDL
MODEL 4
REMARK VINA RESULT:      -5.5      1.913      2.587
REMARK  17 active torsions:
REMARK  status: ('A' for Active; 'I' for Inactive)
REMARK    1  A    between atoms: CAJ_10  and  OAA_1 
REMARK    2  A    between atoms: CAK_11  and  OAB_2 
REMARK    3  A    between atoms: CAN_14  and  OAC_3 
REMARK    4  A    between atoms: CAO_15  and  OAD_4 
REMARK    5  A    between atoms: CAP_16  and  OAE_5 
REMARK    6  A    between atoms: CAQ_17  and  OAF_6 
REMARK    7  A    between atoms: CAR_18  and  OAG_7 
REMARK    8  A    between atoms: CAS_19  and  OAH_8 
REMARK    9  A    between atoms: CAT_20  and  OAI_9 
REMARK   10  A    between atoms: CAN_14  and  CAJ_10 
REMARK   11  A    between atoms: CAU_21  and  CAK_11 
REMARK   12  A    between atoms: CAL_12  and  CAO_15 
REMARK   13  A    between atoms: SAV_22  and  CAL_12 
REMARK   14  A    between atoms: CAQ_17  and  CAN_14 
REMARK   15  A    between atoms: CAO_15  and  CAR_18 
REMARK   16  A    between atoms: CAS_19  and  CAQ_17 
REMARK   17  A    between atoms: CAR_18  and  CAS_19 
ROOT
ATOM      1  CAO DSK d          -2.757 -20.160 -21.939  0.00  0.00     0.070 C 
ATOM      2  H19 DSK d          -1.916 -20.843 -22.131  0.00  0.00     0.088 H 
ENDROOT
BRANCH   1   3
ATOM      3  OAD DSK d          -2.965 -19.375 -23.104  0.00  0.00    -0.392 OA
ATOM      4  H4  DSK d          -3.889 -19.171 -23.187  0.00  0.00     0.210 HD
ENDBRANCH   1   3
BRANCH   1   5
ATOM      5  CAL DSK d          -4.008 -21.037 -21.620  0.00  0.00    -0.005 C 
ATOM      6  H14 DSK d          -4.736 -20.931 -22.437  0.00  0.00     0.051 H 
ATOM      7  H15 DSK d          -4.459 -20.688 -20.680  0.00  0.00     0.051 H 
BRANCH   5   8
ATOM      8  SAV DSK d          -3.567 -22.785 -21.447  0.00  0.00    -0.206 SA
ATOM      9  CAM DSK d          -1.754 -23.041 -21.620  0.00  0.00    -0.005 C 
ATOM     10  CAP DSK d          -1.608 -23.090 -23.155  0.00  0.00     0.069 C 
ATOM     11  H16 DSK d          -1.185 -22.206 -21.186  0.00  0.00     0.051 H 
ATOM     12  H17 DSK d          -1.433 -23.984 -21.153  0.00  0.00     0.051 H 
ATOM     13  CAT DSK d          -2.707 -24.098 -23.589  0.00  0.00     0.074 C 
ATOM     14  H20 DSK d          -1.781 -22.095 -23.593  0.00  0.00     0.088 H 
ATOM     15  CAU DSK d          -4.042 -23.487 -23.074  0.00  0.00     0.030 C 
ATOM     16  H24 DSK d          -2.538 -25.100 -23.169  0.00  0.00     0.088 H 
ATOM     17  H25 DSK d          -4.330 -22.661 -23.742  0.00  0.00     0.062 H 
BRANCH  10  18
ATOM     18  OAE DSK d          -0.303 -23.588 -23.579  0.00  0.00    -0.392 OA
ATOM     19  H5  DSK d           0.371 -23.226 -23.016  0.00  0.00     0.210 HD
ENDBRANCH  10  18
BRANCH  13  20
ATOM     20  OAI DSK d          -2.694 -24.134 -25.022  0.00  0.00    -0.392 OA
ATOM     21  H9  DSK d          -1.831 -23.887 -25.336  0.00  0.00     0.210 HD
ENDBRANCH  13  20
BRANCH  15  22
ATOM     22  CAK DSK d          -5.251 -24.462 -23.046  0.00  0.00     0.030 C 
ATOM     23  H12 DSK d          -5.068 -25.218 -22.267  0.00  0.00     0.075 H 
ATOM     24  H13 DSK d          -6.154 -23.887 -22.794  0.00  0.00     0.075 H 
BRANCH  22  25
ATOM     25  OAB DSK d          -5.478 -25.138 -24.286  0.00  0.00    -0.400 OA
ATOM     26  H2  DSK d          -5.040 -25.981 -24.272  0.00  0.00     0.209 HD
ENDBRANCH  22  25
ENDBRANCH  15  22
ENDBRANCH   5   8
ENDBRANCH   1   5
BRANCH   1  27
ATOM     27  CAR DSK d          -2.360 -19.243 -20.785  0.00  0.00     0.088 C 
ATOM     28  H22 DSK d          -3.046 -19.362 -19.933  0.00  0.00     0.091 H 
BRANCH  27  29
ATOM     29  OAG DSK d          -1.011 -19.606 -20.445  0.00  0.00    -0.390 OA
ATOM     30  H7  DSK d          -0.415 -18.939 -20.765  0.00  0.00     0.210 HD
ENDBRANCH  27  29
BRANCH  27  31
ATOM     31  CAS DSK d          -2.307 -17.768 -21.249  0.00  0.00     0.090 C 
ATOM     32  H23 DSK d          -3.208 -17.564 -21.847  0.00  0.00     0.091 H 
BRANCH  31  33
ATOM     33  OAH DSK d          -1.155 -17.548 -22.062  0.00  0.00    -0.390 OA
ATOM     34  H8  DSK d          -1.301 -17.921 -22.923  0.00  0.00     0.210 HD
ENDBRANCH  31  33
BRANCH  31  35
ATOM     35  CAQ DSK d          -2.276 -16.793 -20.075  0.00  0.00     0.089 C 
ATOM     36  H21 DSK d          -2.511 -17.326 -19.142  0.00  0.00     0.091 H 
BRANCH  35  37
ATOM     37  OAF DSK d          -3.250 -15.773 -20.322  0.00  0.00    -0.390 OA
ATOM     38  H6  DSK d          -2.909 -15.159 -20.961  0.00  0.00     0.210 HD
ENDBRANCH  35  37
BRANCH  35  39
ATOM     39  CAN DSK d          -0.890 -16.121 -19.954  0.00  0.00     0.083 C 
ATOM     40  H18 DSK d          -0.108 -16.841 -20.236  0.00  0.00     0.090 H 
BRANCH  39  41
ATOM     41  OAC DSK d          -0.841 -14.992 -20.839  0.00  0.00    -0.391 OA
ATOM     42  H3  DSK d          -0.401 -15.240 -21.644  0.00  0.00     0.210 HD
ENDBRANCH  39  41
BRANCH  39  43
ATOM     43  CAJ DSK d          -0.660 -15.666 -18.508  0.00  0.00     0.043 C 
ATOM     44  H10 DSK d          -0.082 -16.429 -17.965  0.00  0.00     0.078 H 
ATOM     45  H11 DSK d          -0.109 -14.714 -18.500  0.00  0.00     0.078 H 
BRANCH  43  46
ATOM     46  OAA DSK d          -1.925 -15.494 -17.891  0.00  0.00    -0.398 OA
ATOM     47  H1  DSK d          -2.583 -15.343 -18.559  0.00  0.00     0.209 HD
ENDBRANCH  43  46
ENDBRANCH  39  43
ENDBRANCH  35  39
ENDBRANCH  31  35
ENDBRANCH  27  31
ENDBRANCH   1  27
TORSDOF 17
ENDMDL
MODEL 5
REMARK VINA RESULT:      -5.5      2.540      7.287
REMARK  17 active torsions:
REMARK  status: ('A' for Active; 'I' for Inactive)
REMARK    1  A    between atoms: CAJ_10  and  OAA_1 
REMARK    2  A    between atoms: CAK_11  and  OAB_2 
REMARK    3  A    between atoms: CAN_14  and  OAC_3 
REMARK    4  A    between atoms: CAO_15  and  OAD_4 
REMARK    5  A    between atoms: CAP_16  and  OAE_5 
REMARK    6  A    between atoms: CAQ_17  and  OAF_6 
REMARK    7  A    between atoms: CAR_18  and  OAG_7 
REMARK    8  A    between atoms: CAS_19  and  OAH_8 
REMARK    9  A    between atoms: CAT_20  and  OAI_9 
REMARK   10  A    between atoms: CAN_14  and  CAJ_10 
REMARK   11  A    between atoms: CAU_21  and  CAK_11 
REMARK   12  A    between atoms: CAL_12  and  CAO_15 
REMARK   13  A    between atoms: SAV_22  and  CAL_12 
REMARK   14  A    between atoms: CAQ_17  and  CAN_14 
REMARK   15  A    between atoms: CAO_15  and  CAR_18 
REMARK   16  A    between atoms: CAS_19  and  CAQ_17 
REMARK   17  A    between atoms: CAR_18  and  CAS_19 
ROOT
ATOM      1  CAO DSK d          -2.253 -20.139 -20.575  0.00  0.00     0.070 C 
ATOM      2  H19 DSK d          -1.630 -20.967 -20.945  0.00  0.00     0.088 H 
ENDROOT
BRANCH   1   3
ATOM      3  OAD DSK d          -3.048 -20.628 -19.503  0.00  0.00    -0.392 OA
ATOM      4  H4  DSK d          -3.732 -20.000 -19.305  0.00  0.00     0.210 HD
ENDBRANCH   1   3
BRANCH   1   5
ATOM      5  CAL DSK d          -1.292 -19.009 -20.093  0.00  0.00    -0.005 C 
ATOM      6  H14 DSK d          -0.313 -19.142 -20.576  0.00  0.00     0.051 H 
ATOM      7  H15 DSK d          -1.175 -19.081 -19.002  0.00  0.00     0.051 H 
BRANCH   5   8
ATOM      8  SAV DSK d          -1.934 -17.368 -20.509  0.00  0.00    -0.206 SA
ATOM      9  CAM DSK d          -0.768 -16.444 -21.591  0.00  0.00    -0.005 C 
ATOM     10  CAP DSK d           0.209 -15.867 -20.546  0.00  0.00     0.069 C 
ATOM     11  H16 DSK d          -0.256 -17.114 -22.297  0.00  0.00     0.051 H 
ATOM     12  H17 DSK d          -1.281 -15.647 -22.149  0.00  0.00     0.051 H 
ATOM     13  CAT DSK d          -0.731 -15.233 -19.485  0.00  0.00     0.074 C 
ATOM     14  H20 DSK d           0.826 -16.667 -20.109  0.00  0.00     0.088 H 
ATOM     15  CAU DSK d          -1.617 -16.407 -18.979  0.00  0.00     0.030 C 
ATOM     16  H24 DSK d          -1.344 -14.423 -19.907  0.00  0.00     0.088 H 
ATOM     17  H25 DSK d          -1.021 -17.026 -18.293  0.00  0.00     0.062 H 
BRANCH  10  18
ATOM     18  OAE DSK d           1.076 -14.832 -21.101  0.00  0.00    -0.392 OA
ATOM     19  H5  DSK d           1.121 -14.930 -22.045  0.00  0.00     0.210 HD
ENDBRANCH  10  18
BRANCH  13  20
ATOM     20  OAI DSK d           0.106 -14.746 -18.428  0.00  0.00    -0.392 OA
ATOM     21  H9  DSK d           0.955 -14.508 -18.782  0.00  0.00     0.210 HD
ENDBRANCH  13  20
BRANCH  15  22
ATOM     22  CAK DSK d          -2.887 -15.986 -18.188  0.00  0.00     0.030 C 
ATOM     23  H12 DSK d          -3.640 -16.782 -18.292  0.00  0.00     0.075 H 
ATOM     24  H13 DSK d          -2.614 -15.875 -17.128  0.00  0.00     0.075 H 
BRANCH  22  25
ATOM     25  OAB DSK d          -3.466 -14.756 -18.635  0.00  0.00    -0.400 OA
ATOM     26  H2  DSK d          -4.324 -14.928 -19.006  0.00  0.00     0.209 HD
ENDBRANCH  22  25
ENDBRANCH  15  22
ENDBRANCH   5   8
ENDBRANCH   1   5
BRANCH   1  27
ATOM     27  CAR DSK d          -3.170 -19.699 -21.714  0.00  0.00     0.088 C 
ATOM     28  H22 DSK d          -3.857 -18.906 -21.382  0.00  0.00     0.091 H 
BRANCH  27  29
ATOM     29  OAG DSK d          -2.297 -19.250 -22.765  0.00  0.00    -0.390 OA
ATOM     30  H7  DSK d          -2.204 -19.939 -23.412  0.00  0.00     0.210 HD
ENDBRANCH  27  29
BRANCH  27  31
ATOM     31  CAS DSK d          -3.952 -20.905 -22.286  0.00  0.00     0.090 C 
ATOM     32  H23 DSK d          -4.293 -20.642 -23.299  0.00  0.00     0.091 H 
BRANCH  31  33
ATOM     33  OAH DSK d          -5.091 -21.184 -21.474  0.00  0.00    -0.390 OA
ATOM     34  H8  DSK d          -5.519 -21.970 -21.792  0.00  0.00     0.210 HD
ENDBRANCH  31  33
BRANCH  31  35
ATOM     35  CAQ DSK d          -3.091 -22.162 -22.378  0.00  0.00     0.089 C 
ATOM     36  H21 DSK d          -2.709 -22.426 -21.381  0.00  0.00     0.091 H 
BRANCH  35  37
ATOM     37  OAF DSK d          -2.003 -21.889 -23.268  0.00  0.00    -0.390 OA
ATOM     38  H6  DSK d          -2.278 -21.252 -23.917  0.00  0.00     0.210 HD
ENDBRANCH  35  37
BRANCH  35  39
ATOM     39  CAN DSK d          -3.902 -23.344 -22.953  0.00  0.00     0.083 C 
ATOM     40  H18 DSK d          -4.402 -23.879 -22.132  0.00  0.00     0.090 H 
BRANCH  39  41
ATOM     41  OAC DSK d          -4.889 -22.833 -23.861  0.00  0.00    -0.391 OA
ATOM     42  H3  DSK d          -5.360 -22.119 -23.447  0.00  0.00     0.210 HD
ENDBRANCH  39  41
BRANCH  39  43
ATOM     43  CAJ DSK d          -2.962 -24.310 -23.686  0.00  0.00     0.043 C 
ATOM     44  H10 DSK d          -1.981 -24.324 -23.187  0.00  0.00     0.078 H 
ATOM     45  H11 DSK d          -3.391 -25.323 -23.681  0.00  0.00     0.078 H 
BRANCH  43  46
ATOM     46  OAA DSK d          -2.816 -23.857 -25.021  0.00  0.00    -0.398 OA
ATOM     47  H1  DSK d          -3.672 -23.790 -25.427  0.00  0.00     0.209 HD
ENDBRANCH  43  46
ENDBRANCH  39  43
ENDBRANCH  35  39
ENDBRANCH  31  35
ENDBRANCH  27  31
ENDBRANCH   1  27
TORSDOF 17
ENDMDL
MODEL 6
REMARK VINA RESULT:      -5.3      1.860      3.187
REMARK  17 active torsions:
REMARK  status: ('A' for Active; 'I' for Inactive)
REMARK    1  A    between atoms: CAJ_10  and  OAA_1 
REMARK    2  A    between atoms: CAK_11  and  OAB_2 
REMARK    3  A    between atoms: CAN_14  and  OAC_3 
REMARK    4  A    between atoms: CAO_15  and  OAD_4 
REMARK    5  A    between atoms: CAP_16  and  OAE_5 
REMARK    6  A    between atoms: CAQ_17  and  OAF_6 
REMARK    7  A    between atoms: CAR_18  and  OAG_7 
REMARK    8  A    between atoms: CAS_19  and  OAH_8 
REMARK    9  A    between atoms: CAT_20  and  OAI_9 
REMARK   10  A    between atoms: CAN_14  and  CAJ_10 
REMARK   11  A    between atoms: CAU_21  and  CAK_11 
REMARK   12  A    between atoms: CAL_12  and  CAO_15 
REMARK   13  A    between atoms: SAV_22  and  CAL_12 
REMARK   14  A    between atoms: CAQ_17  and  CAN_14 
REMARK   15  A    between atoms: CAO_15  and  CAR_18 
REMARK   16  A    between atoms: CAS_19  and  CAQ_17 
REMARK   17  A    between atoms: CAR_18  and  CAS_19 
ROOT
ATOM      1  CAO DSK d          -2.296 -19.642 -20.248  0.00  0.00     0.070 C 
ATOM      2  H19 DSK d          -3.246 -19.385 -19.757  0.00  0.00     0.088 H 
ENDROOT
BRANCH   1   3
ATOM      3  OAD DSK d          -1.567 -20.500 -19.382  0.00  0.00    -0.392 OA
ATOM      4  H4  DSK d          -2.059 -21.301 -19.244  0.00  0.00     0.210 HD
ENDBRANCH   1   3
BRANCH   1   5
ATOM      5  CAL DSK d          -2.643 -20.358 -21.590  0.00  0.00    -0.005 C 
ATOM      6  H14 DSK d          -1.873 -20.112 -22.336  0.00  0.00     0.051 H 
ATOM      7  H15 DSK d          -3.622 -20.002 -21.942  0.00  0.00     0.051 H 
BRANCH   5   8
ATOM      8  SAV DSK d          -2.710 -22.156 -21.385  0.00  0.00    -0.206 SA
ATOM      9  CAM DSK d          -1.087 -22.936 -21.763  0.00  0.00    -0.005 C 
ATOM     10  CAP DSK d          -1.162 -23.044 -23.300  0.00  0.00     0.069 C 
ATOM     11  H16 DSK d          -0.249 -22.300 -21.442  0.00  0.00     0.051 H 
ATOM     12  H17 DSK d          -0.996 -23.926 -21.292  0.00  0.00     0.051 H 
ATOM     13  CAT DSK d          -2.553 -23.690 -23.548  0.00  0.00     0.074 C 
ATOM     14  H20 DSK d          -1.094 -22.048 -23.762  0.00  0.00     0.088 H 
ATOM     15  CAU DSK d          -3.574 -22.707 -22.907  0.00  0.00     0.030 C 
ATOM     16  H24 DSK d          -2.629 -24.692 -23.102  0.00  0.00     0.088 H 
ATOM     17  H25 DSK d          -3.694 -21.841 -23.575  0.00  0.00     0.062 H 
BRANCH  10  18
ATOM     18  OAE DSK d          -0.124 -23.909 -23.852  0.00  0.00    -0.392 OA
ATOM     19  H5  DSK d          -0.509 -24.495 -24.494  0.00  0.00     0.210 HD
ENDBRANCH  10  18
BRANCH  13  20
ATOM     20  OAI DSK d          -2.736 -23.745 -24.968  0.00  0.00    -0.392 OA
ATOM     21  H9  DSK d          -3.511 -23.248 -25.206  0.00  0.00     0.210 HD
ENDBRANCH  13  20
BRANCH  15  22
ATOM     22  CAK DSK d          -4.999 -23.284 -22.685  0.00  0.00     0.030 C 
ATOM     23  H12 DSK d          -5.120 -23.507 -21.614  0.00  0.00     0.075 H 
ATOM     24  H13 DSK d          -5.733 -22.520 -22.985  0.00  0.00     0.075 H 
BRANCH  22  25
ATOM     25  OAB DSK d          -5.263 -24.478 -23.427  0.00  0.00    -0.400 OA
ATOM     26  H2  DSK d          -5.983 -24.949 -23.024  0.00  0.00     0.209 HD
ENDBRANCH  22  25
ENDBRANCH  15  22
ENDBRANCH   5   8
ENDBRANCH   1   5
BRANCH   1  27
ATOM     27  CAR DSK d          -1.508 -18.350 -20.447  0.00  0.00     0.088 C 
ATOM     28  H22 DSK d          -0.496 -18.436 -20.023  0.00  0.00     0.091 H 
BRANCH  27  29
ATOM     29  OAG DSK d          -1.478 -18.126 -21.867  0.00  0.00    -0.390 OA
ATOM     30  H7  DSK d          -0.638 -18.403 -22.213  0.00  0.00     0.210 HD
ENDBRANCH  27  29
BRANCH  27  31
ATOM     31  CAS DSK d          -2.263 -17.146 -19.835  0.00  0.00     0.090 C 
ATOM     32  H23 DSK d          -2.981 -17.532 -19.096  0.00  0.00     0.091 H 
BRANCH  31  33
ATOM     33  OAH DSK d          -2.979 -16.446 -20.851  0.00  0.00    -0.390 OA
ATOM     34  H8  DSK d          -2.482 -16.469 -21.660  0.00  0.00     0.210 HD
ENDBRANCH  31  33
BRANCH  31  35
ATOM     35  CAQ DSK d          -1.323 -16.170 -19.132  0.00  0.00     0.089 C 
ATOM     36  H21 DSK d          -0.394 -16.687 -18.848  0.00  0.00     0.091 H 
BRANCH  35  37
ATOM     37  OAF DSK d          -1.991 -15.676 -17.966  0.00  0.00    -0.390 OA
ATOM     38  H6  DSK d          -1.850 -14.740 -17.893  0.00  0.00     0.210 HD
ENDBRANCH  35  37
BRANCH  35  39
ATOM     39  CAN DSK d          -0.991 -14.970 -20.046  0.00  0.00     0.083 C 
ATOM     40  H18 DSK d          -1.835 -14.784 -20.726  0.00  0.00     0.090 H 
BRANCH  39  41
ATOM     41  OAC DSK d          -0.771 -13.810 -19.230  0.00  0.00    -0.391 OA
ATOM     42  H3  DSK d          -1.244 -13.072 -19.596  0.00  0.00     0.210 HD
ENDBRANCH  39  41
BRANCH  39  43
ATOM     43  CAJ DSK d           0.265 -15.280 -20.871  0.00  0.00     0.043 C 
ATOM     44  H10 DSK d           0.921 -14.397 -20.895  0.00  0.00     0.078 H 
ATOM     45  H11 DSK d           0.805 -16.127 -20.423  0.00  0.00     0.078 H 
BRANCH  43  46
ATOM     46  OAA DSK d          -0.142 -15.613 -22.187  0.00  0.00    -0.398 OA
ATOM     47  H1  DSK d          -0.226 -16.556 -22.263  0.00  0.00     0.209 HD
ENDBRANCH  43  46
ENDBRANCH  39  43
ENDBRANCH  35  39
ENDBRANCH  31  35
ENDBRANCH  27  31
ENDBRANCH   1  27
TORSDOF 17
ENDMDL
MODEL 7
REMARK VINA RESULT:      -5.0      2.452      6.813
REMARK  17 active torsions:
REMARK  status: ('A' for Active; 'I' for Inactive)
REMARK    1  A    between atoms: CAJ_10  and  OAA_1 
REMARK    2  A    between atoms: CAK_11  and  OAB_2 
REMARK    3  A    between atoms: CAN_14  and  OAC_3 
REMARK    4  A    between atoms: CAO_15  and  OAD_4 
REMARK    5  A    between atoms: CAP_16  and  OAE_5 
REMARK    6  A    between atoms: CAQ_17  and  OAF_6 
REMARK    7  A    between atoms: CAR_18  and  OAG_7 
REMARK    8  A    between atoms: CAS_19  and  OAH_8 
REMARK    9  A    between atoms: CAT_20  and  OAI_9 
REMARK   10  A    between atoms: CAN_14  and  CAJ_10 
REMARK   11  A    between atoms: CAU_21  and  CAK_11 
REMARK   12  A    between atoms: CAL_12  and  CAO_15 
REMARK   13  A    between atoms: SAV_22  and  CAL_12 
REMARK   14  A    between atoms: CAQ_17  and  CAN_14 
REMARK   15  A    between atoms: CAO_15  and  CAR_18 
REMARK   16  A    between atoms: CAS_19  and  CAQ_17 
REMARK   17  A    between atoms: CAR_18  and  CAS_19 
ROOT
ATOM      1  CAO DSK d          -2.354 -20.014 -21.189  0.00  0.00     0.070 C 
ATOM      2  H19 DSK d          -1.296 -20.298 -21.088  0.00  0.00     0.088 H 
ENDROOT
BRANCH   1   3
ATOM      3  OAD DSK d          -3.055 -20.503 -20.054  0.00  0.00    -0.392 OA
ATOM      4  H4  DSK d          -3.973 -20.611 -20.271  0.00  0.00     0.210 HD
ENDBRANCH   1   3
BRANCH   1   5
ATOM      5  CAL DSK d          -2.415 -18.456 -21.260  0.00  0.00    -0.005 C 
ATOM      6  H14 DSK d          -3.420 -18.124 -20.965  0.00  0.00     0.051 H 
ATOM      7  H15 DSK d          -2.213 -18.138 -22.294  0.00  0.00     0.051 H 
BRANCH   5   8
ATOM      8  SAV DSK d          -1.196 -17.693 -20.161  0.00  0.00    -0.206 SA
ATOM      9  CAM DSK d          -1.915 -17.334 -18.506  0.00  0.00    -0.005 C 
ATOM     10  CAP DSK d          -2.613 -15.985 -18.774  0.00  0.00     0.069 C 
ATOM     11  H16 DSK d          -2.634 -18.108 -18.202  0.00  0.00     0.051 H 
ATOM     12  H17 DSK d          -1.133 -17.239 -17.738  0.00  0.00     0.051 H 
ATOM     13  CAT DSK d          -1.515 -15.145 -19.482  0.00  0.00     0.074 C 
ATOM     14  H20 DSK d          -3.491 -16.125 -19.423  0.00  0.00     0.088 H 
ATOM     15  CAU DSK d          -1.143 -15.958 -20.755  0.00  0.00     0.030 C 
ATOM     16  H24 DSK d          -0.637 -14.987 -18.839  0.00  0.00     0.088 H 
ATOM     17  H25 DSK d          -1.936 -15.819 -21.504  0.00  0.00     0.062 H 
BRANCH  10  18
ATOM     18  OAE DSK d          -3.019 -15.309 -17.545  0.00  0.00    -0.392 OA
ATOM     19  H5  DSK d          -3.126 -14.381 -17.716  0.00  0.00     0.210 HD
ENDBRANCH  10  18
BRANCH  13  20
ATOM     20  OAI DSK d          -2.117 -13.896 -19.845  0.00  0.00    -0.392 OA
ATOM     21  H9  DSK d          -3.049 -13.930 -19.661  0.00  0.00     0.210 HD
ENDBRANCH  13  20
BRANCH  15  22
ATOM     22  CAK DSK d           0.183 -15.537 -21.447  0.00  0.00     0.030 C 
ATOM     23  H12 DSK d           0.406 -14.496 -21.166  0.00  0.00     0.075 H 
ATOM     24  H13 DSK d           0.987 -16.195 -21.084  0.00  0.00     0.075 H 
BRANCH  22  25
ATOM     25  OAB DSK d           0.143 -15.619 -22.875  0.00  0.00    -0.400 OA
ATOM     26  H2  DSK d           0.998 -15.402 -23.228  0.00  0.00     0.209 HD
ENDBRANCH  22  25
ENDBRANCH  15  22
ENDBRANCH   5   8
ENDBRANCH   1   5
BRANCH   1  27
ATOM     27  CAR DSK d          -2.902 -20.692 -22.442  0.00  0.00     0.088 C 
ATOM     28  H22 DSK d          -4.002 -20.663 -22.457  0.00  0.00     0.091 H 
BRANCH  27  29
ATOM     29  OAG DSK d          -2.331 -19.979 -23.552  0.00  0.00    -0.390 OA
ATOM     30  H7  DSK d          -3.023 -19.712 -24.146  0.00  0.00     0.210 HD
ENDBRANCH  27  29
BRANCH  27  31
ATOM     31  CAS DSK d          -2.385 -22.146 -22.551  0.00  0.00     0.090 C 
ATOM     32  H23 DSK d          -1.984 -22.441 -21.570  0.00  0.00     0.091 H 
BRANCH  31  33
ATOM     33  OAH DSK d          -1.341 -22.227 -23.519  0.00  0.00    -0.390 OA
ATOM     34  H8  DSK d          -1.462 -23.007 -24.048  0.00  0.00     0.210 HD
ENDBRANCH  31  33
BRANCH  31  35
ATOM     35  CAQ DSK d          -3.492 -23.126 -22.934  0.00  0.00     0.089 C 
ATOM     36  H21 DSK d          -3.075 -23.933 -23.555  0.00  0.00     0.091 H 
BRANCH  35  37
ATOM     37  OAF DSK d          -4.489 -22.403 -23.664  0.00  0.00    -0.390 OA
ATOM     38  H6  DSK d          -4.773 -21.654 -23.154  0.00  0.00     0.210 HD
ENDBRANCH  35  37
BRANCH  35  39
ATOM     39  CAN DSK d          -4.154 -23.728 -21.675  0.00  0.00     0.083 C 
ATOM     40  H18 DSK d          -4.272 -24.814 -21.807  0.00  0.00     0.090 H 
BRANCH  39  41
ATOM     41  OAC DSK d          -3.313 -23.474 -20.540  0.00  0.00    -0.391 OA
ATOM     42  H3  DSK d          -2.885 -22.633 -20.646  0.00  0.00     0.210 HD
ENDBRANCH  39  41
BRANCH  39  43
ATOM     43  CAJ DSK d          -5.533 -23.092 -21.461  0.00  0.00     0.043 C 
ATOM     44  H10 DSK d          -5.798 -22.477 -22.334  0.00  0.00     0.078 H 
ATOM     45  H11 DSK d          -6.289 -23.880 -21.325  0.00  0.00     0.078 H 
BRANCH  43  46
ATOM     46  OAA DSK d          -5.471 -22.280 -20.301  0.00  0.00    -0.398 OA
ATOM     47  H1  DSK d          -5.028 -22.755 -19.608  0.00  0.00     0.209 HD
ENDBRANCH  43  46
ENDBRANCH  39  43
ENDBRANCH  35  39
ENDBRANCH  31  35
ENDBRANCH  27  31
ENDBRANCH   1  27
TORSDOF 17
ENDMDL
MODEL 8
REMARK VINA RESULT:      -5.0      2.122      3.736
REMARK  17 active torsions:
REMARK  status: ('A' for Active; 'I' for Inactive)
REMARK    1  A    between atoms: CAJ_10  and  OAA_1 
REMARK    2  A    between atoms: CAK_11  and  OAB_2 
REMARK    3  A    between atoms: CAN_14  and  OAC_3 
REMARK    4  A    between atoms: CAO_15  and  OAD_4 
REMARK    5  A    between atoms: CAP_16  and  OAE_5 
REMARK    6  A    between atoms: CAQ_17  and  OAF_6 
REMARK    7  A    between atoms: CAR_18  and  OAG_7 
REMARK    8  A    between atoms: CAS_19  and  OAH_8 
REMARK    9  A    between atoms: CAT_20  and  OAI_9 
REMARK   10  A    between atoms: CAN_14  and  CAJ_10 
REMARK   11  A    between atoms: CAU_21  and  CAK_11 
REMARK   12  A    between atoms: CAL_12  and  CAO_15 
REMARK   13  A    between atoms: SAV_22  and  CAL_12 
REMARK   14  A    between atoms: CAQ_17  and  CAN_14 
REMARK   15  A    between atoms: CAO_15  and  CAR_18 
REMARK   16  A    between atoms: CAS_19  and  CAQ_17 
REMARK   17  A    between atoms: CAR_18  and  CAS_19 
ROOT
ATOM      1  CAO DSK d          -2.298 -19.593 -20.095  0.00  0.00     0.070 C 
ATOM      2  H19 DSK d          -3.195 -19.314 -19.522  0.00  0.00     0.088 H 
ENDROOT
BRANCH   1   3
ATOM      3  OAD DSK d          -1.498 -20.440 -19.282  0.00  0.00    -0.392 OA
ATOM      4  H4  DSK d          -0.602 -20.426 -19.597  0.00  0.00     0.210 HD
ENDBRANCH   1   3
BRANCH   1   5
ATOM      5  CAL DSK d          -2.779 -20.337 -21.380  0.00  0.00    -0.005 C 
ATOM      6  H14 DSK d          -2.288 -19.889 -22.257  0.00  0.00     0.051 H 
ATOM      7  H15 DSK d          -3.869 -20.222 -21.473  0.00  0.00     0.051 H 
BRANCH   5   8
ATOM      8  SAV DSK d          -2.376 -22.101 -21.318  0.00  0.00    -0.206 SA
ATOM      9  CAM DSK d          -2.324 -22.839 -23.002  0.00  0.00    -0.005 C 
ATOM     10  CAP DSK d          -3.820 -23.124 -23.246  0.00  0.00     0.069 C 
ATOM     11  H16 DSK d          -1.922 -22.130 -23.741  0.00  0.00     0.051 H 
ATOM     12  H17 DSK d          -1.728 -23.763 -23.020  0.00  0.00     0.051 H 
ATOM     13  CAT DSK d          -4.262 -23.860 -21.952  0.00  0.00     0.074 C 
ATOM     14  H20 DSK d          -4.377 -22.184 -23.382  0.00  0.00     0.088 H 
ATOM     15  CAU DSK d          -3.961 -22.862 -20.797  0.00  0.00     0.030 C 
ATOM     16  H24 DSK d          -3.722 -24.808 -21.811  0.00  0.00     0.088 H 
ATOM     17  H25 DSK d          -4.740 -22.085 -20.794  0.00  0.00     0.062 H 
BRANCH  10  18
ATOM     18  OAE DSK d          -4.045 -23.994 -24.396  0.00  0.00    -0.392 OA
ATOM     19  H5  DSK d          -3.258 -24.496 -24.571  0.00  0.00     0.210 HD
ENDBRANCH  10  18
BRANCH  13  20
ATOM     20  OAI DSK d          -5.673 -24.086 -22.063  0.00  0.00    -0.392 OA
ATOM     21  H9  DSK d          -5.917 -24.831 -21.526  0.00  0.00     0.210 HD
ENDBRANCH  13  20
BRANCH  15  22
ATOM     22  CAK DSK d          -3.961 -23.479 -19.371  0.00  0.00     0.030 C 
ATOM     23  H12 DSK d          -4.980 -23.408 -18.962  0.00  0.00     0.075 H 
ATOM     24  H13 DSK d          -3.671 -24.537 -19.451  0.00  0.00     0.075 H 
BRANCH  22  25
ATOM     25  OAB DSK d          -3.064 -22.834 -18.461  0.00  0.00    -0.400 OA
ATOM     26  H2  DSK d          -2.623 -23.490 -17.934  0.00  0.00     0.209 HD
ENDBRANCH  22  25
ENDBRANCH  15  22
ENDBRANCH   5   8
ENDBRANCH   1   5
BRANCH   1  27
ATOM     27  CAR DSK d          -1.521 -18.316 -20.400  0.00  0.00     0.088 C 
ATOM     28  H22 DSK d          -0.490 -18.382 -20.021  0.00  0.00     0.091 H 
BRANCH  27  29
ATOM     29  OAG DSK d          -1.560 -18.166 -21.830  0.00  0.00    -0.390 OA
ATOM     30  H7  DSK d          -2.156 -17.462 -22.057  0.00  0.00     0.210 HD
ENDBRANCH  27  29
BRANCH  27  31
ATOM     31  CAS DSK d          -2.245 -17.080 -19.816  0.00  0.00     0.090 C 
ATOM     32  H23 DSK d          -2.954 -17.428 -19.050  0.00  0.00     0.091 H 
BRANCH  31  33
ATOM     33  OAH DSK d          -2.971 -16.404 -20.842  0.00  0.00    -0.390 OA
ATOM     34  H8  DSK d          -3.068 -16.980 -21.591  0.00  0.00     0.210 HD
ENDBRANCH  31  33
BRANCH  31  35
ATOM     35  CAQ DSK d          -1.276 -16.094 -19.166  0.00  0.00     0.089 C 
ATOM     36  H21 DSK d          -0.339 -16.609 -18.911  0.00  0.00     0.091 H 
BRANCH  35  37
ATOM     37  OAF DSK d          -1.898 -15.579 -17.983  0.00  0.00    -0.390 OA
ATOM     38  H6  DSK d          -2.382 -14.791 -18.199  0.00  0.00     0.210 HD
ENDBRANCH  35  37
BRANCH  35  39
ATOM     39  CAN DSK d          -0.979 -14.911 -20.113  0.00  0.00     0.083 C 
ATOM     40  H18 DSK d          -1.866 -14.700 -20.727  0.00  0.00     0.090 H 
BRANCH  39  41
ATOM     41  OAC DSK d          -0.657 -13.754 -19.326  0.00  0.00    -0.391 OA
ATOM     42  H3  DSK d          -1.399 -13.530 -18.777  0.00  0.00     0.210 HD
ENDBRANCH  39  41
BRANCH  39  43
ATOM     43  CAJ DSK d           0.198 -15.266 -21.031  0.00  0.00     0.043 C 
ATOM     44  H10 DSK d           0.871 -14.401 -21.125  0.00  0.00     0.078 H 
ATOM     45  H11 DSK d           0.753 -16.119 -20.613  0.00  0.00     0.078 H 
BRANCH  43  46
ATOM     46  OAA DSK d          -0.323 -15.610 -22.304  0.00  0.00    -0.398 OA
ATOM     47  H1  DSK d          -1.272 -15.601 -22.269  0.00  0.00     0.209 HD
ENDBRANCH  43  46
ENDBRANCH  39  43
ENDBRANCH  35  39
ENDBRANCH  31  35
ENDBRANCH  27  31
ENDBRANCH   1  27
TORSDOF 17
ENDMDL
MODEL 9
REMARK VINA RESULT:      -4.7      2.371      7.196
REMARK  17 active torsions:
REMARK  status: ('A' for Active; 'I' for Inactive)
REMARK    1  A    between atoms: CAJ_10  and  OAA_1 
REMARK    2  A    between atoms: CAK_11  and  OAB_2 
REMARK    3  A    between atoms: CAN_14  and  OAC_3 
REMARK    4  A    between atoms: CAO_15  and  OAD_4 
REMARK    5  A    between atoms: CAP_16  and  OAE_5 
REMARK    6  A    between atoms: CAQ_17  and  OAF_6 
REMARK    7  A    between atoms: CAR_18  and  OAG_7 
REMARK    8  A    between atoms: CAS_19  and  OAH_8 
REMARK    9  A    between atoms: CAT_20  and  OAI_9 
REMARK   10  A    between atoms: CAN_14  and  CAJ_10 
REMARK   11  A    between atoms: CAU_21  and  CAK_11 
REMARK   12  A    between atoms: CAL_12  and  CAO_15 
REMARK   13  A    between atoms: SAV_22  and  CAL_12 
REMARK   14  A    between atoms: CAQ_17  and  CAN_14 
REMARK   15  A    between atoms: CAO_15  and  CAR_18 
REMARK   16  A    between atoms: CAS_19  and  CAQ_17 
REMARK   17  A    between atoms: CAR_18  and  CAS_19 
ROOT
ATOM      1  CAO DSK d          -2.000 -20.488 -20.124  0.00  0.00     0.070 C 
ATOM      2  H19 DSK d          -3.002 -20.794 -19.789  0.00  0.00     0.088 H 
ENDROOT
BRANCH   1   3
ATOM      3  OAD DSK d          -2.060 -20.226 -21.519  0.00  0.00    -0.392 OA
ATOM      4  H4  DSK d          -2.005 -21.044 -21.997  0.00  0.00     0.210 HD
ENDBRANCH   1   3
BRANCH   1   5
ATOM      5  CAL DSK d          -1.612 -19.205 -19.326  0.00  0.00    -0.005 C 
ATOM      6  H14 DSK d          -0.516 -19.116 -19.303  0.00  0.00     0.051 H 
ATOM      7  H15 DSK d          -1.994 -19.294 -18.298  0.00  0.00     0.051 H 
BRANCH   5   8
ATOM      8  SAV DSK d          -2.307 -17.714 -20.084  0.00  0.00    -0.206 SA
ATOM      9  CAM DSK d          -1.232 -17.085 -21.438  0.00  0.00    -0.005 C 
ATOM     10  CAP DSK d          -0.195 -16.271 -20.636  0.00  0.00     0.069 C 
ATOM     11  H16 DSK d          -0.758 -17.908 -21.993  0.00  0.00     0.051 H 
ATOM     12  H17 DSK d          -1.794 -16.448 -22.136  0.00  0.00     0.051 H 
ATOM     13  CAT DSK d          -1.071 -15.396 -19.699  0.00  0.00     0.074 C 
ATOM     14  H20 DSK d           0.462 -16.940 -20.061  0.00  0.00     0.088 H 
ATOM     15  CAU DSK d          -1.902 -16.409 -18.861  0.00  0.00     0.030 C 
ATOM     16  H24 DSK d          -1.724 -14.713 -20.262  0.00  0.00     0.088 H 
ATOM     17  H25 DSK d          -1.251 -16.842 -18.088  0.00  0.00     0.062 H 
BRANCH  10  18
ATOM     18  OAE DSK d           0.616 -15.404 -21.486  0.00  0.00    -0.392 OA
ATOM     19  H5  DSK d           1.101 -15.935 -22.107  0.00  0.00     0.210 HD
ENDBRANCH  10  18
BRANCH  13  20
ATOM     20  OAI DSK d          -0.173 -14.666 -18.854  0.00  0.00    -0.392 OA
ATOM     21  H9  DSK d           0.302 -14.028 -19.374  0.00  0.00     0.210 HD
ENDBRANCH  13  20
BRANCH  15  22
ATOM     22  CAK DSK d          -3.122 -15.806 -18.111  0.00  0.00     0.030 C 
ATOM     23  H12 DSK d          -3.956 -16.520 -18.174  0.00  0.00     0.075 H 
ATOM     24  H13 DSK d          -2.843 -15.660 -17.056  0.00  0.00     0.075 H 
BRANCH  22  25
ATOM     25  OAB DSK d          -3.563 -14.550 -18.637  0.00  0.00    -0.400 OA
ATOM     26  H2  DSK d          -4.170 -14.148 -18.027  0.00  0.00     0.209 HD
ENDBRANCH  22  25
ENDBRANCH  15  22
ENDBRANCH   5   8
ENDBRANCH   1   5
BRANCH   1  27
ATOM     27  CAR DSK d          -1.048 -21.656 -19.878  0.00  0.00     0.088 C 
ATOM     28  H22 DSK d           0.001 -21.332 -19.952  0.00  0.00     0.091 H 
BRANCH  27  29
ATOM     29  OAG DSK d          -1.367 -22.148 -18.564  0.00  0.00    -0.390 OA
ATOM     30  H7  DSK d          -0.630 -21.997 -17.984  0.00  0.00     0.210 HD
ENDBRANCH  27  29
BRANCH  27  31
ATOM     31  CAS DSK d          -1.339 -22.817 -20.857  0.00  0.00     0.090 C 
ATOM     32  H23 DSK d          -0.863 -23.727 -20.461  0.00  0.00     0.091 H 
BRANCH  31  33
ATOM     33  OAH DSK d          -0.787 -22.530 -22.140  0.00  0.00    -0.390 OA
ATOM     34  H8  DSK d          -1.142 -21.709 -22.460  0.00  0.00     0.210 HD
ENDBRANCH  31  33
BRANCH  31  35
ATOM     35  CAQ DSK d          -2.835 -23.083 -21.011  0.00  0.00     0.089 C 
ATOM     36  H21 DSK d          -3.358 -22.143 -21.239  0.00  0.00     0.091 H 
BRANCH  35  37
ATOM     37  OAF DSK d          -3.315 -23.632 -19.778  0.00  0.00    -0.390 OA
ATOM     38  H6  DSK d          -4.157 -23.247 -19.568  0.00  0.00     0.210 HD
ENDBRANCH  35  37
BRANCH  35  39
ATOM     39  CAN DSK d          -3.098 -24.110 -22.134  0.00  0.00     0.083 C 
ATOM     40  H18 DSK d          -2.191 -24.710 -22.302  0.00  0.00     0.090 H 
BRANCH  39  41
ATOM     41  OAC DSK d          -4.174 -24.972 -21.735  0.00  0.00    -0.391 OA
ATOM     42  H3  DSK d          -4.009 -25.852 -22.054  0.00  0.00     0.210 HD
ENDBRANCH  39  41
BRANCH  39  43
ATOM     43  CAJ DSK d          -3.465 -23.376 -23.431  0.00  0.00     0.043 C 
ATOM     44  H10 DSK d          -2.614 -23.406 -24.128  0.00  0.00     0.078 H 
ATOM     45  H11 DSK d          -4.338 -23.857 -23.896  0.00  0.00     0.078 H 
BRANCH  43  46
ATOM     46  OAA DSK d          -3.773 -22.031 -23.105  0.00  0.00    -0.398 OA
ATOM     47  H1  DSK d          -4.459 -21.716 -23.682  0.00  0.00     0.209 HD
ENDBRANCH  43  46
ENDBRANCH  39  43
ENDBRANCH  35  39
ENDBRANCH  31  35
ENDBRANCH  27  31
ENDBRANCH   1  27
TORSDOF 17
ENDMDL
MODEL 10
REMARK VINA RESULT:      -4.6      2.144      6.965
REMARK  17 active torsions:
REMARK  status: ('A' for Active; 'I' for Inactive)
REMARK    1  A    between atoms: CAJ_10  and  OAA_1 
REMARK    2  A    between atoms: CAK_11  and  OAB_2 
REMARK    3  A    between atoms: CAN_14  and  OAC_3 
REMARK    4  A    between atoms: CAO_15  and  OAD_4 
REMARK    5  A    between atoms: CAP_16  and  OAE_5 
REMARK    6  A    between atoms: CAQ_17  and  OAF_6 
REMARK    7  A    between atoms: CAR_18  and  OAG_7 
REMARK    8  A    between atoms: CAS_19  and  OAH_8 
REMARK    9  A    between atoms: CAT_20  and  OAI_9 
REMARK   10  A    between atoms: CAN_14  and  CAJ_10 
REMARK   11  A    between atoms: CAU_21  and  CAK_11 
REMARK   12  A    between atoms: CAL_12  and  CAO_15 
REMARK   13  A    between atoms: SAV_22  and  CAL_12 
REMARK   14  A    between atoms: CAQ_17  and  CAN_14 
REMARK   15  A    between atoms: CAO_15  and  CAR_18 
REMARK   16  A    between atoms: CAS_19  and  CAQ_17 
REMARK   17  A    between atoms: CAR_18  and  CAS_19 
ROOT
ATOM      1  CAO DSK d          -2.338 -19.895 -21.612  0.00  0.00     0.070 C 
ATOM      2  H19 DSK d          -2.007 -20.036 -22.651  0.00  0.00     0.088 H 
ENDROOT
BRANCH   1   3
ATOM      3  OAD DSK d          -1.400 -20.532 -20.757  0.00  0.00    -0.392 OA
ATOM      4  H4  DSK d          -1.613 -21.455 -20.686  0.00  0.00     0.210 HD
ENDBRANCH   1   3
BRANCH   1   5
ATOM      5  CAL DSK d          -2.393 -18.359 -21.343  0.00  0.00    -0.005 C 
ATOM      6  H14 DSK d          -3.427 -18.075 -21.098  0.00  0.00     0.051 H 
ATOM      7  H15 DSK d          -2.072 -17.826 -22.250  0.00  0.00     0.051 H 
BRANCH   5   8
ATOM      8  SAV DSK d          -1.312 -17.885 -19.970  0.00  0.00    -0.206 SA
ATOM      9  CAM DSK d          -2.282 -17.481 -18.460  0.00  0.00    -0.005 C 
ATOM     10  CAP DSK d          -2.671 -16.015 -18.743  0.00  0.00     0.069 C 
ATOM     11  H16 DSK d          -3.169 -18.123 -18.366  0.00  0.00     0.051 H 
ATOM     12  H17 DSK d          -1.669 -17.568 -17.551  0.00  0.00     0.051 H 
ATOM     13  CAT DSK d          -1.324 -15.358 -19.153  0.00  0.00     0.074 C 
ATOM     14  H20 DSK d          -3.408 -15.960 -19.558  0.00  0.00     0.088 H 
ATOM     15  CAU DSK d          -0.844 -16.164 -20.395  0.00  0.00     0.030 C 
ATOM     16  H24 DSK d          -0.582 -15.395 -18.342  0.00  0.00     0.088 H 
ATOM     17  H25 DSK d          -1.433 -15.845 -21.268  0.00  0.00     0.062 H 
BRANCH  10  18
ATOM     18  OAE DSK d          -3.197 -15.337 -17.562  0.00  0.00    -0.392 OA
ATOM     19  H5  DSK d          -3.003 -15.852 -16.789  0.00  0.00     0.210 HD
ENDBRANCH  10  18
BRANCH  13  20
ATOM     20  OAI DSK d          -1.618 -14.004 -19.519  0.00  0.00    -0.392 OA
ATOM     21  H9  DSK d          -2.399 -13.985 -20.061  0.00  0.00     0.210 HD
ENDBRANCH  13  20
BRANCH  15  22
ATOM     22  CAK DSK d           0.647 -15.960 -20.781  0.00  0.00     0.030 C 
ATOM     23  H12 DSK d           1.269 -16.524 -20.070  0.00  0.00     0.075 H 
ATOM     24  H13 DSK d           0.799 -16.356 -21.796  0.00  0.00     0.075 H 
BRANCH  22  25
ATOM     25  OAB DSK d           1.068 -14.593 -20.762  0.00  0.00    -0.400 OA
ATOM     26  H2  DSK d           0.725 -14.167 -19.986  0.00  0.00     0.209 HD
ENDBRANCH  22  25
ENDBRANCH  15  22
ENDBRANCH   5   8
ENDBRANCH   1   5
BRANCH   1  27
ATOM     27  CAR DSK d          -3.695 -20.577 -21.457  0.00  0.00     0.088 C 
ATOM     28  H22 DSK d          -4.172 -20.295 -20.507  0.00  0.00     0.091 H 
BRANCH  27  29
ATOM     29  OAG DSK d          -4.473 -20.161 -22.593  0.00  0.00    -0.390 OA
ATOM     30  H7  DSK d          -3.890 -19.878 -23.288  0.00  0.00     0.210 HD
ENDBRANCH  27  29
BRANCH  27  31
ATOM     31  CAS DSK d          -3.553 -22.113 -21.571  0.00  0.00     0.090 C 
ATOM     32  H23 DSK d          -4.554 -22.559 -21.464  0.00  0.00     0.091 H 
BRANCH  31  33
ATOM     33  OAH DSK d          -2.715 -22.609 -20.529  0.00  0.00    -0.390 OA
ATOM     34  H8  DSK d          -2.531 -21.911 -19.913  0.00  0.00     0.210 HD
ENDBRANCH  31  33
BRANCH  31  35
ATOM     35  CAQ DSK d          -2.975 -22.543 -22.917  0.00  0.00     0.089 C 
ATOM     36  H21 DSK d          -2.444 -21.699 -23.381  0.00  0.00     0.091 H 
BRANCH  35  37
ATOM     37  OAF DSK d          -4.061 -22.963 -23.750  0.00  0.00    -0.390 OA
ATOM     38  H6  DSK d          -4.642 -23.526 -23.252  0.00  0.00     0.210 HD
ENDBRANCH  35  37
BRANCH  35  39
ATOM     39  CAN DSK d          -2.007 -23.734 -22.745  0.00  0.00     0.083 C 
ATOM     40  H18 DSK d          -2.027 -24.074 -21.699  0.00  0.00     0.090 H 
BRANCH  39  41
ATOM     41  OAC DSK d          -2.428 -24.805 -23.603  0.00  0.00    -0.391 OA
ATOM     42  H3  DSK d          -2.100 -25.629 -23.264  0.00  0.00     0.210 HD
ENDBRANCH  39  41
BRANCH  39  43
ATOM     43  CAJ DSK d          -0.581 -23.298 -23.107  0.00  0.00     0.043 C 
ATOM     44  H10 DSK d           0.021 -24.180 -23.374  0.00  0.00     0.078 H 
ATOM     45  H11 DSK d          -0.610 -22.602 -23.959  0.00  0.00     0.078 H 
BRANCH  43  46
ATOM     46  OAA DSK d          -0.016 -22.653 -21.979  0.00  0.00    -0.398 OA
ATOM     47  H1  DSK d           0.924 -22.574 -22.099  0.00  0.00     0.209 HD
ENDBRANCH  43  46
ENDBRANCH  39  43
ENDBRANCH  35  39
ENDBRANCH  31  35
ENDBRANCH  27  31
ENDBRANCH   1  27
TORSDOF 17
ENDMDL
