MODEL 1
REMARK VINA RESULT:      -7.6      0.000      0.000
REMARK  0 active torsions:
REMARK  status: ('A' for Active; 'I' for Inactive)
ROOT
ATOM      1  C1  MOL d          22.962  36.340  41.480  0.00  0.00     0.096 A 
ATOM      2  C2  MOL d          24.380  36.760  41.307  0.00  0.00    -0.012 A 
ATOM      3  C3  MOL d          22.911  36.117  42.976  0.00  0.00     0.237 A 
ATOM      4  C4  MOL d          22.013  37.459  41.134  0.00  0.00    -0.021 C 
ATOM      5  C5  MOL d          22.531  35.123  40.687  0.00  0.00     0.101 C 
ATOM      6  C6  MOL d          25.019  36.815  42.509  0.00  0.00     0.042 A 
ATOM      7  C7  MOL d          25.050  37.075  40.161  0.00  0.00    -0.073 A 
ATOM      8  N1  MOL d          24.148  36.439  43.526  0.00  0.00    -0.326 N 
ATOM      9  O1  MOL d          21.863  35.874  43.566  0.00  0.00    -0.272 OA
ATOM     10  C8  MOL d          20.797  36.804  40.516  0.00  0.00     0.083 C 
ATOM     11  N2  MOL d          21.342  35.575  39.896  0.00  0.00    -0.074 N 
ATOM     12  C9  MOL d          26.330  37.211  42.625  0.00  0.00    -0.057 A 
ATOM     13  C10 MOL d          26.371  37.471  40.249  0.00  0.00    -0.082 A 
ATOM     14  C11 MOL d          27.005  37.525  41.470  0.00  0.00    -0.081 A 
ATOM     15  H1  MOL d          22.481  38.149  40.417  0.00  0.00     0.037 H 
ATOM     16  H2  MOL d          21.728  38.012  42.041  0.00  0.00     0.037 H 
ATOM     17  H3  MOL d          22.255  34.300  41.363  0.00  0.00     0.078 H 
ATOM     18  H4  MOL d          23.338  34.793  40.017  0.00  0.00     0.078 H 
ATOM     19  H5  MOL d          24.554  37.015  39.199  0.00  0.00     0.084 H 
ATOM     20  H6  MOL d          24.375  36.405  44.499  0.00  0.00     0.169 HD
ATOM     21  H7  MOL d          20.342  37.457  39.758  0.00  0.00     0.075 H 
ATOM     22  H8  MOL d          20.050  36.557  41.284  0.00  0.00     0.075 H 
ATOM     23  H9  MOL d          20.639  34.853  39.899  0.00  0.00     0.277 HD
ATOM     24  H10 MOL d          21.620  35.768  38.947  0.00  0.00     0.277 HD
ATOM     25  H11 MOL d          26.814  37.274  43.593  0.00  0.00     0.086 H 
ATOM     26  H12 MOL d          26.912  37.740  39.349  0.00  0.00     0.083 H 
ATOM     27  H13 MOL d          28.047  37.819  41.521  0.00  0.00     0.083 H 
ENDROOT
TORSDOF 0
ENDMDL
MODEL 2
REMARK VINA RESULT:      -6.9      2.378      4.727
REMARK  0 active torsions:
REMARK  status: ('A' for Active; 'I' for Inactive)
ROOT
ATOM      1  C1  MOL d          25.636  36.664  41.917  0.00  0.00     0.096 A 
ATOM      2  C2  MOL d          24.157  36.592  42.081  0.00  0.00    -0.012 A 
ATOM      3  C3  MOL d          25.739  37.313  40.554  0.00  0.00     0.237 A 
ATOM      4  C4  MOL d          26.256  37.589  42.932  0.00  0.00    -0.021 C 
ATOM      5  C5  MOL d          26.376  35.345  41.999  0.00  0.00     0.101 C 
ATOM      6  C6  MOL d          23.523  37.151  41.013  0.00  0.00     0.042 A 
ATOM      7  C7  MOL d          23.432  36.069  43.111  0.00  0.00    -0.073 A 
ATOM      8  N1  MOL d          24.459  37.598  40.087  0.00  0.00    -0.326 N 
ATOM      9  O1  MOL d          26.812  37.674  40.080  0.00  0.00    -0.272 OA
ATOM     10  C8  MOL d          27.603  36.993  43.276  0.00  0.00     0.083 C 
ATOM     11  N2  MOL d          27.405  35.541  43.068  0.00  0.00    -0.074 N 
ATOM     12  C9  MOL d          22.154  37.241  40.939  0.00  0.00    -0.057 A 
ATOM     13  C10 MOL d          22.053  36.141  43.060  0.00  0.00    -0.082 A 
ATOM     14  C11 MOL d          21.423  36.712  41.976  0.00  0.00    -0.081 A 
ATOM     15  H1  MOL d          25.624  37.648  43.830  0.00  0.00     0.037 H 
ATOM     16  H2  MOL d          26.381  38.595  42.505  0.00  0.00     0.037 H 
ATOM     17  H3  MOL d          26.858  35.111  41.038  0.00  0.00     0.078 H 
ATOM     18  H4  MOL d          25.687  34.531  42.271  0.00  0.00     0.078 H 
ATOM     19  H5  MOL d          23.929  35.605  43.956  0.00  0.00     0.084 H 
ATOM     20  H6  MOL d          24.246  38.052  39.222  0.00  0.00     0.169 HD
ATOM     21  H7  MOL d          27.871  37.207  44.321  0.00  0.00     0.075 H 
ATOM     22  H8  MOL d          28.386  37.382  42.609  0.00  0.00     0.075 H 
ATOM     23  H9  MOL d          28.274  35.117  42.784  0.00  0.00     0.277 HD
ATOM     24  H10 MOL d          27.088  35.116  43.925  0.00  0.00     0.277 HD
ATOM     25  H11 MOL d          21.667  37.713  40.093  0.00  0.00     0.086 H 
ATOM     26  H12 MOL d          21.463  35.746  43.878  0.00  0.00     0.083 H 
ATOM     27  H13 MOL d          20.340  36.744  41.940  0.00  0.00     0.083 H 
ENDROOT
TORSDOF 0
ENDMDL
MODEL 3
REMARK VINA RESULT:      -6.6      2.107      4.612
REMARK  0 active torsions:
REMARK  status: ('A' for Active; 'I' for Inactive)
ROOT
ATOM      1  C1  MOL d          24.893  36.531  41.914  0.00  0.00     0.096 A 
ATOM      2  C2  MOL d          23.548  36.287  42.504  0.00  0.00    -0.012 A 
ATOM      3  C3  MOL d          24.516  37.208  40.614  0.00  0.00     0.237 A 
ATOM      4  C4  MOL d          25.687  37.506  42.744  0.00  0.00    -0.021 C 
ATOM      5  C5  MOL d          25.758  35.304  41.711  0.00  0.00     0.101 C 
ATOM      6  C6  MOL d          22.568  36.785  41.699  0.00  0.00     0.042 A 
ATOM      7  C7  MOL d          23.222  35.670  43.675  0.00  0.00    -0.073 A 
ATOM      8  N1  MOL d          23.132  37.350  40.560  0.00  0.00    -0.326 N 
ATOM      9  O1  MOL d          25.354  37.696  39.863  0.00  0.00    -0.272 OA
ATOM     10  C8  MOL d          27.130  37.065  42.647  0.00  0.00     0.083 C 
ATOM     11  N2  MOL d          27.034  35.602  42.437  0.00  0.00    -0.074 N 
ATOM     12  C9  MOL d          21.237  36.719  42.036  0.00  0.00    -0.057 A 
ATOM     13  C10 MOL d          21.890  35.584  44.037  0.00  0.00    -0.082 A 
ATOM     14  C11 MOL d          20.909  36.094  43.215  0.00  0.00    -0.081 A 
ATOM     15  H1  MOL d          25.349  37.480  43.791  0.00  0.00     0.037 H 
ATOM     16  H2  MOL d          25.573  38.526  42.348  0.00  0.00     0.037 H 
ATOM     17  H3  MOL d          25.953  35.142  40.640  0.00  0.00     0.078 H 
ATOM     18  H4  MOL d          25.272  34.413  42.134  0.00  0.00     0.078 H 
ATOM     19  H5  MOL d          23.994  35.254  44.312  0.00  0.00     0.084 H 
ATOM     20  H6  MOL d          22.624  37.789  39.819  0.00  0.00     0.169 HD
ATOM     21  H7  MOL d          27.674  37.293  43.575  0.00  0.00     0.075 H 
ATOM     22  H8  MOL d          27.633  37.550  41.798  0.00  0.00     0.075 H 
ATOM     23  H9  MOL d          27.818  35.286  41.890  0.00  0.00     0.277 HD
ATOM     24  H10 MOL d          27.034  35.131  43.328  0.00  0.00     0.277 HD
ATOM     25  H11 MOL d          20.473  37.144  41.395  0.00  0.00     0.086 H 
ATOM     26  H12 MOL d          21.617  35.112  44.973  0.00  0.00     0.083 H 
ATOM     27  H13 MOL d          19.868  36.002  43.502  0.00  0.00     0.083 H 
ENDROOT
TORSDOF 0
ENDMDL
MODEL 4
REMARK VINA RESULT:      -6.1      1.808      2.538
REMARK  0 active torsions:
REMARK  status: ('A' for Active; 'I' for Inactive)
ROOT
ATOM      1  C1  MOL d          23.533  36.208  41.846  0.00  0.00     0.096 A 
ATOM      2  C2  MOL d          25.001  36.233  41.599  0.00  0.00    -0.012 A 
ATOM      3  C3  MOL d          23.094  37.435  41.077  0.00  0.00     0.237 A 
ATOM      4  C4  MOL d          22.892  34.998  41.216  0.00  0.00    -0.021 C 
ATOM      5  C5  MOL d          23.105  36.238  43.299  0.00  0.00     0.101 C 
ATOM      6  C6  MOL d          25.339  37.273  40.785  0.00  0.00     0.042 A 
ATOM      7  C7  MOL d          25.965  35.388  42.065  0.00  0.00    -0.073 A 
ATOM      8  N1  MOL d          24.202  38.002  40.454  0.00  0.00    -0.326 N 
ATOM      9  O1  MOL d          21.911  37.717  40.914  0.00  0.00    -0.272 OA
ATOM     10  C8  MOL d          21.766  34.589  42.139  0.00  0.00     0.083 C 
ATOM     11  N2  MOL d          22.229  35.036  43.472  0.00  0.00    -0.074 N 
ATOM     12  C9  MOL d          26.632  37.495  40.378  0.00  0.00    -0.057 A 
ATOM     13  C10 MOL d          27.276  35.592  41.675  0.00  0.00    -0.082 A 
ATOM     14  C11 MOL d          27.603  36.645  40.849  0.00  0.00    -0.081 A 
ATOM     15  H1  MOL d          23.625  34.183  41.123  0.00  0.00     0.037 H 
ATOM     16  H2  MOL d          22.497  35.250  40.221  0.00  0.00     0.037 H 
ATOM     17  H3  MOL d          22.544  37.159  43.517  0.00  0.00     0.078 H 
ATOM     18  H4  MOL d          23.981  36.176  43.961  0.00  0.00     0.078 H 
ATOM     19  H5  MOL d          25.708  34.570  42.728  0.00  0.00     0.084 H 
ATOM     20  H6  MOL d          24.184  38.808  39.862  0.00  0.00     0.169 HD
ATOM     21  H7  MOL d          21.618  33.500  42.120  0.00  0.00     0.075 H 
ATOM     22  H8  MOL d          20.828  35.092  41.861  0.00  0.00     0.075 H 
ATOM     23  H9  MOL d          21.435  35.275  44.044  0.00  0.00     0.277 HD
ATOM     24  H10 MOL d          22.752  34.297  43.915  0.00  0.00     0.277 HD
ATOM     25  H11 MOL d          26.877  38.312  39.709  0.00  0.00     0.086 H 
ATOM     26  H12 MOL d          28.051  34.919  42.022  0.00  0.00     0.083 H 
ATOM     27  H13 MOL d          28.638  36.804  40.568  0.00  0.00     0.083 H 
ENDROOT
TORSDOF 0
ENDMDL
MODEL 5
REMARK VINA RESULT:      -5.6      1.776      2.566
REMARK  0 active torsions:
REMARK  status: ('A' for Active; 'I' for Inactive)
ROOT
ATOM      1  C1  MOL d          22.505  36.335  41.865  0.00  0.00     0.096 A 
ATOM      2  C2  MOL d          23.975  36.488  41.681  0.00  0.00    -0.012 A 
ATOM      3  C3  MOL d          21.987  37.400  40.924  0.00  0.00     0.237 A 
ATOM      4  C4  MOL d          22.028  34.993  41.373  0.00  0.00    -0.021 C 
ATOM      5  C5  MOL d          21.995  36.501  43.282  0.00  0.00     0.101 C 
ATOM      6  C6  MOL d          24.249  37.447  40.752  0.00  0.00     0.042 A 
ATOM      7  C7  MOL d          24.993  35.818  42.293  0.00  0.00    -0.073 A 
ATOM      8  N1  MOL d          23.065  38.002  40.280  0.00  0.00    -0.326 N 
ATOM      9  O1  MOL d          20.793  37.529  40.676  0.00  0.00    -0.272 OA
ATOM     10  C8  MOL d          20.899  34.584  42.293  0.00  0.00     0.083 C 
ATOM     11  N2  MOL d          21.238  35.242  43.574  0.00  0.00    -0.074 N 
ATOM     12  C9  MOL d          25.534  37.756  40.375  0.00  0.00    -0.057 A 
ATOM     13  C10 MOL d          26.295  36.112  41.936  0.00  0.00    -0.082 A 
ATOM     14  C11 MOL d          26.560  37.082  40.994  0.00  0.00    -0.081 A 
ATOM     15  H1  MOL d          22.845  34.257  41.419  0.00  0.00     0.037 H 
ATOM     16  H2  MOL d          21.666  35.073  40.337  0.00  0.00     0.037 H 
ATOM     17  H3  MOL d          21.332  37.376  43.353  0.00  0.00     0.078 H 
ATOM     18  H4  MOL d          22.834  36.619  43.984  0.00  0.00     0.078 H 
ATOM     19  H5  MOL d          24.783  35.067  43.047  0.00  0.00     0.084 H 
ATOM     20  H6  MOL d          22.998  38.720  39.587  0.00  0.00     0.169 HD
ATOM     21  H7  MOL d          20.865  33.491  42.410  0.00  0.00     0.075 H 
ATOM     22  H8  MOL d          19.932  34.942  41.911  0.00  0.00     0.075 H 
ATOM     23  H9  MOL d          20.393  35.464  44.076  0.00  0.00     0.277 HD
ATOM     24  H10 MOL d          21.808  34.626  44.132  0.00  0.00     0.277 HD
ATOM     25  H11 MOL d          25.732  38.504  39.616  0.00  0.00     0.086 H 
ATOM     26  H12 MOL d          27.114  35.577  42.401  0.00  0.00     0.083 H 
ATOM     27  H13 MOL d          27.586  37.316  40.739  0.00  0.00     0.083 H 
ENDROOT
TORSDOF 0
ENDMDL
MODEL 6
REMARK VINA RESULT:      -5.6      1.751      4.068
REMARK  0 active torsions:
REMARK  status: ('A' for Active; 'I' for Inactive)
ROOT
ATOM      1  C1  MOL d          24.396  36.389  41.978  0.00  0.00     0.096 A 
ATOM      2  C2  MOL d          23.098  36.840  41.405  0.00  0.00    -0.012 A 
ATOM      3  C3  MOL d          23.917  35.472  43.082  0.00  0.00     0.237 A 
ATOM      4  C4  MOL d          25.178  35.568  40.985  0.00  0.00    -0.021 C 
ATOM      5  C5  MOL d          25.316  37.484  42.479  0.00  0.00     0.101 C 
ATOM      6  C6  MOL d          22.053  36.243  42.043  0.00  0.00     0.042 A 
ATOM      7  C7  MOL d          22.867  37.717  40.386  0.00  0.00    -0.073 A 
ATOM      8  N1  MOL d          22.526  35.410  43.051  0.00  0.00    -0.326 N 
ATOM      9  O1  MOL d          24.688  34.779  43.739  0.00  0.00    -0.272 OA
ATOM     10  C8  MOL d          26.636  35.885  41.232  0.00  0.00     0.083 C 
ATOM     11  N2  MOL d          26.608  37.270  41.754  0.00  0.00    -0.074 N 
ATOM     12  C9  MOL d          20.747  36.467  41.678  0.00  0.00    -0.057 A 
ATOM     13  C10 MOL d          21.563  37.964  40.002  0.00  0.00    -0.082 A 
ATOM     14  C11 MOL d          20.514  37.352  40.653  0.00  0.00    -0.081 A 
ATOM     15  H1  MOL d          24.896  35.843  39.957  0.00  0.00     0.037 H 
ATOM     16  H2  MOL d          24.988  34.496  41.142  0.00  0.00     0.037 H 
ATOM     17  H3  MOL d          25.464  37.397  43.566  0.00  0.00     0.078 H 
ATOM     18  H4  MOL d          24.901  38.475  42.243  0.00  0.00     0.078 H 
ATOM     19  H5  MOL d          23.693  38.211  39.887  0.00  0.00     0.084 H 
ATOM     20  H6  MOL d          21.958  34.854  43.657  0.00  0.00     0.169 HD
ATOM     21  H7  MOL d          27.214  35.829  40.298  0.00  0.00     0.075 H 
ATOM     22  H8  MOL d          27.068  35.195  41.972  0.00  0.00     0.075 H 
ATOM     23  H9  MOL d          27.379  37.409  42.387  0.00  0.00     0.277 HD
ATOM     24  H10 MOL d          26.680  37.922  40.989  0.00  0.00     0.277 HD
ATOM     25  H11 MOL d          19.929  35.963  42.181  0.00  0.00     0.086 H 
ATOM     26  H12 MOL d          21.363  38.645  39.183  0.00  0.00     0.083 H 
ATOM     27  H13 MOL d          19.496  37.570  40.354  0.00  0.00     0.083 H 
ENDROOT
TORSDOF 0
ENDMDL
