MODEL 1
REMARK VINA RESULT:      -6.4      0.000      0.000
REMARK  14 active torsions:
REMARK  status: ('A' for Active; 'I' for Inactive)
REMARK    1  A    between atoms: CA_2  and  N_1 
REMARK    2  A    between atoms: CA_2  and  CB_5 
REMARK    3  A    between atoms: CA_2  and  C_3 
REMARK    4  A    between atoms: CB_5  and  CG_6 
REMARK    5  A    between atoms: CG_6  and  CD_7 
REMARK       I    between atoms: CD_7  and  N_10 
REMARK    6  A    between atoms: N_10  and  CA_11 
REMARK    7  A    between atoms: CA_11  and  CB_12 
REMARK    8  A    between atoms: CA_11  and  C_21 
REMARK    9  A    between atoms: CB_12  and  SG_13 
REMARK   10  A    between atoms: SG_13  and  CD_14 
REMARK   11  A    between atoms: CD_14  and  CE_15 
REMARK       I    between atoms: C_21  and  N_23 
REMARK   12  A    between atoms: N_23  and  CA_24 
REMARK   13  A    between atoms: CA_24  and  CB_25 
REMARK   14  A    between atoms: CA_24  and  C_31 
ROOT
ATOM      1  CA  MOL d           7.421   3.398  27.769  0.00  0.00     0.097 C 
ATOM      2  H10 MOL d           7.045   2.375  27.618  0.00  0.00     0.088 H 
ENDROOT
BRANCH   1   3
ATOM      3  N   MOL d           7.134   3.815  29.135  0.00  0.00    -0.347 N 
ATOM      4  CD  MOL d           6.899   2.949  30.116  0.00  0.00     0.218 C 
ATOM      5  OE1 MOL d           6.956   1.729  29.972  0.00  0.00    -0.274 OA
ATOM      6  H9  MOL d           7.114   4.793  29.343  0.00  0.00     0.163 HD
BRANCH   4   7
ATOM      7  CG  MOL d           6.600   3.564  31.461  0.00  0.00     0.012 C 
ATOM      8  H7  MOL d           5.686   3.100  31.860  0.00  0.00     0.047 H 
ATOM      9  H8  MOL d           7.443   3.354  32.135  0.00  0.00     0.047 H 
BRANCH   7  10
ATOM     10  CB  MOL d           6.391   5.065  31.408  0.00  0.00    -0.021 C 
ATOM     11  H5  MOL d           7.190   5.552  31.987  0.00  0.00     0.037 H 
ATOM     12  H6  MOL d           6.448   5.390  30.359  0.00  0.00     0.037 H 
BRANCH  10  13
ATOM     13  CA  MOL d           5.040   5.496  31.981  0.00  0.00     0.183 C 
ATOM     14  H4  MOL d           5.154   5.653  33.063  0.00  0.00     0.101 H 
BRANCH  13  15
ATOM     15  N   MOL d           4.027   4.428  31.767  0.00  0.00    -0.065 N 
ATOM     16  H1  MOL d           3.235   4.809  31.273  0.00  0.00     0.275 HD
ATOM     17  H2  MOL d           3.724   4.069  32.660  0.00  0.00     0.275 HD
ATOM     18  H3  MOL d           4.434   3.681  31.226  0.00  0.00     0.275 HD
ENDBRANCH  13  15
BRANCH  13  19
ATOM     19  C   MOL d           4.591   6.819  31.347  0.00  0.00     0.204 C 
ATOM     20  O   MOL d           3.863   6.784  30.331  0.00  0.00    -0.646 OA
ATOM     21  OXT MOL d           4.990   7.880  31.866  0.00  0.00    -0.646 OA
ENDBRANCH  13  19
ENDBRANCH  10  13
ENDBRANCH   7  10
ENDBRANCH   4   7
ENDBRANCH   1   3
BRANCH   1  22
ATOM     22  CB  MOL d           6.751   4.349  26.777  0.00  0.00     0.004 C 
ATOM     23  H11 MOL d           6.022   3.769  26.192  0.00  0.00     0.052 H 
ATOM     24  H12 MOL d           7.529   4.743  26.107  0.00  0.00     0.052 H 
BRANCH  22  25
ATOM     25  SG  MOL d           5.893   5.741  27.495  0.00  0.00    -0.162 SA
BRANCH  25  26
ATOM     26  CD  MOL d           7.055   7.068  27.112  0.00  0.00     0.001 C 
ATOM     27  H13 MOL d           6.480   7.977  26.881  0.00  0.00     0.056 H 
ATOM     28  H14 MOL d           7.642   6.771  26.230  0.00  0.00     0.056 H 
BRANCH  26  29
ATOM     29  CE  MOL d           8.010   7.382  28.233  0.00  0.00    -0.049 A 
ATOM     30  CZ1 MOL d           7.551   7.984  29.401  0.00  0.00    -0.076 A 
ATOM     31  CT1 MOL d           8.425   8.280  30.443  0.00  0.00    -0.082 A 
ATOM     32  H15 MOL d           6.499   8.226  29.501  0.00  0.00     0.084 H 
ATOM     33  CH  MOL d           9.778   7.971  30.323  0.00  0.00    -0.083 A 
ATOM     34  H17 MOL d           8.053   8.750  31.347  0.00  0.00     0.083 H 
ATOM     35  CT2 MOL d          10.249   7.370  29.162  0.00  0.00    -0.082 A 
ATOM     36  H19 MOL d          10.462   8.199  31.133  0.00  0.00     0.083 H 
ATOM     37  CZ2 MOL d           9.365   7.078  28.123  0.00  0.00    -0.076 A 
ATOM     38  H18 MOL d          11.302   7.129  29.064  0.00  0.00     0.083 H 
ATOM     39  H16 MOL d           9.737   6.608  27.219  0.00  0.00     0.084 H 
ENDBRANCH  26  29
ENDBRANCH  25  26
ENDBRANCH  22  25
ENDBRANCH   1  22
BRANCH   1  40
ATOM     40  C   MOL d           8.912   3.438  27.493  0.00  0.00     0.242 C 
ATOM     41  O   MOL d           9.725   3.559  28.409  0.00  0.00    -0.271 OA
ATOM     42  N   MOL d           9.252   3.379  26.213  0.00  0.00    -0.341 N 
ATOM     43  H20 MOL d           8.529   3.281  25.529  0.00  0.00     0.163 HD
BRANCH  42  44
ATOM     44  CA  MOL d          10.629   3.451  25.764  0.00  0.00     0.122 C 
ATOM     45  H21 MOL d          11.229   3.143  26.634  0.00  0.00     0.097 H 
BRANCH  44  46
ATOM     46  CB  MOL d          11.055   4.857  25.486  0.00  0.00    -0.025 A 
ATOM     47  CG1 MOL d          10.443   5.605  24.487  0.00  0.00    -0.074 A 
ATOM     48  CD1 MOL d          10.792   6.937  24.281  0.00  0.00    -0.082 A 
ATOM     49  H22 MOL d           9.686   5.146  23.862  0.00  0.00     0.084 H 
ATOM     50  CE  MOL d          11.761   7.528  25.078  0.00  0.00    -0.083 A 
ATOM     51  H24 MOL d          10.306   7.510  23.499  0.00  0.00     0.083 H 
ATOM     52  CD2 MOL d          12.381   6.787  26.075  0.00  0.00    -0.082 A 
ATOM     53  H26 MOL d          12.034   8.566  24.922  0.00  0.00     0.083 H 
ATOM     54  CG2 MOL d          12.026   5.459  26.273  0.00  0.00    -0.074 A 
ATOM     55  H25 MOL d          13.141   7.244  26.698  0.00  0.00     0.083 H 
ATOM     56  H23 MOL d          12.515   4.885  27.053  0.00  0.00     0.084 H 
ENDBRANCH  44  46
BRANCH  44  57
ATOM     57  C   MOL d          10.986   2.439  24.677  0.00  0.00     0.201 C 
ATOM     58  O   MOL d          12.123   2.519  24.176  0.00  0.00    -0.646 OA
ATOM     59  OXT MOL d          10.142   1.580  24.343  0.00  0.00    -0.646 OA
ENDBRANCH  44  57
ENDBRANCH  42  44
ENDBRANCH   1  40
TORSDOF 14
ENDMDL
MODEL 2
REMARK VINA RESULT:      -6.0      2.333      6.624
REMARK  14 active torsions:
REMARK  status: ('A' for Active; 'I' for Inactive)
REMARK    1  A    between atoms: CA_2  and  N_1 
REMARK    2  A    between atoms: CA_2  and  CB_5 
REMARK    3  A    between atoms: CA_2  and  C_3 
REMARK    4  A    between atoms: CB_5  and  CG_6 
REMARK    5  A    between atoms: CG_6  and  CD_7 
REMARK       I    between atoms: CD_7  and  N_10 
REMARK    6  A    between atoms: N_10  and  CA_11 
REMARK    7  A    between atoms: CA_11  and  CB_12 
REMARK    8  A    between atoms: CA_11  and  C_21 
REMARK    9  A    between atoms: CB_12  and  SG_13 
REMARK   10  A    between atoms: SG_13  and  CD_14 
REMARK   11  A    between atoms: CD_14  and  CE_15 
REMARK       I    between atoms: C_21  and  N_23 
REMARK   12  A    between atoms: N_23  and  CA_24 
REMARK   13  A    between atoms: CA_24  and  CB_25 
REMARK   14  A    between atoms: CA_24  and  C_31 
ROOT
ATOM      1  CA  MOL d           7.303   8.156  29.709  0.00  0.00     0.097 C 
ATOM      2  H10 MOL d           7.664   8.827  30.502  0.00  0.00     0.088 H 
ENDROOT
BRANCH   1   3
ATOM      3  N   MOL d           8.387   7.903  28.769  0.00  0.00    -0.347 N 
ATOM      4  CD  MOL d           9.661   7.829  29.144  0.00  0.00     0.218 C 
ATOM      5  OE1 MOL d          10.029   7.911  30.315  0.00  0.00    -0.274 OA
ATOM      6  H9  MOL d           8.164   7.780  27.802  0.00  0.00     0.163 HD
BRANCH   4   7
ATOM      7  CG  MOL d          10.648   7.581  28.030  0.00  0.00     0.012 C 
ATOM      8  H7  MOL d          10.513   8.362  27.267  0.00  0.00     0.047 H 
ATOM      9  H8  MOL d          11.664   7.645  28.445  0.00  0.00     0.047 H 
BRANCH   7  10
ATOM     10  CB  MOL d          10.485   6.228  27.367  0.00  0.00    -0.021 C 
ATOM     11  H5  MOL d          10.121   5.510  28.117  0.00  0.00     0.037 H 
ATOM     12  H6  MOL d           9.746   6.320  26.558  0.00  0.00     0.037 H 
BRANCH  10  13
ATOM     13  CA  MOL d          11.792   5.697  26.776  0.00  0.00     0.183 C 
ATOM     14  H4  MOL d          12.281   5.060  27.528  0.00  0.00     0.101 H 
BRANCH  13  15
ATOM     15  N   MOL d          12.707   6.825  26.453  0.00  0.00    -0.065 N 
ATOM     16  H1  MOL d          13.347   6.969  27.218  0.00  0.00     0.275 HD
ATOM     17  H2  MOL d          12.166   7.663  26.304  0.00  0.00     0.275 HD
ATOM     18  H3  MOL d          13.226   6.608  25.617  0.00  0.00     0.275 HD
ENDBRANCH  13  15
BRANCH  13  19
ATOM     19  C   MOL d          11.507   4.842  25.535  0.00  0.00     0.204 C 
ATOM     20  O   MOL d          11.386   3.605  25.669  0.00  0.00    -0.646 OA
ATOM     21  OXT MOL d          11.425   5.421  24.434  0.00  0.00    -0.646 OA
ENDBRANCH  13  19
ENDBRANCH  10  13
ENDBRANCH   7  10
ENDBRANCH   4   7
ENDBRANCH   1   3
BRANCH   1  22
ATOM     22  CB  MOL d           6.119   8.797  28.985  0.00  0.00     0.004 C 
ATOM     23  H11 MOL d           5.671   9.539  29.662  0.00  0.00     0.052 H 
ATOM     24  H12 MOL d           5.385   8.006  28.770  0.00  0.00     0.052 H 
BRANCH  22  25
ATOM     25  SG  MOL d           6.502   9.620  27.447  0.00  0.00    -0.162 SA
BRANCH  25  26
ATOM     26  CD  MOL d           5.576   8.588  26.291  0.00  0.00     0.001 C 
ATOM     27  H13 MOL d           5.294   9.205  25.424  0.00  0.00     0.056 H 
ATOM     28  H14 MOL d           4.668   8.229  26.797  0.00  0.00     0.056 H 
BRANCH  26  29
ATOM     29  CE  MOL d           6.346   7.393  25.793  0.00  0.00    -0.049 A 
ATOM     30  CZ1 MOL d           6.020   6.113  26.232  0.00  0.00    -0.076 A 
ATOM     31  CT1 MOL d           6.725   5.001  25.779  0.00  0.00    -0.082 A 
ATOM     32  H15 MOL d           5.206   5.979  26.936  0.00  0.00     0.084 H 
ATOM     33  CH  MOL d           7.771   5.165  24.874  0.00  0.00    -0.083 A 
ATOM     34  H17 MOL d           6.460   4.010  26.131  0.00  0.00     0.083 H 
ATOM     35  CT2 MOL d           8.107   6.437  24.428  0.00  0.00    -0.082 A 
ATOM     36  H19 MOL d           8.323   4.302  24.518  0.00  0.00     0.083 H 
ATOM     37  CZ2 MOL d           7.394   7.546  24.888  0.00  0.00    -0.076 A 
ATOM     38  H18 MOL d           8.921   6.569  23.725  0.00  0.00     0.083 H 
ATOM     39  H16 MOL d           7.658   8.537  24.537  0.00  0.00     0.084 H 
ENDBRANCH  26  29
ENDBRANCH  25  26
ENDBRANCH  22  25
ENDBRANCH   1  22
BRANCH   1  40
ATOM     40  C   MOL d           6.807   6.861  30.323  0.00  0.00     0.242 C 
ATOM     41  O   MOL d           6.443   6.814  31.498  0.00  0.00    -0.271 OA
ATOM     42  N   MOL d           6.840   5.806  29.521  0.00  0.00    -0.341 N 
ATOM     43  H20 MOL d           7.149   5.930  28.579  0.00  0.00     0.163 HD
BRANCH  42  44
ATOM     44  CA  MOL d           6.446   4.479  29.956  0.00  0.00     0.122 C 
ATOM     45  H21 MOL d           6.462   4.524  31.056  0.00  0.00     0.097 H 
BRANCH  44  46
ATOM     46  CB  MOL d           7.467   3.447  29.601  0.00  0.00    -0.025 A 
ATOM     47  CG1 MOL d           7.419   2.173  30.154  0.00  0.00    -0.074 A 
ATOM     48  CD1 MOL d           8.326   1.193  29.764  0.00  0.00    -0.082 A 
ATOM     49  H22 MOL d           6.665   1.940  30.896  0.00  0.00     0.084 H 
ATOM     50  CE  MOL d           9.294   1.486  28.814  0.00  0.00    -0.083 A 
ATOM     51  H24 MOL d           8.277   0.202  30.202  0.00  0.00     0.083 H 
ATOM     52  CD2 MOL d           9.353   2.758  28.260  0.00  0.00    -0.082 A 
ATOM     53  H26 MOL d          10.002   0.725  28.506  0.00  0.00     0.083 H 
ATOM     54  CG2 MOL d           8.443   3.729  28.655  0.00  0.00    -0.074 A 
ATOM     55  H25 MOL d          10.109   2.993  27.520  0.00  0.00     0.083 H 
ATOM     56  H23 MOL d           8.495   4.721  28.219  0.00  0.00     0.084 H 
ENDBRANCH  44  46
BRANCH  44  57
ATOM     57  C   MOL d           5.005   4.111  29.611  0.00  0.00     0.201 C 
ATOM     58  O   MOL d           4.130   4.381  30.455  0.00  0.00    -0.646 OA
ATOM     59  OXT MOL d           4.761   3.568  28.512  0.00  0.00    -0.646 OA
ENDBRANCH  44  57
ENDBRANCH  42  44
ENDBRANCH   1  40
TORSDOF 14
ENDMDL
MODEL 3
REMARK VINA RESULT:      -5.7      2.213      4.026
REMARK  14 active torsions:
REMARK  status: ('A' for Active; 'I' for Inactive)
REMARK    1  A    between atoms: CA_2  and  N_1 
REMARK    2  A    between atoms: CA_2  and  CB_5 
REMARK    3  A    between atoms: CA_2  and  C_3 
REMARK    4  A    between atoms: CB_5  and  CG_6 
REMARK    5  A    between atoms: CG_6  and  CD_7 
REMARK       I    between atoms: CD_7  and  N_10 
REMARK    6  A    between atoms: N_10  and  CA_11 
REMARK    7  A    between atoms: CA_11  and  CB_12 
REMARK    8  A    between atoms: CA_11  and  C_21 
REMARK    9  A    between atoms: CB_12  and  SG_13 
REMARK   10  A    between atoms: SG_13  and  CD_14 
REMARK   11  A    between atoms: CD_14  and  CE_15 
REMARK       I    between atoms: C_21  and  N_23 
REMARK   12  A    between atoms: N_23  and  CA_24 
REMARK   13  A    between atoms: CA_24  and  CB_25 
REMARK   14  A    between atoms: CA_24  and  C_31 
ROOT
ATOM      1  CA  MOL d           5.691   4.877  28.354  0.00  0.00     0.097 C 
ATOM      2  H10 MOL d           4.963   4.157  28.755  0.00  0.00     0.088 H 
ENDROOT
BRANCH   1   3
ATOM      3  N   MOL d           5.364   6.209  28.845  0.00  0.00    -0.347 N 
ATOM      4  CD  MOL d           4.366   6.438  29.693  0.00  0.00     0.218 C 
ATOM      5  OE1 MOL d           3.670   5.548  30.177  0.00  0.00    -0.274 OA
ATOM      6  H9  MOL d           5.914   6.983  28.532  0.00  0.00     0.163 HD
BRANCH   4   7
ATOM      7  CG  MOL d           4.163   7.883  30.075  0.00  0.00     0.012 C 
ATOM      8  H7  MOL d           4.276   8.501  29.172  0.00  0.00     0.047 H 
ATOM      9  H8  MOL d           3.144   7.998  30.473  0.00  0.00     0.047 H 
BRANCH   7  10
ATOM     10  CB  MOL d           5.145   8.377  31.120  0.00  0.00    -0.021 C 
ATOM     11  H5  MOL d           4.597   8.981  31.859  0.00  0.00     0.037 H 
ATOM     12  H6  MOL d           5.595   7.506  31.618  0.00  0.00     0.037 H 
BRANCH  10  13
ATOM     13  CA  MOL d           6.265   9.231  30.523  0.00  0.00     0.183 C 
ATOM     14  H4  MOL d           6.464  10.071  31.205  0.00  0.00     0.101 H 
BRANCH  13  15
ATOM     15  N   MOL d           5.844   9.786  29.208  0.00  0.00    -0.065 N 
ATOM     16  H1  MOL d           4.931   9.430  28.970  0.00  0.00     0.275 HD
ATOM     17  H2  MOL d           6.506   9.510  28.499  0.00  0.00     0.275 HD
ATOM     18  H3  MOL d           5.809  10.791  29.262  0.00  0.00     0.275 HD
ENDBRANCH  13  15
BRANCH  13  19
ATOM     19  C   MOL d           7.550   8.405  30.389  0.00  0.00     0.204 C 
ATOM     20  O   MOL d           7.614   7.294  30.959  0.00  0.00    -0.646 OA
ATOM     21  OXT MOL d           8.489   8.890  29.729  0.00  0.00    -0.646 OA
ENDBRANCH  13  19
ENDBRANCH  10  13
ENDBRANCH   7  10
ENDBRANCH   4   7
ENDBRANCH   1   3
BRANCH   1  22
ATOM     22  CB  MOL d           5.654   4.856  26.826  0.00  0.00     0.004 C 
ATOM     23  H11 MOL d           4.677   4.456  26.517  0.00  0.00     0.052 H 
ATOM     24  H12 MOL d           6.452   4.184  26.478  0.00  0.00     0.052 H 
BRANCH  22  25
ATOM     25  SG  MOL d           5.878   6.435  26.022  0.00  0.00    -0.162 SA
BRANCH  25  26
ATOM     26  CD  MOL d           6.246   5.890  24.341  0.00  0.00     0.001 C 
ATOM     27  H13 MOL d           5.706   6.544  23.638  0.00  0.00     0.056 H 
ATOM     28  H14 MOL d           5.890   4.855  24.226  0.00  0.00     0.056 H 
BRANCH  26  29
ATOM     29  CE  MOL d           7.711   5.930  23.996  0.00  0.00    -0.049 A 
ATOM     30  CZ1 MOL d           8.278   7.084  23.463  0.00  0.00    -0.076 A 
ATOM     31  CT1 MOL d           9.631   7.131  23.139  0.00  0.00    -0.082 A 
ATOM     32  H15 MOL d           7.658   7.957  23.297  0.00  0.00     0.084 H 
ATOM     33  CH  MOL d          10.434   6.012  23.350  0.00  0.00    -0.083 A 
ATOM     34  H17 MOL d          10.059   8.037  22.724  0.00  0.00     0.083 H 
ATOM     35  CT2 MOL d           9.881   4.854  23.881  0.00  0.00    -0.082 A 
ATOM     36  H19 MOL d          11.489   6.045  23.101  0.00  0.00     0.083 H 
ATOM     37  CZ2 MOL d           8.523   4.817  24.203  0.00  0.00    -0.076 A 
ATOM     38  H18 MOL d          10.502   3.981  24.046  0.00  0.00     0.083 H 
ATOM     39  H16 MOL d           8.095   3.911  24.618  0.00  0.00     0.084 H 
ENDBRANCH  26  29
ENDBRANCH  25  26
ENDBRANCH  22  25
ENDBRANCH   1  22
BRANCH   1  40
ATOM     40  C   MOL d           7.091   4.474  28.776  0.00  0.00     0.242 C 
ATOM     41  O   MOL d           7.344   4.185  29.945  0.00  0.00    -0.271 OA
ATOM     42  N   MOL d           8.001   4.501  27.813  0.00  0.00    -0.341 N 
ATOM     43  H20 MOL d           7.713   4.747  26.887  0.00  0.00     0.163 HD
BRANCH  42  44
ATOM     44  CA  MOL d           9.399   4.190  28.046  0.00  0.00     0.122 C 
ATOM     45  H21 MOL d           9.525   4.249  29.138  0.00  0.00     0.097 H 
BRANCH  44  46
ATOM     46  CB  MOL d          10.306   5.245  27.500  0.00  0.00    -0.025 A 
ATOM     47  CG1 MOL d          11.602   4.937  27.102  0.00  0.00    -0.074 A 
ATOM     48  CD1 MOL d          12.418   5.905  26.525  0.00  0.00    -0.082 A 
ATOM     49  H22 MOL d          11.981   3.932  27.242  0.00  0.00     0.084 H 
ATOM     50  CE  MOL d          11.938   7.195  26.344  0.00  0.00    -0.083 A 
ATOM     51  H24 MOL d          13.427   5.653  26.218  0.00  0.00     0.083 H 
ATOM     52  CD2 MOL d          10.647   7.512  26.743  0.00  0.00    -0.082 A 
ATOM     53  H26 MOL d          12.570   7.952  25.893  0.00  0.00     0.083 H 
ATOM     54  CG2 MOL d           9.840   6.539  27.318  0.00  0.00    -0.074 A 
ATOM     55  H25 MOL d          10.268   8.518  26.606  0.00  0.00     0.083 H 
ATOM     56  H23 MOL d           8.832   6.793  27.627  0.00  0.00     0.084 H 
ENDBRANCH  44  46
BRANCH  44  57
ATOM     57  C   MOL d           9.787   2.756  27.695  0.00  0.00     0.201 C 
ATOM     58  O   MOL d          10.366   2.090  28.575  0.00  0.00    -0.646 OA
ATOM     59  OXT MOL d           9.508   2.309  26.562  0.00  0.00    -0.646 OA
ENDBRANCH  44  57
ENDBRANCH  42  44
ENDBRANCH   1  40
TORSDOF 14
ENDMDL
MODEL 4
REMARK VINA RESULT:      -5.7      2.187      7.172
REMARK  14 active torsions:
REMARK  status: ('A' for Active; 'I' for Inactive)
REMARK    1  A    between atoms: CA_2  and  N_1 
REMARK    2  A    between atoms: CA_2  and  CB_5 
REMARK    3  A    between atoms: CA_2  and  C_3 
REMARK    4  A    between atoms: CB_5  and  CG_6 
REMARK    5  A    between atoms: CG_6  and  CD_7 
REMARK       I    between atoms: CD_7  and  N_10 
REMARK    6  A    between atoms: N_10  and  CA_11 
REMARK    7  A    between atoms: CA_11  and  CB_12 
REMARK    8  A    between atoms: CA_11  and  C_21 
REMARK    9  A    between atoms: CB_12  and  SG_13 
REMARK   10  A    between atoms: SG_13  and  CD_14 
REMARK   11  A    between atoms: CD_14  and  CE_15 
REMARK       I    between atoms: C_21  and  N_23 
REMARK   12  A    between atoms: N_23  and  CA_24 
REMARK   13  A    between atoms: CA_24  and  CB_25 
REMARK   14  A    between atoms: CA_24  and  C_31 
ROOT
ATOM      1  CA  MOL d           6.467   7.940  29.466  0.00  0.00     0.097 C 
ATOM      2  H10 MOL d           6.513   8.714  30.246  0.00  0.00     0.088 H 
ENDROOT
BRANCH   1   3
ATOM      3  N   MOL d           7.811   7.684  28.967  0.00  0.00    -0.347 N 
ATOM      4  CD  MOL d           8.899   7.855  29.712  0.00  0.00     0.218 C 
ATOM      5  OE1 MOL d           8.865   8.189  30.896  0.00  0.00    -0.274 OA
ATOM      6  H9  MOL d           7.921   7.367  28.026  0.00  0.00     0.163 HD
BRANCH   4   7
ATOM      7  CG  MOL d          10.208   7.561  29.022  0.00  0.00     0.012 C 
ATOM      8  H7  MOL d          10.778   8.498  28.944  0.00  0.00     0.047 H 
ATOM      9  H8  MOL d          10.769   6.839  29.632  0.00  0.00     0.047 H 
BRANCH   7  10
ATOM     10  CB  MOL d          10.041   6.984  27.630  0.00  0.00    -0.021 C 
ATOM     11  H5  MOL d           9.453   6.057  27.701  0.00  0.00     0.037 H 
ATOM     12  H6  MOL d           9.501   7.714  27.009  0.00  0.00     0.037 H 
BRANCH  10  13
ATOM     13  CA  MOL d          11.377   6.664  26.957  0.00  0.00     0.183 C 
ATOM     14  H4  MOL d          12.175   7.195  27.497  0.00  0.00     0.101 H 
BRANCH  13  15
ATOM     15  N   MOL d          11.370   7.140  25.547  0.00  0.00    -0.065 N 
ATOM     16  H1  MOL d          10.734   7.917  25.458  0.00  0.00     0.275 HD
ATOM     17  H2  MOL d          11.073   6.391  24.941  0.00  0.00     0.275 HD
ATOM     18  H3  MOL d          12.299   7.434  25.287  0.00  0.00     0.275 HD
ENDBRANCH  13  15
BRANCH  13  19
ATOM     19  C   MOL d          11.664   5.159  27.032  0.00  0.00     0.204 C 
ATOM     20  O   MOL d          12.227   4.604  26.064  0.00  0.00    -0.646 OA
ATOM     21  OXT MOL d          11.303   4.547  28.056  0.00  0.00    -0.646 OA
ENDBRANCH  13  19
ENDBRANCH  10  13
ENDBRANCH   7  10
ENDBRANCH   4   7
ENDBRANCH   1   3
BRANCH   1  22
ATOM     22  CB  MOL d           5.563   8.407  28.324  0.00  0.00     0.004 C 
ATOM     23  H11 MOL d           5.114   9.367  28.620  0.00  0.00     0.052 H 
ATOM     24  H12 MOL d           4.770   7.657  28.192  0.00  0.00     0.052 H 
BRANCH  22  25
ATOM     25  SG  MOL d           6.364   8.641  26.745  0.00  0.00    -0.162 SA
BRANCH  25  26
ATOM     26  CD  MOL d           5.777   7.178  25.867  0.00  0.00     0.001 C 
ATOM     27  H13 MOL d           5.401   7.492  24.882  0.00  0.00     0.056 H 
ATOM     28  H14 MOL d           4.956   6.731  26.448  0.00  0.00     0.056 H 
BRANCH  26  29
ATOM     29  CE  MOL d           6.836   6.128  25.659  0.00  0.00    -0.049 A 
ATOM     30  CZ1 MOL d           7.637   6.152  24.520  0.00  0.00    -0.076 A 
ATOM     31  CT1 MOL d           8.618   5.186  24.316  0.00  0.00    -0.082 A 
ATOM     32  H15 MOL d           7.494   6.933  23.782  0.00  0.00     0.084 H 
ATOM     33  CH  MOL d           8.807   4.179  25.261  0.00  0.00    -0.083 A 
ATOM     34  H17 MOL d           9.233   5.217  23.424  0.00  0.00     0.083 H 
ATOM     35  CT2 MOL d           8.014   4.144  26.402  0.00  0.00    -0.082 A 
ATOM     36  H19 MOL d           9.571   3.425  25.107  0.00  0.00     0.083 H 
ATOM     37  CZ2 MOL d           7.033   5.117  26.597  0.00  0.00    -0.076 A 
ATOM     38  H18 MOL d           8.158   3.362  27.139  0.00  0.00     0.083 H 
ATOM     39  H16 MOL d           6.418   5.086  27.489  0.00  0.00     0.084 H 
ENDBRANCH  26  29
ENDBRANCH  25  26
ENDBRANCH  22  25
ENDBRANCH   1  22
BRANCH   1  40
ATOM     40  C   MOL d           5.852   6.677  30.037  0.00  0.00     0.242 C 
ATOM     41  O   MOL d           4.897   6.130  29.487  0.00  0.00    -0.271 OA
ATOM     42  N   MOL d           6.390   6.251  31.171  0.00  0.00    -0.341 N 
ATOM     43  H20 MOL d           7.165   6.753  31.553  0.00  0.00     0.163 HD
BRANCH  42  44
ATOM     44  CA  MOL d           5.897   5.086  31.882  0.00  0.00     0.122 C 
ATOM     45  H21 MOL d           6.318   5.171  32.895  0.00  0.00     0.097 H 
BRANCH  44  46
ATOM     46  CB  MOL d           6.467   3.815  31.338  0.00  0.00    -0.025 A 
ATOM     47  CG1 MOL d           7.220   3.811  30.169  0.00  0.00    -0.074 A 
ATOM     48  CD1 MOL d           7.810   2.639  29.707  0.00  0.00    -0.082 A 
ATOM     49  H22 MOL d           7.348   4.732  29.612  0.00  0.00     0.084 H 
ATOM     50  CE  MOL d           7.648   1.458  30.416  0.00  0.00    -0.083 A 
ATOM     51  H24 MOL d           8.395   2.649  28.794  0.00  0.00     0.083 H 
ATOM     52  CD2 MOL d           6.894   1.451  31.582  0.00  0.00    -0.082 A 
ATOM     53  H26 MOL d           8.109   0.543  30.061  0.00  0.00     0.083 H 
ATOM     54  CG2 MOL d           6.309   2.626  32.036  0.00  0.00    -0.074 A 
ATOM     55  H25 MOL d           6.763   0.531  32.139  0.00  0.00     0.083 H 
ATOM     56  H23 MOL d           5.721   2.615  32.947  0.00  0.00     0.084 H 
ENDBRANCH  44  46
BRANCH  44  57
ATOM     57  C   MOL d           4.385   5.078  32.097  0.00  0.00     0.201 C 
ATOM     58  O   MOL d           3.736   4.168  31.545  0.00  0.00    -0.646 OA
ATOM     59  OXT MOL d           3.866   5.962  32.810  0.00  0.00    -0.646 OA
ENDBRANCH  44  57
ENDBRANCH  42  44
ENDBRANCH   1  40
TORSDOF 14
ENDMDL
MODEL 5
REMARK VINA RESULT:      -5.7      1.503      2.123
REMARK  14 active torsions:
REMARK  status: ('A' for Active; 'I' for Inactive)
REMARK    1  A    between atoms: CA_2  and  N_1 
REMARK    2  A    between atoms: CA_2  and  CB_5 
REMARK    3  A    between atoms: CA_2  and  C_3 
REMARK    4  A    between atoms: CB_5  and  CG_6 
REMARK    5  A    between atoms: CG_6  and  CD_7 
REMARK       I    between atoms: CD_7  and  N_10 
REMARK    6  A    between atoms: N_10  and  CA_11 
REMARK    7  A    between atoms: CA_11  and  CB_12 
REMARK    8  A    between atoms: CA_11  and  C_21 
REMARK    9  A    between atoms: CB_12  and  SG_13 
REMARK   10  A    between atoms: SG_13  and  CD_14 
REMARK   11  A    between atoms: CD_14  and  CE_15 
REMARK       I    between atoms: C_21  and  N_23 
REMARK   12  A    between atoms: N_23  and  CA_24 
REMARK   13  A    between atoms: CA_24  and  CB_25 
REMARK   14  A    between atoms: CA_24  and  C_31 
ROOT
ATOM      1  CA  MOL d           7.538   2.926  28.031  0.00  0.00     0.097 C 
ATOM      2  H10 MOL d           7.270   1.863  27.938  0.00  0.00     0.088 H 
ENDROOT
BRANCH   1   3
ATOM      3  N   MOL d           7.352   3.346  29.413  0.00  0.00    -0.347 N 
ATOM      4  CD  MOL d           6.872   2.536  30.352  0.00  0.00     0.218 C 
ATOM      5  OE1 MOL d           6.597   1.354  30.152  0.00  0.00    -0.274 OA
ATOM      6  H9  MOL d           7.595   4.282  29.667  0.00  0.00     0.163 HD
BRANCH   4   7
ATOM      7  CG  MOL d           6.729   3.149  31.723  0.00  0.00     0.012 C 
ATOM      8  H7  MOL d           7.093   2.426  32.467  0.00  0.00     0.047 H 
ATOM      9  H8  MOL d           7.346   4.059  31.763  0.00  0.00     0.047 H 
BRANCH   7  10
ATOM     10  CB  MOL d           5.302   3.522  32.073  0.00  0.00    -0.021 C 
ATOM     11  H5  MOL d           4.788   2.626  32.452  0.00  0.00     0.037 H 
ATOM     12  H6  MOL d           5.322   4.292  32.858  0.00  0.00     0.037 H 
BRANCH  10  13
ATOM     13  CA  MOL d           4.520   4.064  30.876  0.00  0.00     0.183 C 
ATOM     14  H4  MOL d           5.229   4.271  30.061  0.00  0.00     0.101 H 
BRANCH  13  15
ATOM     15  N   MOL d           3.840   5.337  31.239  0.00  0.00    -0.065 N 
ATOM     16  H1  MOL d           3.712   5.898  30.411  0.00  0.00     0.275 HD
ATOM     17  H2  MOL d           4.406   5.842  31.903  0.00  0.00     0.275 HD
ATOM     18  H3  MOL d           2.942   5.133  31.649  0.00  0.00     0.275 HD
ENDBRANCH  13  15
BRANCH  13  19
ATOM     19  C   MOL d           3.512   3.019  30.381  0.00  0.00     0.204 C 
ATOM     20  O   MOL d           3.130   2.129  31.172  0.00  0.00    -0.646 OA
ATOM     21  OXT MOL d           3.128   3.093  29.198  0.00  0.00    -0.646 OA
ENDBRANCH  13  19
ENDBRANCH  10  13
ENDBRANCH   7  10
ENDBRANCH   4   7
ENDBRANCH   1   3
BRANCH   1  22
ATOM     22  CB  MOL d           6.658   3.766  27.104  0.00  0.00     0.004 C 
ATOM     23  H11 MOL d           5.800   3.147  26.801  0.00  0.00     0.052 H 
ATOM     24  H12 MOL d           7.254   4.027  26.217  0.00  0.00     0.052 H 
BRANCH  22  25
ATOM     25  SG  MOL d           6.021   5.282  27.801  0.00  0.00    -0.162 SA
BRANCH  25  26
ATOM     26  CD  MOL d           7.278   6.448  27.236  0.00  0.00     0.001 C 
ATOM     27  H13 MOL d           6.770   7.315  26.786  0.00  0.00     0.056 H 
ATOM     28  H14 MOL d           7.896   5.950  26.475  0.00  0.00     0.056 H 
BRANCH  26  29
ATOM     29  CE  MOL d           8.182   6.944  28.332  0.00  0.00    -0.049 A 
ATOM     30  CZ1 MOL d           9.558   7.018  28.131  0.00  0.00    -0.076 A 
ATOM     31  CT1 MOL d          10.404   7.474  29.138  0.00  0.00    -0.082 A 
ATOM     32  H15 MOL d           9.976   6.717  27.177  0.00  0.00     0.084 H 
ATOM     33  CH  MOL d           9.873   7.864  30.366  0.00  0.00    -0.083 A 
ATOM     34  H17 MOL d          11.473   7.525  28.967  0.00  0.00     0.083 H 
ATOM     35  CT2 MOL d           8.502   7.795  30.580  0.00  0.00    -0.082 A 
ATOM     36  H19 MOL d          10.528   8.221  31.153  0.00  0.00     0.083 H 
ATOM     37  CZ2 MOL d           7.662   7.336  29.564  0.00  0.00    -0.076 A 
ATOM     38  H18 MOL d           8.086   8.096  31.534  0.00  0.00     0.083 H 
ATOM     39  H16 MOL d           6.593   7.285  29.735  0.00  0.00     0.084 H 
ENDBRANCH  26  29
ENDBRANCH  25  26
ENDBRANCH  22  25
ENDBRANCH   1  22
BRANCH   1  40
ATOM     40  C   MOL d           8.975   3.130  27.592  0.00  0.00     0.242 C 
ATOM     41  O   MOL d           9.898   3.097  28.406  0.00  0.00    -0.271 OA
ATOM     42  N   MOL d           9.142   3.384  26.302  0.00  0.00    -0.341 N 
ATOM     43  H20 MOL d           8.338   3.393  25.707  0.00  0.00     0.163 HD
BRANCH  42  44
ATOM     44  CA  MOL d          10.443   3.650  25.718  0.00  0.00     0.122 C 
ATOM     45  H21 MOL d          11.135   3.695  26.572  0.00  0.00     0.097 H 
BRANCH  44  46
ATOM     46  CB  MOL d          10.512   5.009  25.098  0.00  0.00    -0.025 A 
ATOM     47  CG1 MOL d          11.439   5.948  25.535  0.00  0.00    -0.074 A 
ATOM     48  CD1 MOL d          11.549   7.185  24.906  0.00  0.00    -0.082 A 
ATOM     49  H22 MOL d          12.082   5.715  26.375  0.00  0.00     0.084 H 
ATOM     50  CE  MOL d          10.727   7.489  23.831  0.00  0.00    -0.083 A 
ATOM     51  H24 MOL d          12.277   7.908  25.256  0.00  0.00     0.083 H 
ATOM     52  CD2 MOL d           9.795   6.558  23.391  0.00  0.00    -0.082 A 
ATOM     53  H26 MOL d          10.811   8.450  23.337  0.00  0.00     0.083 H 
ATOM     54  CG2 MOL d           9.692   5.327  24.025  0.00  0.00    -0.074 A 
ATOM     55  H25 MOL d           9.149   6.792  22.553  0.00  0.00     0.083 H 
ATOM     56  H23 MOL d           8.962   4.605  23.676  0.00  0.00     0.084 H 
ENDBRANCH  44  46
BRANCH  44  57
ATOM     57  C   MOL d          10.982   2.515  24.851  0.00  0.00     0.201 C 
ATOM     58  O   MOL d          10.179   1.624  24.515  0.00  0.00    -0.646 OA
ATOM     59  OXT MOL d          12.185   2.525  24.511  0.00  0.00    -0.646 OA
ENDBRANCH  44  57
ENDBRANCH  42  44
ENDBRANCH   1  40
TORSDOF 14
ENDMDL
MODEL 6
REMARK VINA RESULT:      -5.6      2.571      6.148
REMARK  14 active torsions:
REMARK  status: ('A' for Active; 'I' for Inactive)
REMARK    1  A    between atoms: CA_2  and  N_1 
REMARK    2  A    between atoms: CA_2  and  CB_5 
REMARK    3  A    between atoms: CA_2  and  C_3 
REMARK    4  A    between atoms: CB_5  and  CG_6 
REMARK    5  A    between atoms: CG_6  and  CD_7 
REMARK       I    between atoms: CD_7  and  N_10 
REMARK    6  A    between atoms: N_10  and  CA_11 
REMARK    7  A    between atoms: CA_11  and  CB_12 
REMARK    8  A    between atoms: CA_11  and  C_21 
REMARK    9  A    between atoms: CB_12  and  SG_13 
REMARK   10  A    between atoms: SG_13  and  CD_14 
REMARK   11  A    between atoms: CD_14  and  CE_15 
REMARK       I    between atoms: C_21  and  N_23 
REMARK   12  A    between atoms: N_23  and  CA_24 
REMARK   13  A    between atoms: CA_24  and  CB_25 
REMARK   14  A    between atoms: CA_24  and  C_31 
ROOT
ATOM      1  CA  MOL d           9.712   5.085  28.026  0.00  0.00     0.097 C 
ATOM      2  H10 MOL d          10.690   4.908  28.498  0.00  0.00     0.088 H 
ENDROOT
BRANCH   1   3
ATOM      3  N   MOL d           8.887   3.894  28.179  0.00  0.00    -0.347 N 
ATOM      4  CD  MOL d           9.400   2.682  28.363  0.00  0.00     0.218 C 
ATOM      5  OE1 MOL d          10.606   2.466  28.475  0.00  0.00    -0.274 OA
ATOM      6  H9  MOL d           7.892   3.993  28.145  0.00  0.00     0.163 HD
BRANCH   4   7
ATOM      7  CG  MOL d           8.393   1.565  28.481  0.00  0.00     0.012 C 
ATOM      8  H7  MOL d           7.481   1.861  27.940  0.00  0.00     0.047 H 
ATOM      9  H8  MOL d           8.818   0.663  28.017  0.00  0.00     0.047 H 
BRANCH   7  10
ATOM     10  CB  MOL d           8.017   1.237  29.912  0.00  0.00    -0.021 C 
ATOM     11  H5  MOL d           8.042   0.144  30.041  0.00  0.00     0.037 H 
ATOM     12  H6  MOL d           8.753   1.702  30.584  0.00  0.00     0.037 H 
BRANCH  10  13
ATOM     13  CA  MOL d           6.623   1.742  30.289  0.00  0.00     0.183 C 
ATOM     14  H4  MOL d           6.096   0.941  30.828  0.00  0.00     0.101 H 
BRANCH  13  15
ATOM     15  N   MOL d           5.847   2.072  29.064  0.00  0.00    -0.065 N 
ATOM     16  H1  MOL d           5.666   1.228  28.543  0.00  0.00     0.275 HD
ATOM     17  H2  MOL d           6.377   2.712  28.493  0.00  0.00     0.275 HD
ATOM     18  H3  MOL d           4.973   2.500  29.325  0.00  0.00     0.275 HD
ENDBRANCH  13  15
BRANCH  13  19
ATOM     19  C   MOL d           6.731   2.957  31.220  0.00  0.00     0.204 C 
ATOM     20  O   MOL d           7.231   4.013  30.776  0.00  0.00    -0.646 OA
ATOM     21  OXT MOL d           6.330   2.831  32.393  0.00  0.00    -0.646 OA
ENDBRANCH  13  19
ENDBRANCH  10  13
ENDBRANCH   7  10
ENDBRANCH   4   7
ENDBRANCH   1   3
BRANCH   1  22
ATOM     22  CB  MOL d           9.902   5.405  26.543  0.00  0.00     0.004 C 
ATOM     23  H11 MOL d          10.982   5.458  26.345  0.00  0.00     0.052 H 
ATOM     24  H12 MOL d           9.445   6.387  26.348  0.00  0.00     0.052 H 
BRANCH  22  25
ATOM     25  SG  MOL d           9.191   4.234  25.398  0.00  0.00    -0.162 SA
BRANCH  25  26
ATOM     26  CD  MOL d           8.546   5.361  24.144  0.00  0.00     0.001 C 
ATOM     27  H13 MOL d           8.699   4.903  23.155  0.00  0.00     0.056 H 
ATOM     28  H14 MOL d           9.110   6.304  24.202  0.00  0.00     0.056 H 
BRANCH  26  29
ATOM     29  CE  MOL d           7.082   5.673  24.302  0.00  0.00    -0.049 A 
ATOM     30  CZ1 MOL d           6.395   5.270  25.444  0.00  0.00    -0.076 A 
ATOM     31  CT1 MOL d           5.041   5.551  25.600  0.00  0.00    -0.082 A 
ATOM     32  H15 MOL d           6.922   4.729  26.222  0.00  0.00     0.084 H 
ATOM     33  CH  MOL d           4.358   6.246  24.604  0.00  0.00    -0.083 A 
ATOM     34  H17 MOL d           4.520   5.230  26.495  0.00  0.00     0.083 H 
ATOM     35  CT2 MOL d           5.031   6.654  23.459  0.00  0.00    -0.082 A 
ATOM     36  H19 MOL d           3.303   6.469  24.722  0.00  0.00     0.083 H 
ATOM     37  CZ2 MOL d           6.389   6.367  23.312  0.00  0.00    -0.076 A 
ATOM     38  H18 MOL d           4.503   7.194  22.682  0.00  0.00     0.083 H 
ATOM     39  H16 MOL d           6.911   6.687  22.418  0.00  0.00     0.084 H 
ENDBRANCH  26  29
ENDBRANCH  25  26
ENDBRANCH  22  25
ENDBRANCH   1  22
BRANCH   1  40
ATOM     40  C   MOL d           9.048   6.289  28.665  0.00  0.00     0.242 C 
ATOM     41  O   MOL d           9.715   7.168  29.209  0.00  0.00    -0.271 OA
ATOM     42  N   MOL d           7.723   6.291  28.626  0.00  0.00    -0.341 N 
ATOM     43  H20 MOL d           7.256   5.538  28.163  0.00  0.00     0.163 HD
BRANCH  42  44
ATOM     44  CA  MOL d           6.923   7.340  29.229  0.00  0.00     0.122 C 
ATOM     45  H21 MOL d           7.534   7.723  30.059  0.00  0.00     0.097 H 
BRANCH  44  46
ATOM     46  CB  MOL d           5.689   6.802  29.879  0.00  0.00    -0.025 A 
ATOM     47  CG1 MOL d           4.856   5.915  29.208  0.00  0.00    -0.074 A 
ATOM     48  CD1 MOL d           3.749   5.359  29.843  0.00  0.00    -0.082 A 
ATOM     49  H22 MOL d           5.069   5.654  28.178  0.00  0.00     0.084 H 
ATOM     50  CE  MOL d           3.471   5.691  31.161  0.00  0.00    -0.083 A 
ATOM     51  H24 MOL d           3.107   4.668  29.309  0.00  0.00     0.083 H 
ATOM     52  CD2 MOL d           4.296   6.579  31.838  0.00  0.00    -0.082 A 
ATOM     53  H26 MOL d           2.611   5.257  31.661  0.00  0.00     0.083 H 
ATOM     54  CG2 MOL d           5.397   7.129  31.196  0.00  0.00    -0.074 A 
ATOM     55  H25 MOL d           4.081   6.843  32.867  0.00  0.00     0.083 H 
ATOM     56  H23 MOL d           6.038   7.822  31.730  0.00  0.00     0.084 H 
ENDBRANCH  44  46
BRANCH  44  57
ATOM     57  C   MOL d           6.703   8.553  28.327  0.00  0.00     0.201 C 
ATOM     58  O   MOL d           6.875   9.678  28.834  0.00  0.00    -0.646 OA
ATOM     59  OXT MOL d           6.371   8.376  27.135  0.00  0.00    -0.646 OA
ENDBRANCH  44  57
ENDBRANCH  42  44
ENDBRANCH   1  40
TORSDOF 14
ENDMDL
MODEL 7
REMARK VINA RESULT:      -5.4      1.615      2.914
REMARK  14 active torsions:
REMARK  status: ('A' for Active; 'I' for Inactive)
REMARK    1  A    between atoms: CA_2  and  N_1 
REMARK    2  A    between atoms: CA_2  and  CB_5 
REMARK    3  A    between atoms: CA_2  and  C_3 
REMARK    4  A    between atoms: CB_5  and  CG_6 
REMARK    5  A    between atoms: CG_6  and  CD_7 
REMARK       I    between atoms: CD_7  and  N_10 
REMARK    6  A    between atoms: N_10  and  CA_11 
REMARK    7  A    between atoms: CA_11  and  CB_12 
REMARK    8  A    between atoms: CA_11  and  C_21 
REMARK    9  A    between atoms: CB_12  and  SG_13 
REMARK   10  A    between atoms: SG_13  and  CD_14 
REMARK   11  A    between atoms: CD_14  and  CE_15 
REMARK       I    between atoms: C_21  and  N_23 
REMARK   12  A    between atoms: N_23  and  CA_24 
REMARK   13  A    between atoms: CA_24  and  CB_25 
REMARK   14  A    between atoms: CA_24  and  C_31 
ROOT
ATOM      1  CA  MOL d           7.565   3.013  28.189  0.00  0.00     0.097 C 
ATOM      2  H10 MOL d           7.400   1.925  28.163  0.00  0.00     0.088 H 
ENDROOT
BRANCH   1   3
ATOM      3  N   MOL d           7.366   3.493  29.550  0.00  0.00    -0.347 N 
ATOM      4  CD  MOL d           6.646   2.828  30.449  0.00  0.00     0.218 C 
ATOM      5  OE1 MOL d           6.133   1.732  30.230  0.00  0.00    -0.274 OA
ATOM      6  H9  MOL d           7.789   4.358  29.820  0.00  0.00     0.163 HD
BRANCH   4   7
ATOM      7  CG  MOL d           6.532   3.488  31.801  0.00  0.00     0.012 C 
ATOM      8  H7  MOL d           5.643   3.088  32.309  0.00  0.00     0.047 H 
ATOM      9  H8  MOL d           7.431   3.241  32.385  0.00  0.00     0.047 H 
BRANCH   7  10
ATOM     10  CB  MOL d           6.407   4.997  31.729  0.00  0.00    -0.021 C 
ATOM     11  H5  MOL d           7.160   5.445  32.394  0.00  0.00     0.037 H 
ATOM     12  H6  MOL d           6.595   5.317  30.694  0.00  0.00     0.037 H 
BRANCH  10  13
ATOM     13  CA  MOL d           5.024   5.497  32.150  0.00  0.00     0.183 C 
ATOM     14  H4  MOL d           5.052   5.739  33.223  0.00  0.00     0.101 H 
BRANCH  13  15
ATOM     15  N   MOL d           4.005   4.433  31.937  0.00  0.00    -0.065 N 
ATOM     16  H1  MOL d           4.463   3.537  31.876  0.00  0.00     0.275 HD
ATOM     17  H2  MOL d           3.505   4.613  31.081  0.00  0.00     0.275 HD
ATOM     18  H3  MOL d           3.358   4.428  32.710  0.00  0.00     0.275 HD
ENDBRANCH  13  15
BRANCH  13  19
ATOM     19  C   MOL d           4.661   6.772  31.378  0.00  0.00     0.204 C 
ATOM     20  O   MOL d           5.167   7.858  31.737  0.00  0.00    -0.646 OA
ATOM     21  OXT MOL d           3.857   6.672  30.431  0.00  0.00    -0.646 OA
ENDBRANCH  13  19
ENDBRANCH  10  13
ENDBRANCH   7  10
ENDBRANCH   4   7
ENDBRANCH   1   3
BRANCH   1  22
ATOM     22  CB  MOL d           6.590   3.708  27.239  0.00  0.00     0.004 C 
ATOM     23  H11 MOL d           5.644   3.147  27.255  0.00  0.00     0.052 H 
ATOM     24  H12 MOL d           7.020   3.673  26.227  0.00  0.00     0.052 H 
BRANCH  22  25
ATOM     25  SG  MOL d           6.220   5.414  27.617  0.00  0.00    -0.162 SA
BRANCH  25  26
ATOM     26  CD  MOL d           7.422   6.246  26.558  0.00  0.00     0.001 C 
ATOM     27  H13 MOL d           8.166   5.505  26.228  0.00  0.00     0.056 H 
ATOM     28  H14 MOL d           7.922   7.029  27.149  0.00  0.00     0.056 H 
BRANCH  26  29
ATOM     29  CE  MOL d           6.817   6.886  25.337  0.00  0.00    -0.049 A 
ATOM     30  CZ1 MOL d           6.437   6.106  24.248  0.00  0.00    -0.076 A 
ATOM     31  CT1 MOL d           5.878   6.688  23.114  0.00  0.00    -0.082 A 
ATOM     32  H15 MOL d           6.579   5.032  24.284  0.00  0.00     0.084 H 
ATOM     33  CH  MOL d           5.691   8.068  23.062  0.00  0.00    -0.083 A 
ATOM     34  H17 MOL d           5.587   6.068  22.273  0.00  0.00     0.083 H 
ATOM     35  CT2 MOL d           6.066   8.857  24.142  0.00  0.00    -0.082 A 
ATOM     36  H19 MOL d           5.255   8.525  22.181  0.00  0.00     0.083 H 
ATOM     37  CZ2 MOL d           6.626   8.265  25.275  0.00  0.00    -0.076 A 
ATOM     38  H18 MOL d           5.924   9.931  24.105  0.00  0.00     0.083 H 
ATOM     39  H16 MOL d           6.916   8.885  26.115  0.00  0.00     0.084 H 
ENDBRANCH  26  29
ENDBRANCH  25  26
ENDBRANCH  22  25
ENDBRANCH   1  22
BRANCH   1  40
ATOM     40  C   MOL d           8.967   3.327  27.704  0.00  0.00     0.242 C 
ATOM     41  O   MOL d           9.808   3.809  28.462  0.00  0.00    -0.271 OA
ATOM     42  N   MOL d           9.188   3.087  26.420  0.00  0.00    -0.341 N 
ATOM     43  H20 MOL d           8.450   2.693  25.872  0.00  0.00     0.163 HD
BRANCH  42  44
ATOM     44  CA  MOL d          10.457   3.372  25.776  0.00  0.00     0.122 C 
ATOM     45  H21 MOL d          11.188   3.418  26.597  0.00  0.00     0.097 H 
BRANCH  44  46
ATOM     46  CB  MOL d          10.482   4.735  25.165  0.00  0.00    -0.025 A 
ATOM     47  CG1 MOL d          11.159   5.782  25.779  0.00  0.00    -0.074 A 
ATOM     48  CD1 MOL d          11.242   7.031  25.170  0.00  0.00    -0.082 A 
ATOM     49  H22 MOL d          11.627   5.624  26.743  0.00  0.00     0.084 H 
ATOM     50  CE  MOL d          10.643   7.238  23.936  0.00  0.00    -0.083 A 
ATOM     51  H24 MOL d          11.774   7.839  25.659  0.00  0.00     0.083 H 
ATOM     52  CD2 MOL d           9.961   6.199  23.317  0.00  0.00    -0.082 A 
ATOM     53  H26 MOL d          10.708   8.209  23.456  0.00  0.00     0.083 H 
ATOM     54  CG2 MOL d           9.883   4.957  23.933  0.00  0.00    -0.074 A 
ATOM     55  H25 MOL d           9.489   6.357  22.354  0.00  0.00     0.083 H 
ATOM     56  H23 MOL d           9.348   4.150  23.444  0.00  0.00     0.084 H 
ENDBRANCH  44  46
BRANCH  44  57
ATOM     57  C   MOL d          10.966   2.248  24.875  0.00  0.00     0.201 C 
ATOM     58  O   MOL d          12.110   2.374  24.400  0.00  0.00    -0.646 OA
ATOM     59  OXT MOL d          10.232   1.260  24.659  0.00  0.00    -0.646 OA
ENDBRANCH  44  57
ENDBRANCH  42  44
ENDBRANCH   1  40
TORSDOF 14
ENDMDL
MODEL 8
REMARK VINA RESULT:      -5.4      1.647      2.678
REMARK  14 active torsions:
REMARK  status: ('A' for Active; 'I' for Inactive)
REMARK    1  A    between atoms: CA_2  and  N_1 
REMARK    2  A    between atoms: CA_2  and  CB_5 
REMARK    3  A    between atoms: CA_2  and  C_3 
REMARK    4  A    between atoms: CB_5  and  CG_6 
REMARK    5  A    between atoms: CG_6  and  CD_7 
REMARK       I    between atoms: CD_7  and  N_10 
REMARK    6  A    between atoms: N_10  and  CA_11 
REMARK    7  A    between atoms: CA_11  and  CB_12 
REMARK    8  A    between atoms: CA_11  and  C_21 
REMARK    9  A    between atoms: CB_12  and  SG_13 
REMARK   10  A    between atoms: SG_13  and  CD_14 
REMARK   11  A    between atoms: CD_14  and  CE_15 
REMARK       I    between atoms: C_21  and  N_23 
REMARK   12  A    between atoms: N_23  and  CA_24 
REMARK   13  A    between atoms: CA_24  and  CB_25 
REMARK   14  A    between atoms: CA_24  and  C_31 
ROOT
ATOM      1  CA  MOL d           6.734   2.385  28.644  0.00  0.00     0.097 C 
ATOM      2  H10 MOL d           6.403   1.341  28.748  0.00  0.00     0.088 H 
ENDROOT
BRANCH   1   3
ATOM      3  N   MOL d           6.447   3.102  29.879  0.00  0.00    -0.347 N 
ATOM      4  CD  MOL d           6.502   2.524  31.076  0.00  0.00     0.218 C 
ATOM      5  OE1 MOL d           6.851   1.357  31.249  0.00  0.00    -0.274 OA
ATOM      6  H9  MOL d           6.198   4.069  29.826  0.00  0.00     0.163 HD
BRANCH   4   7
ATOM      7  CG  MOL d           6.153   3.416  32.241  0.00  0.00     0.012 C 
ATOM      8  H7  MOL d           5.915   2.781  33.107  0.00  0.00     0.047 H 
ATOM      9  H8  MOL d           7.026   4.043  32.474  0.00  0.00     0.047 H 
BRANCH   7  10
ATOM     10  CB  MOL d           4.969   4.325  31.973  0.00  0.00    -0.021 C 
ATOM     11  H5  MOL d           4.654   4.194  30.927  0.00  0.00     0.037 H 
ATOM     12  H6  MOL d           4.146   4.036  32.643  0.00  0.00     0.037 H 
BRANCH  10  13
ATOM     13  CA  MOL d           5.292   5.802  32.205  0.00  0.00     0.183 C 
ATOM     14  H4  MOL d           5.957   5.881  33.078  0.00  0.00     0.101 H 
BRANCH  13  15
ATOM     15  N   MOL d           4.046   6.562  32.494  0.00  0.00    -0.065 N 
ATOM     16  H1  MOL d           3.253   6.059  32.128  0.00  0.00     0.275 HD
ATOM     17  H2  MOL d           4.098   7.470  32.058  0.00  0.00     0.275 HD
ATOM     18  H3  MOL d           3.944   6.673  33.490  0.00  0.00     0.275 HD
ENDBRANCH  13  15
BRANCH  13  19
ATOM     19  C   MOL d           6.025   6.383  30.989  0.00  0.00     0.204 C 
ATOM     20  O   MOL d           7.155   5.934  30.695  0.00  0.00    -0.646 OA
ATOM     21  OXT MOL d           5.467   7.298  30.353  0.00  0.00    -0.646 OA
ENDBRANCH  13  19
ENDBRANCH  10  13
ENDBRANCH   7  10
ENDBRANCH   4   7
ENDBRANCH   1   3
BRANCH   1  22
ATOM     22  CB  MOL d           6.007   3.046  27.472  0.00  0.00     0.004 C 
ATOM     23  H11 MOL d           5.122   2.437  27.238  0.00  0.00     0.052 H 
ATOM     24  H12 MOL d           6.689   3.048  26.610  0.00  0.00     0.052 H 
BRANCH  22  25
ATOM     25  SG  MOL d           5.461   4.724  27.744  0.00  0.00    -0.162 SA
BRANCH  25  26
ATOM     26  CD  MOL d           5.191   5.254  26.039  0.00  0.00     0.001 C 
ATOM     27  H13 MOL d           4.315   5.920  26.017  0.00  0.00     0.056 H 
ATOM     28  H14 MOL d           4.990   4.363  25.427  0.00  0.00     0.056 H 
BRANCH  26  29
ATOM     29  CE  MOL d           6.361   5.988  25.439  0.00  0.00    -0.049 A 
ATOM     30  CZ1 MOL d           6.563   7.337  25.718  0.00  0.00    -0.076 A 
ATOM     31  CT1 MOL d           7.640   8.026  25.168  0.00  0.00    -0.082 A 
ATOM     32  H15 MOL d           5.874   7.858  26.372  0.00  0.00     0.084 H 
ATOM     33  CH  MOL d           8.532   7.363  24.326  0.00  0.00    -0.083 A 
ATOM     34  H17 MOL d           7.785   9.077  25.393  0.00  0.00     0.083 H 
ATOM     35  CT2 MOL d           8.340   6.017  24.040  0.00  0.00    -0.082 A 
ATOM     36  H19 MOL d           9.373   7.896  23.896  0.00  0.00     0.083 H 
ATOM     37  CZ2 MOL d           7.258   5.335  24.597  0.00  0.00    -0.076 A 
ATOM     38  H18 MOL d           9.031   5.498  23.386  0.00  0.00     0.083 H 
ATOM     39  H16 MOL d           7.113   4.284  24.372  0.00  0.00     0.084 H 
ENDBRANCH  26  29
ENDBRANCH  25  26
ENDBRANCH  22  25
ENDBRANCH   1  22
BRANCH   1  40
ATOM     40  C   MOL d           8.217   2.420  28.331  0.00  0.00     0.242 C 
ATOM     41  O   MOL d           9.035   1.872  29.068  0.00  0.00    -0.271 OA
ATOM     42  N   MOL d           8.550   3.110  27.249  0.00  0.00    -0.341 N 
ATOM     43  H20 MOL d           7.822   3.525  26.702  0.00  0.00     0.163 HD
BRANCH  42  44
ATOM     44  CA  MOL d           9.926   3.287  26.825  0.00  0.00     0.122 C 
ATOM     45  H21 MOL d          10.530   2.827  27.621  0.00  0.00     0.097 H 
BRANCH  44  46
ATOM     46  CB  MOL d          10.331   4.726  26.822  0.00  0.00    -0.025 A 
ATOM     47  CG1 MOL d           9.689   5.651  27.637  0.00  0.00    -0.074 A 
ATOM     48  CD1 MOL d          10.117   6.974  27.687  0.00  0.00    -0.082 A 
ATOM     49  H22 MOL d           8.845   5.339  28.241  0.00  0.00     0.084 H 
ATOM     50  CE  MOL d          11.197   7.380  26.915  0.00  0.00    -0.083 A 
ATOM     51  H24 MOL d           9.609   7.686  28.327  0.00  0.00     0.083 H 
ATOM     52  CD2 MOL d          11.841   6.463  26.094  0.00  0.00    -0.082 A 
ATOM     53  H26 MOL d          11.536   8.409  26.952  0.00  0.00     0.083 H 
ATOM     54  CG2 MOL d          11.406   5.145  26.052  0.00  0.00    -0.074 A 
ATOM     55  H25 MOL d          12.683   6.776  25.488  0.00  0.00     0.083 H 
ATOM     56  H23 MOL d          11.913   4.435  25.409  0.00  0.00     0.084 H 
ENDBRANCH  44  46
BRANCH  44  57
ATOM     57  C   MOL d          10.297   2.507  25.565  0.00  0.00     0.201 C 
ATOM     58  O   MOL d          11.007   1.494  25.712  0.00  0.00    -0.646 OA
ATOM     59  OXT MOL d           9.877   2.903  24.457  0.00  0.00    -0.646 OA
ENDBRANCH  44  57
ENDBRANCH  42  44
ENDBRANCH   1  40
TORSDOF 14
ENDMDL
MODEL 9
REMARK VINA RESULT:      -5.3      2.265      5.829
REMARK  14 active torsions:
REMARK  status: ('A' for Active; 'I' for Inactive)
REMARK    1  A    between atoms: CA_2  and  N_1 
REMARK    2  A    between atoms: CA_2  and  CB_5 
REMARK    3  A    between atoms: CA_2  and  C_3 
REMARK    4  A    between atoms: CB_5  and  CG_6 
REMARK    5  A    between atoms: CG_6  and  CD_7 
REMARK       I    between atoms: CD_7  and  N_10 
REMARK    6  A    between atoms: N_10  and  CA_11 
REMARK    7  A    between atoms: CA_11  and  CB_12 
REMARK    8  A    between atoms: CA_11  and  C_21 
REMARK    9  A    between atoms: CB_12  and  SG_13 
REMARK   10  A    between atoms: SG_13  and  CD_14 
REMARK   11  A    between atoms: CD_14  and  CE_15 
REMARK       I    between atoms: C_21  and  N_23 
REMARK   12  A    between atoms: N_23  and  CA_24 
REMARK   13  A    between atoms: CA_24  and  CB_25 
REMARK   14  A    between atoms: CA_24  and  C_31 
ROOT
ATOM      1  CA  MOL d           6.072   5.413  26.818  0.00  0.00     0.097 C 
ATOM      2  H10 MOL d           5.098   5.603  26.343  0.00  0.00     0.088 H 
ENDROOT
BRANCH   1   3
ATOM      3  N   MOL d           6.333   6.454  27.802  0.00  0.00    -0.347 N 
ATOM      4  CD  MOL d           5.363   7.092  28.450  0.00  0.00     0.218 C 
ATOM      5  OE1 MOL d           4.170   6.824  28.317  0.00  0.00    -0.274 OA
ATOM      6  H9  MOL d           7.282   6.700  28.000  0.00  0.00     0.163 HD
BRANCH   4   7
ATOM      7  CG  MOL d           5.822   8.154  29.417  0.00  0.00     0.012 C 
ATOM      8  H7  MOL d           6.174   9.022  28.840  0.00  0.00     0.047 H 
ATOM      9  H8  MOL d           4.965   8.452  30.040  0.00  0.00     0.047 H 
BRANCH   7  10
ATOM     10  CB  MOL d           6.943   7.698  30.330  0.00  0.00    -0.021 C 
ATOM     11  H5  MOL d           6.560   7.652  31.361  0.00  0.00     0.037 H 
ATOM     12  H6  MOL d           7.268   6.696  30.014  0.00  0.00     0.037 H 
BRANCH  10  13
ATOM     13  CA  MOL d           8.151   8.636  30.299  0.00  0.00     0.183 C 
ATOM     14  H4  MOL d           8.403   8.915  31.333  0.00  0.00     0.101 H 
BRANCH  13  15
ATOM     15  N   MOL d           7.820   9.877  29.548  0.00  0.00    -0.065 N 
ATOM     16  H1  MOL d           8.023  10.681  30.121  0.00  0.00     0.275 HD
ATOM     17  H2  MOL d           6.840   9.874  29.309  0.00  0.00     0.275 HD
ATOM     18  H3  MOL d           8.371   9.917  28.705  0.00  0.00     0.275 HD
ENDBRANCH  13  15
BRANCH  13  19
ATOM     19  C   MOL d           9.362   7.923  29.683  0.00  0.00     0.204 C 
ATOM     20  O   MOL d          10.423   7.862  30.341  0.00  0.00    -0.646 OA
ATOM     21  OXT MOL d           9.239   7.449  28.537  0.00  0.00    -0.646 OA
ENDBRANCH  13  19
ENDBRANCH  10  13
ENDBRANCH   7  10
ENDBRANCH   4   7
ENDBRANCH   1   3
BRANCH   1  22
ATOM     22  CB  MOL d           7.173   5.404  25.757  0.00  0.00     0.004 C 
ATOM     23  H11 MOL d           6.887   4.682  24.979  0.00  0.00     0.052 H 
ATOM     24  H12 MOL d           8.105   5.073  26.240  0.00  0.00     0.052 H 
BRANCH  22  25
ATOM     25  SG  MOL d           7.496   6.970  24.960  0.00  0.00    -0.162 SA
BRANCH  25  26
ATOM     26  CD  MOL d           9.286   7.074  25.171  0.00  0.00     0.001 C 
ATOM     27  H13 MOL d           9.496   7.375  26.208  0.00  0.00     0.056 H 
ATOM     28  H14 MOL d           9.672   7.840  24.481  0.00  0.00     0.056 H 
BRANCH  26  29
ATOM     29  CE  MOL d          10.007   5.781  24.896  0.00  0.00    -0.049 A 
ATOM     30  CZ1 MOL d           9.719   5.044  23.751  0.00  0.00    -0.076 A 
ATOM     31  CT1 MOL d          10.378   3.846  23.488  0.00  0.00    -0.082 A 
ATOM     32  H15 MOL d           8.971   5.407  23.055  0.00  0.00     0.084 H 
ATOM     33  CH  MOL d          11.341   3.375  24.378  0.00  0.00    -0.083 A 
ATOM     34  H17 MOL d          10.142   3.283  22.592  0.00  0.00     0.083 H 
ATOM     35  CT2 MOL d          11.637   4.101  25.524  0.00  0.00    -0.082 A 
ATOM     36  H19 MOL d          11.858   2.443  24.176  0.00  0.00     0.083 H 
ATOM     37  CZ2 MOL d          10.971   5.300  25.779  0.00  0.00    -0.076 A 
ATOM     38  H18 MOL d          12.385   3.737  26.219  0.00  0.00     0.083 H 
ATOM     39  H16 MOL d          11.206   5.864  26.675  0.00  0.00     0.084 H 
ENDBRANCH  26  29
ENDBRANCH  25  26
ENDBRANCH  22  25
ENDBRANCH   1  22
BRANCH   1  40
ATOM     40  C   MOL d           6.063   4.043  27.468  0.00  0.00     0.242 C 
ATOM     41  O   MOL d           5.010   3.434  27.652  0.00  0.00    -0.271 OA
ATOM     42  N   MOL d           7.249   3.592  27.851  0.00  0.00    -0.341 N 
ATOM     43  H20 MOL d           8.058   4.150  27.664  0.00  0.00     0.163 HD
BRANCH  42  44
ATOM     44  CA  MOL d           7.422   2.322  28.531  0.00  0.00     0.122 C 
ATOM     45  H21 MOL d           6.735   1.630  28.022  0.00  0.00     0.097 H 
BRANCH  44  46
ATOM     46  CB  MOL d           6.937   2.372  29.944  0.00  0.00    -0.025 A 
ATOM     47  CG1 MOL d           6.610   1.208  30.630  0.00  0.00    -0.074 A 
ATOM     48  CD1 MOL d           6.230   1.253  31.968  0.00  0.00    -0.082 A 
ATOM     49  H22 MOL d           6.652   0.255  30.116  0.00  0.00     0.084 H 
ATOM     50  CE  MOL d           6.173   2.472  32.629  0.00  0.00    -0.083 A 
ATOM     51  H24 MOL d           5.978   0.338  32.492  0.00  0.00     0.083 H 
ATOM     52  CD2 MOL d           6.493   3.640  31.950  0.00  0.00    -0.082 A 
ATOM     53  H26 MOL d           5.880   2.512  33.672  0.00  0.00     0.083 H 
ATOM     54  CG2 MOL d           6.872   3.585  30.615  0.00  0.00    -0.074 A 
ATOM     55  H25 MOL d           6.448   4.595  32.462  0.00  0.00     0.083 H 
ATOM     56  H23 MOL d           7.120   4.501  30.091  0.00  0.00     0.084 H 
ENDBRANCH  44  46
BRANCH  44  57
ATOM     57  C   MOL d           8.802   1.695  28.342  0.00  0.00     0.201 C 
ATOM     58  O   MOL d           9.563   1.686  29.328  0.00  0.00    -0.646 OA
ATOM     59  OXT MOL d           9.108   1.218  27.229  0.00  0.00    -0.646 OA
ENDBRANCH  44  57
ENDBRANCH  42  44
ENDBRANCH   1  40
TORSDOF 14
ENDMDL
MODEL 10
REMARK VINA RESULT:      -5.3      2.359      4.107
REMARK  14 active torsions:
REMARK  status: ('A' for Active; 'I' for Inactive)
REMARK    1  A    between atoms: CA_2  and  N_1 
REMARK    2  A    between atoms: CA_2  and  CB_5 
REMARK    3  A    between atoms: CA_2  and  C_3 
REMARK    4  A    between atoms: CB_5  and  CG_6 
REMARK    5  A    between atoms: CG_6  and  CD_7 
REMARK       I    between atoms: CD_7  and  N_10 
REMARK    6  A    between atoms: N_10  and  CA_11 
REMARK    7  A    between atoms: CA_11  and  CB_12 
REMARK    8  A    between atoms: CA_11  and  C_21 
REMARK    9  A    between atoms: CB_12  and  SG_13 
REMARK   10  A    between atoms: SG_13  and  CD_14 
REMARK   11  A    between atoms: CD_14  and  CE_15 
REMARK       I    between atoms: C_21  and  N_23 
REMARK   12  A    between atoms: N_23  and  CA_24 
REMARK   13  A    between atoms: CA_24  and  CB_25 
REMARK   14  A    between atoms: CA_24  and  C_31 
ROOT
ATOM      1  CA  MOL d           8.291   2.850  28.803  0.00  0.00     0.097 C 
ATOM      2  H10 MOL d           8.622   1.952  29.346  0.00  0.00     0.088 H 
ENDROOT
BRANCH   1   3
ATOM      3  N   MOL d           7.947   3.888  29.766  0.00  0.00    -0.347 N 
ATOM      4  CD  MOL d           7.545   5.102  29.402  0.00  0.00     0.218 C 
ATOM      5  OE1 MOL d           7.376   5.437  28.231  0.00  0.00    -0.274 OA
ATOM      6  H9  MOL d           8.016   3.679  30.741  0.00  0.00     0.163 HD
BRANCH   4   7
ATOM      7  CG  MOL d           7.252   6.052  30.536  0.00  0.00     0.012 C 
ATOM      8  H7  MOL d           6.295   5.763  30.995  0.00  0.00     0.047 H 
ATOM      9  H8  MOL d           8.057   5.964  31.281  0.00  0.00     0.047 H 
BRANCH   7  10
ATOM     10  CB  MOL d           7.158   7.502  30.103  0.00  0.00    -0.021 C 
ATOM     11  H5  MOL d           7.104   7.538  29.004  0.00  0.00     0.037 H 
ATOM     12  H6  MOL d           6.242   7.937  30.529  0.00  0.00     0.037 H 
BRANCH  10  13
ATOM     13  CA  MOL d           8.355   8.337  30.561  0.00  0.00     0.183 C 
ATOM     14  H4  MOL d           8.516   8.156  31.634  0.00  0.00     0.101 H 
BRANCH  13  15
ATOM     15  N   MOL d           8.076   9.786  30.367  0.00  0.00    -0.065 N 
ATOM     16  H1  MOL d           8.520  10.103  29.519  0.00  0.00     0.275 HD
ATOM     17  H2  MOL d           8.441  10.305  31.151  0.00  0.00     0.275 HD
ATOM     18  H3  MOL d           7.081   9.931  30.301  0.00  0.00     0.275 HD
ENDBRANCH  13  15
BRANCH  13  19
ATOM     19  C   MOL d           9.620   7.911  29.806  0.00  0.00     0.204 C 
ATOM     20  O   MOL d          10.627   7.568  30.463  0.00  0.00    -0.646 OA
ATOM     21  OXT MOL d           9.596   7.943  28.560  0.00  0.00    -0.646 OA
ENDBRANCH  13  19
ENDBRANCH  10  13
ENDBRANCH   7  10
ENDBRANCH   4   7
ENDBRANCH   1   3
BRANCH   1  22
ATOM     22  CB  MOL d           7.077   2.514  27.937  0.00  0.00     0.004 C 
ATOM     23  H11 MOL d           7.374   1.727  27.229  0.00  0.00     0.052 H 
ATOM     24  H12 MOL d           6.797   3.421  27.381  0.00  0.00     0.052 H 
BRANCH  22  25
ATOM     25  SG  MOL d           5.630   1.942  28.815  0.00  0.00    -0.162 SA
BRANCH  25  26
ATOM     26  CD  MOL d           4.443   3.218  28.344  0.00  0.00     0.001 C 
ATOM     27  H13 MOL d           3.502   2.727  28.055  0.00  0.00     0.056 H 
ATOM     28  H14 MOL d           4.850   3.769  27.482  0.00  0.00     0.056 H 
BRANCH  26  29
ATOM     29  CE  MOL d           4.146   4.206  29.441  0.00  0.00    -0.049 A 
ATOM     30  CZ1 MOL d           3.786   5.515  29.131  0.00  0.00    -0.076 A 
ATOM     31  CT1 MOL d           3.510   6.436  30.137  0.00  0.00    -0.082 A 
ATOM     32  H15 MOL d           3.719   5.820  28.094  0.00  0.00     0.084 H 
ATOM     33  CH  MOL d           3.593   6.050  31.474  0.00  0.00    -0.083 A 
ATOM     34  H17 MOL d           3.231   7.452  29.881  0.00  0.00     0.083 H 
ATOM     35  CT2 MOL d           3.951   4.747  31.796  0.00  0.00    -0.082 A 
ATOM     36  H19 MOL d           3.378   6.765  32.261  0.00  0.00     0.083 H 
ATOM     37  CZ2 MOL d           4.226   3.831  30.780  0.00  0.00    -0.076 A 
ATOM     38  H18 MOL d           4.018   4.443  32.834  0.00  0.00     0.083 H 
ATOM     39  H16 MOL d           4.504   2.815  31.036  0.00  0.00     0.084 H 
ENDBRANCH  26  29
ENDBRANCH  25  26
ENDBRANCH  22  25
ENDBRANCH   1  22
BRANCH   1  40
ATOM     40  C   MOL d           9.392   3.319  27.872  0.00  0.00     0.242 C 
ATOM     41  O   MOL d          10.483   3.682  28.311  0.00  0.00    -0.271 OA
ATOM     42  N   MOL d           9.071   3.346  26.587  0.00  0.00    -0.341 N 
ATOM     43  H20 MOL d           8.162   3.034  26.312  0.00  0.00     0.163 HD
BRANCH  42  44
ATOM     44  CA  MOL d           9.986   3.811  25.561  0.00  0.00     0.122 C 
ATOM     45  H21 MOL d          10.829   4.255  26.111  0.00  0.00     0.097 H 
BRANCH  44  46
ATOM     46  CB  MOL d           9.411   4.939  24.767  0.00  0.00    -0.025 A 
ATOM     47  CG1 MOL d          10.233   5.802  24.051  0.00  0.00    -0.074 A 
ATOM     48  CD1 MOL d           9.690   6.805  23.254  0.00  0.00    -0.082 A 
ATOM     49  H22 MOL d          11.309   5.692  24.114  0.00  0.00     0.084 H 
ATOM     50  CE  MOL d           8.312   6.950  23.170  0.00  0.00    -0.083 A 
ATOM     51  H24 MOL d          10.342   7.470  22.699  0.00  0.00     0.083 H 
ATOM     52  CD2 MOL d           7.484   6.096  23.885  0.00  0.00    -0.082 A 
ATOM     53  H26 MOL d           7.885   7.729  22.548  0.00  0.00     0.083 H 
ATOM     54  CG2 MOL d           8.035   5.098  24.678  0.00  0.00    -0.074 A 
ATOM     55  H25 MOL d           6.408   6.207  23.825  0.00  0.00     0.083 H 
ATOM     56  H23 MOL d           7.383   4.434  25.234  0.00  0.00     0.084 H 
ENDBRANCH  44  46
BRANCH  44  57
ATOM     57  C   MOL d          10.618   2.692  24.734  0.00  0.00     0.201 C 
ATOM     58  O   MOL d           9.923   2.190  23.830  0.00  0.00    -0.646 OA
ATOM     59  OXT MOL d          11.788   2.335  24.986  0.00  0.00    -0.646 OA
ENDBRANCH  44  57
ENDBRANCH  42  44
ENDBRANCH   1  40
TORSDOF 14
ENDMDL
