MODEL 1
REMARK VINA RESULT:     -10.2      0.000      0.000
REMARK  4 active torsions:
REMARK  status: ('A' for Active; 'I' for Inactive)
REMARK    1  A    between atoms: C15_2  and  C16_23 
REMARK    2  A    between atoms: C04_13  and  C02_11 
REMARK    3  A    between atoms: N08_17  and  C07_16 
REMARK    4  A    between atoms: C09_18  and  N08_17 
ROOT
ATOM      1  C13 ZZL d           0.402  -8.234  -4.845  0.00  0.00     0.043 C 
ATOM      2  C15 ZZL d           1.654 -10.314  -4.754  0.00  0.00     0.079 C 
ATOM      3  C24 ZZL d           3.065  -9.787  -4.832  0.00  0.00     0.007 A 
ATOM      4  C26 ZZL d           5.326  -9.988  -5.600  0.00  0.00     0.035 A 
ATOM      5  C28 ZZL d           5.667  -8.810  -4.907  0.00  0.00    -0.061 A 
ATOM      6  C09 ZZL d           2.341  -6.265  -1.660  0.00  0.00     0.727 A 
ATOM      7  N10 ZZL d           0.990  -6.069  -1.895  0.00  0.00    -0.074 NA
ATOM      8  C11 ZZL d           0.395  -6.721  -2.921  0.00  0.00     0.031 A 
ATOM      9  C12 ZZL d           1.140  -7.561  -3.681  0.00  0.00     0.010 A 
ATOM     10  N14 ZZL d           0.570  -9.663  -4.779  0.00  0.00    -0.283 NA
ATOM     11  C25 ZZL d           4.018 -10.483  -5.556  0.00  0.00    -0.049 A 
ATOM     12 CL1  ZZL d           6.517 -10.864  -6.595  0.00  0.00    -0.084 Cl
ATOM     13  C29 ZZL d           4.701  -8.115  -4.171  0.00  0.00    -0.068 A 
ATOM     14  C30 ZZL d           3.397  -8.617  -4.136  0.00  0.00     0.007 A 
ATOM     15  C31 ZZL d           2.510  -7.768  -3.430  0.00  0.00     0.096 A 
ATOM     16  N32 ZZL d           3.110  -7.123  -2.447  0.00  0.00    -0.061 NA
ATOM     17  H1  ZZL d           0.809  -7.864  -5.796  0.00  0.00     0.074 H 
ATOM     18  H2  ZZL d          -0.670  -7.991  -4.785  0.00  0.00     0.074 H 
ATOM     19  H5  ZZL d           6.685  -8.440  -4.944  0.00  0.00     0.086 H 
ATOM     20  H9  ZZL d          -0.658  -6.576  -3.131  0.00  0.00     0.116 H 
ATOM     21  H11 ZZL d           3.755 -11.395  -6.079  0.00  0.00     0.087 H 
ATOM     22  H12 ZZL d           4.959  -7.207  -3.639  0.00  0.00     0.085 H 
ENDROOT
BRANCH   6  23
ATOM     23  N08 ZZL d           2.985  -5.527  -0.610  0.00  0.00    -0.188 N 
ATOM     24  H8  ZZL d           2.339  -5.300   0.159  0.00  0.00     0.184 HD
BRANCH  23  25
ATOM     25  C07 ZZL d           4.315  -5.026  -0.369  0.00  0.00     0.049 A 
ATOM     26  C06 ZZL d           5.338  -5.411  -1.247  0.00  0.00    -0.056 A 
ATOM     27  C05 ZZL d           6.610  -4.853  -1.106  0.00  0.00    -0.064 A 
ATOM     28  H7  ZZL d           5.143  -6.136  -2.028  0.00  0.00     0.087 H 
ATOM     29  C04 ZZL d           6.833  -3.923  -0.087  0.00  0.00     0.041 A 
ATOM     30  H6  ZZL d           7.412  -5.137  -1.776  0.00  0.00     0.085 H 
ATOM     31  C34 ZZL d           5.810  -3.539   0.782  0.00  0.00    -0.064 A 
ATOM     32  C33 ZZL d           4.536  -4.092   0.639  0.00  0.00    -0.056 A 
ATOM     33  H14 ZZL d           6.004  -2.814   1.564  0.00  0.00     0.085 H 
ATOM     34  H13 ZZL d           3.731  -3.798   1.303  0.00  0.00     0.087 H 
BRANCH  29  35
ATOM     35  C02 ZZL d           8.213  -3.319   0.072  0.00  0.00     0.209 C 
ATOM     36  O01 ZZL d           8.788  -3.467   1.094  0.00  0.00    -0.644 OA
ATOM     37  O03 ZZL d           8.784  -2.602  -0.981  0.00  0.00    -0.644 OA
ENDBRANCH  29  35
ENDBRANCH  23  25
ENDBRANCH   6  23
BRANCH   2  38
ATOM     38  C16 ZZL d           1.673 -11.829  -4.602  0.00  0.00     0.070 A 
ATOM     39  C17 ZZL d           2.242 -12.417  -3.469  0.00  0.00     0.132 A 
ATOM     40  F18 ZZL d           2.701 -11.632  -2.456  0.00  0.00    -0.205 F 
ATOM     41  C19 ZZL d           2.306 -13.809  -3.354  0.00  0.00    -0.045 A 
ATOM     42  C20 ZZL d           1.796 -14.626  -4.369  0.00  0.00    -0.077 A 
ATOM     43  H10 ZZL d           2.753 -14.258  -2.475  0.00  0.00     0.088 H 
ATOM     44  C21 ZZL d           1.222 -14.043  -5.503  0.00  0.00    -0.045 A 
ATOM     45  H3  ZZL d           1.846 -15.705  -4.277  0.00  0.00     0.083 H 
ATOM     46  C22 ZZL d           1.166 -12.647  -5.619  0.00  0.00     0.132 A 
ATOM     47  H4  ZZL d           0.822 -14.669  -6.291  0.00  0.00     0.088 H 
ATOM     48  F23 ZZL d           0.578 -12.082  -6.712  0.00  0.00    -0.205 F 
ENDBRANCH   2  38
TORSDOF 4
ENDMDL
MODEL 2
REMARK VINA RESULT:      -7.9      0.761      1.638
REMARK  4 active torsions:
REMARK  status: ('A' for Active; 'I' for Inactive)
REMARK    1  A    between atoms: C15_2  and  C16_23 
REMARK    2  A    between atoms: C04_13  and  C02_11 
REMARK    3  A    between atoms: N08_17  and  C07_16 
REMARK    4  A    between atoms: C09_18  and  N08_17 
ROOT
ATOM      1  C13 ZZL d           0.447  -8.435  -4.079  0.00  0.00     0.043 C 
ATOM      2  C15 ZZL d           1.810 -10.438  -3.891  0.00  0.00     0.079 C 
ATOM      3  C24 ZZL d           3.186  -9.851  -4.087  0.00  0.00     0.007 A 
ATOM      4  C26 ZZL d           5.412 -10.005  -4.960  0.00  0.00     0.035 A 
ATOM      5  C28 ZZL d           5.725  -8.759  -4.382  0.00  0.00    -0.061 A 
ATOM      6  C09 ZZL d           2.438  -6.119  -1.172  0.00  0.00     0.727 A 
ATOM      7  N10 ZZL d           1.068  -6.008  -1.348  0.00  0.00    -0.074 NA
ATOM      8  C11 ZZL d           0.458  -6.771  -2.284  0.00  0.00     0.031 A 
ATOM      9  C12 ZZL d           1.207  -7.634  -3.014  0.00  0.00     0.010 A 
ATOM     10  N14 ZZL d           0.694  -9.844  -3.909  0.00  0.00    -0.283 NA
ATOM     11  C25 ZZL d           4.136 -10.557  -4.805  0.00  0.00    -0.049 A 
ATOM     12 CL1  ZZL d           6.596 -10.901  -5.946  0.00  0.00    -0.084 Cl
ATOM     13  C29 ZZL d           4.763  -8.053  -3.653  0.00  0.00    -0.068 A 
ATOM     14  C30 ZZL d           3.490  -8.613  -3.506  0.00  0.00     0.007 A 
ATOM     15  C31 ZZL d           2.596  -7.753  -2.823  0.00  0.00     0.096 A 
ATOM     16  N32 ZZL d           3.210  -7.001  -1.929  0.00  0.00    -0.061 NA
ATOM     17  H1  ZZL d           0.785  -8.125  -5.078  0.00  0.00     0.074 H 
ATOM     18  H2  ZZL d          -0.631  -8.240  -3.980  0.00  0.00     0.074 H 
ATOM     19  H5  ZZL d           6.719  -8.343  -4.504  0.00  0.00     0.086 H 
ATOM     20  H9  ZZL d          -0.611  -6.694  -2.448  0.00  0.00     0.116 H 
ATOM     21  H11 ZZL d           3.896 -11.520  -5.239  0.00  0.00     0.087 H 
ATOM     22  H12 ZZL d           4.998  -7.092  -3.210  0.00  0.00     0.085 H 
ENDROOT
BRANCH   6  23
ATOM     23  N08 ZZL d           3.095  -5.266  -0.220  0.00  0.00    -0.188 N 
ATOM     24  H8  ZZL d           2.490  -5.042   0.583  0.00  0.00     0.184 HD
BRANCH  23  25
ATOM     25  C07 ZZL d           4.392  -4.648  -0.115  0.00  0.00     0.049 A 
ATOM     26  C06 ZZL d           5.233  -4.675  -1.236  0.00  0.00    -0.056 A 
ATOM     27  C05 ZZL d           6.447  -3.988  -1.201  0.00  0.00    -0.064 A 
ATOM     28  H7  ZZL d           4.942  -5.226  -2.124  0.00  0.00     0.087 H 
ATOM     29  C04 ZZL d           6.798  -3.290  -0.042  0.00  0.00     0.041 A 
ATOM     30  H6  ZZL d           7.109  -3.997  -2.059  0.00  0.00     0.085 H 
ATOM     31  C34 ZZL d           5.955  -3.262   1.070  0.00  0.00    -0.064 A 
ATOM     32  C33 ZZL d           4.738  -3.944   1.035  0.00  0.00    -0.056 A 
ATOM     33  H14 ZZL d           6.245  -2.712   1.959  0.00  0.00     0.085 H 
ATOM     34  H13 ZZL d           4.072  -3.925   1.890  0.00  0.00     0.087 H 
BRANCH  29  35
ATOM     35  C02 ZZL d           8.117  -2.547   0.002  0.00  0.00     0.209 C 
ATOM     36  O01 ZZL d           8.635  -2.363   1.048  0.00  0.00    -0.644 OA
ATOM     37  O03 ZZL d           8.699  -2.093  -1.184  0.00  0.00    -0.644 OA
ENDBRANCH  29  35
ENDBRANCH  23  25
ENDBRANCH   6  23
BRANCH   2  38
ATOM     38  C16 ZZL d           1.917 -11.932  -3.620  0.00  0.00     0.070 A 
ATOM     39  C17 ZZL d           1.403 -12.853  -4.537  0.00  0.00     0.132 A 
ATOM     40  F18 ZZL d           0.883 -12.417  -5.716  0.00  0.00    -0.205 F 
ATOM     41  C19 ZZL d           1.456 -14.223  -4.263  0.00  0.00    -0.045 A 
ATOM     42  C20 ZZL d           2.029 -14.685  -3.073  0.00  0.00    -0.077 A 
ATOM     43  H10 ZZL d           1.051 -14.932  -4.976  0.00  0.00     0.088 H 
ATOM     44  C21 ZZL d           2.548 -13.767  -2.155  0.00  0.00    -0.045 A 
ATOM     45  H3  ZZL d           2.069 -15.748  -2.865  0.00  0.00     0.083 H 
ATOM     46  C22 ZZL d           2.488 -12.394  -2.428  0.00  0.00     0.132 A 
ATOM     47  H4  ZZL d           2.997 -14.118  -1.233  0.00  0.00     0.088 H 
ATOM     48  F23 ZZL d           3.023 -11.504  -1.544  0.00  0.00    -0.205 F 
ENDBRANCH   2  38
TORSDOF 4
ENDMDL
