MODEL 1
REMARK VINA RESULT:     -10.3      0.000      0.000
REMARK  11 active torsions:
REMARK  status: ('A' for Active; 'I' for Inactive)
REMARK    1  A    between atoms: CAZ_1  and  CAN_2 
REMARK    2  A    between atoms: CAN_2  and  CBA_3 
REMARK    3  A    between atoms: CAN_2  and  CAL_4 
REMARK       I    between atoms: CAL_4  and  NAK_6 
REMARK    4  A    between atoms: NAK_6  and  CAC_7 
REMARK    5  A    between atoms: CAB_8  and  OAG_9 
REMARK    6  A    between atoms: CAA_10  and  OAH_11 
REMARK    7  A    between atoms: CAF_12  and  CAI_13 
REMARK    8  A    between atoms: CAI_13  and  OAJ_14 
REMARK    9  A    between atoms: CAP_19  and  CAR_20 
REMARK   10  A    between atoms: CAR_20  and  CAS_21 
REMARK   11  A    between atoms: CAS_21  and  CAT_22 
ROOT
ATOM      1  CAC GSZ d          33.029  42.852  21.127  0.00  0.00     0.097 C 
ATOM      2  CAB GSZ d          32.454  43.167  22.508  0.00  0.00     0.088 C 
ATOM      3  CAA GSZ d          30.984  42.737  22.697  0.00  0.00     0.084 C 
ATOM      4  CAF GSZ d          30.910  41.221  22.485  0.00  0.00     0.065 C 
ATOM      5  NAE GSZ d          31.251  40.955  21.059  0.00  0.00    -0.332 N 
ATOM      6  CAQ GSZ d          30.808  40.077  20.159  0.00  0.00     0.005 A 
ATOM      7  CAD GSZ d          32.263  41.710  20.412  0.00  0.00     0.132 A 
ATOM      8  NAO GSZ d          32.346  41.256  19.162  0.00  0.00    -0.236 NA
ATOM      9  CAP GSZ d          31.454  40.267  18.998  0.00  0.00     0.052 A 
ATOM     10  H9  GSZ d          32.895  43.755  20.513  0.00  0.00     0.089 H 
ATOM     11  H10 GSZ d          33.061  42.661  23.274  0.00  0.00     0.090 H 
ATOM     12  H12 GSZ d          30.353  43.241  21.950  0.00  0.00     0.090 H 
ATOM     13  H14 GSZ d          31.697  40.769  23.106  0.00  0.00     0.080 H 
ATOM     14  H18 GSZ d          30.042  39.324  20.338  0.00  0.00     0.114 H 
ENDROOT
BRANCH   9  15
ATOM     15  CAR GSZ d          31.256  39.428  17.715  0.00  0.00    -0.020 C 
ATOM     16  H19 GSZ d          30.293  38.899  17.776  0.00  0.00     0.042 H 
ATOM     17  H20 GSZ d          32.072  38.696  17.633  0.00  0.00     0.042 H 
BRANCH  15  18
ATOM     18  CAS GSZ d          31.258  40.318  16.477  0.00  0.00    -0.036 C 
ATOM     19  H21 GSZ d          31.397  39.685  15.588  0.00  0.00     0.040 H 
ATOM     20  H22 GSZ d          32.094  41.028  16.555  0.00  0.00     0.040 H 
BRANCH  18  21
ATOM     21  CAT GSZ d          29.945  41.115  16.316  0.00  0.00    -0.058 A 
ATOM     22  CAU GSZ d          29.913  42.499  16.571  0.00  0.00    -0.077 A 
ATOM     23  CAV GSZ d          28.720  43.225  16.450  0.00  0.00    -0.082 A 
ATOM     24  H23 GSZ d          30.822  43.010  16.866  0.00  0.00     0.084 H 
ATOM     25  CAW GSZ d          27.564  42.547  16.060  0.00  0.00    -0.083 A 
ATOM     26  H24 GSZ d          28.696  44.289  16.653  0.00  0.00     0.083 H 
ATOM     27  CAX GSZ d          27.592  41.162  15.805  0.00  0.00    -0.082 A 
ATOM     28  H25 GSZ d          26.634  43.092  15.952  0.00  0.00     0.083 H 
ATOM     29  CAY GSZ d          28.778  40.443  15.926  0.00  0.00    -0.077 A 
ATOM     30  H26 GSZ d          26.681  40.652  15.512  0.00  0.00     0.083 H 
ATOM     31  H27 GSZ d          28.800  39.379  15.721  0.00  0.00     0.084 H 
ENDBRANCH  18  21
ENDBRANCH  15  18
ENDBRANCH   9  15
BRANCH   4  32
ATOM     32  CAI GSZ d          29.579  40.551  22.922  0.00  0.00     0.038 C 
ATOM     33  H15 GSZ d          29.511  39.547  22.479  0.00  0.00     0.077 H 
ATOM     34  H16 GSZ d          28.730  41.162  22.581  0.00  0.00     0.077 H 
BRANCH  32  35
ATOM     35  OAJ GSZ d          29.548  40.448  24.319  0.00  0.00    -0.399 OA
ATOM     36  H17 GSZ d          28.903  39.798  24.573  0.00  0.00     0.209 HD
ENDBRANCH  32  35
ENDBRANCH   4  32
BRANCH   1  37
ATOM     37  NAK GSZ d          34.500  42.581  21.188  0.00  0.00    -0.347 N 
ATOM     38  CAL GSZ d          35.042  41.712  22.060  0.00  0.00     0.221 C 
ATOM     39  OAM GSZ d          34.390  41.062  22.894  0.00  0.00    -0.273 OA
ATOM     40  H8  GSZ d          35.105  43.066  20.556  0.00  0.00     0.163 HD
BRANCH  38  41
ATOM     41  CAN GSZ d          36.578  41.559  21.947  0.00  0.00     0.017 C 
ATOM     42  H4  GSZ d          36.833  41.475  20.880  0.00  0.00     0.053 H 
BRANCH  41  43
ATOM     43  CAZ GSZ d          37.103  40.300  22.662  0.00  0.00    -0.065 C 
ATOM     44  H1  GSZ d          36.652  39.406  22.208  0.00  0.00     0.028 H 
ATOM     45  H2  GSZ d          36.834  40.345  23.727  0.00  0.00     0.028 H 
ATOM     46  H3  GSZ d          38.197  40.251  22.561  0.00  0.00     0.028 H 
ENDBRANCH  41  43
BRANCH  41  47
ATOM     47  CBA GSZ d          37.259  42.797  22.512  0.00  0.00    -0.065 C 
ATOM     48  H5  GSZ d          37.096  42.841  23.599  0.00  0.00     0.028 H 
ATOM     49  H6  GSZ d          36.834  43.696  22.042  0.00  0.00     0.028 H 
ATOM     50  H7  GSZ d          38.338  42.749  22.304  0.00  0.00     0.028 H 
ENDBRANCH  41  47
ENDBRANCH  38  41
ENDBRANCH   1  37
BRANCH   3  51
ATOM     51  OAH GSZ d          30.531  43.098  24.010  0.00  0.00    -0.391 OA
ATOM     52  H13 GSZ d          29.928  42.438  24.329  0.00  0.00     0.210 HD
ENDBRANCH   3  51
BRANCH   2  53
ATOM     53  OAG GSZ d          32.565  44.552  22.650  0.00  0.00    -0.390 OA
ATOM     54  H11 GSZ d          31.698  44.939  22.655  0.00  0.00     0.210 HD
ENDBRANCH   2  53
TORSDOF 11
ENDMDL
