MODEL 1
REMARK VINA RESULT:      -9.5      0.000      0.000
REMARK  5 active torsions:
REMARK  status: ('A' for Active; 'I' for Inactive)
REMARK    1  A    between atoms: C_2  and  CA_4 
REMARK    2  A    between atoms: CA_4  and  N_5 
REMARK    3  A    between atoms: CA_4  and  CB_6 
REMARK    4  A    between atoms: CB_6  and  CAS_7 
REMARK    5  A    between atoms: CAS_7  and  CAN_9 
ROOT
ATOM      1  CAS MS8 d           1.198  44.314   2.604  0.00  0.00     0.154 C 
ATOM      2  CAJ MS8 d           2.659  44.762   2.718  0.00  0.00     0.000 C 
ATOM      3  OAL MS8 d           1.159  43.010   3.196  0.00  0.00    -0.361 OA
ATOM      4  CAR MS8 d           2.407  42.439   2.786  0.00  0.00     0.065 C 
ATOM      5  CAQ MS8 d           3.363  43.518   3.264  0.00  0.00     0.066 C 
ATOM      6  CAH MS8 d           2.648  41.111   3.506  0.00  0.00    -0.036 C 
ATOM      7  CAP MS8 d           2.766  41.325   5.015  0.00  0.00    -0.043 C 
ATOM      8  CAG MS8 d           3.831  42.386   5.294  0.00  0.00     0.020 C 
ATOM      9  OAK MS8 d           3.395  43.617   4.698  0.00  0.00    -0.383 OA
ATOM     10  H7  MS8 d           2.759  45.610   3.413  0.00  0.00     0.042 H 
ATOM     11  H8  MS8 d           3.063  45.045   1.735  0.00  0.00     0.042 H 
ATOM     12  H9  MS8 d           2.462  42.291   1.697  0.00  0.00     0.087 H 
ATOM     13  H10 MS8 d           4.378  43.385   2.861  0.00  0.00     0.087 H 
ATOM     14  H11 MS8 d           3.580  40.662   3.132  0.00  0.00     0.036 H 
ATOM     15  H12 MS8 d           1.806  40.433   3.303  0.00  0.00     0.036 H 
ATOM     16  H13 MS8 d           3.055  40.380   5.499  0.00  0.00     0.036 H 
ATOM     17  H14 MS8 d           1.799  41.661   5.415  0.00  0.00     0.036 H 
ATOM     18  H15 MS8 d           4.790  42.076   4.854  0.00  0.00     0.074 H 
ATOM     19  H16 MS8 d           3.950  42.519   6.380  0.00  0.00     0.074 H 
ENDROOT
BRANCH   1  20
ATOM     20  CB  MS8 d           0.828  44.233   1.122  0.00  0.00     0.010 C 
ATOM     21  H5  MS8 d           0.846  45.245   0.693  0.00  0.00     0.042 H 
ATOM     22  H6  MS8 d           1.564  43.601   0.603  0.00  0.00     0.042 H 
BRANCH  20  23
ATOM     23  CA  MS8 d          -0.568  43.634   0.931  0.00  0.00     0.185 C 
ATOM     24  H1  MS8 d          -1.250  44.063   1.681  0.00  0.00     0.101 H 
BRANCH  23  25
ATOM     25  C   MS8 d          -1.060  44.003  -0.468  0.00  0.00     0.204 C 
ATOM     26  O   MS8 d          -1.021  45.215  -0.770  0.00  0.00    -0.646 OA
ATOM     27  OXT MS8 d          -1.453  43.069  -1.203  0.00  0.00    -0.646 OA
ENDBRANCH  23  25
BRANCH  23  28
ATOM     28  N   MS8 d          -0.544  42.173   1.096  0.00  0.00    -0.065 N 
ATOM     29  H2  MS8 d          -1.488  41.822   1.119  0.00  0.00     0.275 HD
ATOM     30  H3  MS8 d          -0.077  41.940   1.958  0.00  0.00     0.275 HD
ATOM     31  H4  MS8 d          -0.049  41.757   0.323  0.00  0.00     0.275 HD
ENDBRANCH  23  28
ENDBRANCH  20  23
ENDBRANCH   1  20
BRANCH   1  32
ATOM     32  CAN MS8 d           0.266  45.280   3.337  0.00  0.00     0.209 C 
ATOM     33  OAC MS8 d          -0.434  46.043   2.636  0.00  0.00    -0.646 OA
ATOM     34  OAE MS8 d           0.286  45.250   4.586  0.00  0.00    -0.646 OA
ENDBRANCH   1  32
TORSDOF 5
ENDMDL
MODEL 2
REMARK VINA RESULT:      -7.0      1.715      2.077
REMARK  5 active torsions:
REMARK  status: ('A' for Active; 'I' for Inactive)
REMARK    1  A    between atoms: C_2  and  CA_4 
REMARK    2  A    between atoms: CA_4  and  N_5 
REMARK    3  A    between atoms: CA_4  and  CB_6 
REMARK    4  A    between atoms: CB_6  and  CAS_7 
REMARK    5  A    between atoms: CAS_7  and  CAN_9 
ROOT
ATOM      1  CAS MS8 d           1.893  44.342   3.647  0.00  0.00     0.154 C 
ATOM      2  CAJ MS8 d           3.382  43.978   3.661  0.00  0.00     0.000 C 
ATOM      3  OAL MS8 d           1.204  43.096   3.490  0.00  0.00    -0.361 OA
ATOM      4  CAR MS8 d           2.058  42.375   2.593  0.00  0.00     0.065 C 
ATOM      5  CAQ MS8 d           3.378  42.483   3.338  0.00  0.00     0.066 C 
ATOM      6  CAH MS8 d           1.596  40.922   2.471  0.00  0.00    -0.036 C 
ATOM      7  CAP MS8 d           1.703  40.202   3.815  0.00  0.00    -0.043 C 
ATOM      8  CAG MS8 d           3.122  40.360   4.361  0.00  0.00     0.020 C 
ATOM      9  OAK MS8 d           3.360  41.759   4.579  0.00  0.00    -0.383 OA
ATOM     10  H7  MS8 d           3.826  44.168   4.650  0.00  0.00     0.042 H 
ATOM     11  H8  MS8 d           3.934  44.545   2.897  0.00  0.00     0.042 H 
ATOM     12  H9  MS8 d           2.106  42.839   1.597  0.00  0.00     0.087 H 
ATOM     13  H10 MS8 d           4.232  42.172   2.719  0.00  0.00     0.087 H 
ATOM     14  H11 MS8 d           2.227  40.403   1.734  0.00  0.00     0.036 H 
ATOM     15  H12 MS8 d           0.548  40.904   2.135  0.00  0.00     0.036 H 
ATOM     16  H13 MS8 d           1.479  39.134   3.680  0.00  0.00     0.036 H 
ATOM     17  H14 MS8 d           0.986  40.640   4.525  0.00  0.00     0.036 H 
ATOM     18  H15 MS8 d           3.848  39.966   3.634  0.00  0.00     0.074 H 
ATOM     19  H16 MS8 d           3.220  39.812   5.311  0.00  0.00     0.074 H 
ENDROOT
BRANCH   1  20
ATOM     20  CB  MS8 d           1.626  45.251   2.446  0.00  0.00     0.010 C 
ATOM     21  H5  MS8 d           2.107  46.225   2.618  0.00  0.00     0.042 H 
ATOM     22  H6  MS8 d           2.051  44.787   1.544  0.00  0.00     0.042 H 
BRANCH  20  23
ATOM     23  CA  MS8 d           0.124  45.466   2.237  0.00  0.00     0.185 C 
ATOM     24  H1  MS8 d          -0.066  46.534   2.059  0.00  0.00     0.101 H 
BRANCH  23  25
ATOM     25  C   MS8 d          -0.308  44.664   1.009  0.00  0.00     0.204 C 
ATOM     26  O   MS8 d          -0.923  43.599   1.229  0.00  0.00    -0.646 OA
ATOM     27  OXT MS8 d          -0.025  45.138  -0.114  0.00  0.00    -0.646 OA
ENDBRANCH  23  25
BRANCH  23  28
ATOM     28  N   MS8 d          -0.640  45.041   3.419  0.00  0.00    -0.065 N 
ATOM     29  H2  MS8 d          -0.738  45.818   4.053  0.00  0.00     0.275 HD
ATOM     30  H3  MS8 d          -0.153  44.290   3.882  0.00  0.00     0.275 HD
ATOM     31  H4  MS8 d          -1.553  44.723   3.133  0.00  0.00     0.275 HD
ENDBRANCH  23  28
ENDBRANCH  20  23
ENDBRANCH   1  20
BRANCH   1  32
ATOM     32  CAN MS8 d           1.484  45.038   4.946  0.00  0.00     0.209 C 
ATOM     33  OAC MS8 d           1.825  46.233   5.088  0.00  0.00    -0.646 OA
ATOM     34  OAE MS8 d           0.852  44.355   5.781  0.00  0.00    -0.646 OA
ENDBRANCH   1  32
TORSDOF 5
ENDMDL
