REMARK  5 active torsions:
REMARK  status: ('A' for Active; 'I' for Inactive)
REMARK    1  A    between atoms: S1_9  and  N1_1 
REMARK    2  A    between atoms: C5_5  and  O3_15 
REMARK    3  A    between atoms: O3_15  and  C8_6 
REMARK    4  A    between atoms: C8_6  and  C9_16 
REMARK    5  A    between atoms: C1_10  and  S1_9 
ROOT
ATOM      1  C2  EZL d          -3.685   3.393  15.243  0.00  0.00     0.076 A 
ATOM      2  C3  EZL d          -4.845   4.064  14.854  0.00  0.00     0.039 A 
ATOM      3  C4  EZL d          -4.737   5.265  14.105  0.00  0.00    -0.032 A 
ATOM      4  C5  EZL d          -3.364   5.612  13.875  0.00  0.00     0.070 A 
ATOM      5  C1  EZL d          -5.288   2.082  16.056  0.00  0.00     0.214 A 
ATOM      6  N2  EZL d          -3.969   2.259  15.994  0.00  0.00    -0.227 NA
ATOM      7  S2  EZL d          -6.219   3.253  15.319  0.00  0.00    -0.054 SA
ATOM      8  C6  EZL d          -2.172   4.987  14.263  0.00  0.00    -0.049 A 
ATOM      9  C7  EZL d          -2.327   3.779  15.023  0.00  0.00    -0.051 A 
ATOM     10  H3  EZL d          -5.582   5.845  13.752  0.00  0.00     0.090 H 
ATOM     11  H6  EZL d          -1.198   5.388  14.007  0.00  0.00     0.087 H 
ATOM     12  H7  EZL d          -1.485   3.208  15.398  0.00  0.00     0.087 H 
ENDROOT
BRANCH   4  13
ATOM     13  O3  EZL d          -3.205   6.766  13.096  0.00  0.00    -0.351 OA
BRANCH  13  14
ATOM     14  C8  EZL d          -1.921   7.512  13.024  0.00  0.00     0.023 C 
ATOM     15  H4  EZL d          -1.914   8.134  12.117  0.00  0.00     0.074 H 
ATOM     16  H5  EZL d          -1.088   6.795  12.983  0.00  0.00     0.074 H 
BRANCH  14  17
ATOM     17  C9  EZL d          -1.751   8.414  14.256  0.00  0.00    -0.056 C 
ATOM     18  H8  EZL d          -0.797   8.957  14.184  0.00  0.00     0.030 H 
ATOM     19  H9  EZL d          -1.754   7.796  15.166  0.00  0.00     0.030 H 
ATOM     20  H10 EZL d          -2.580   9.135  14.300  0.00  0.00     0.030 H 
ENDBRANCH  14  17
ENDBRANCH  13  14
ENDBRANCH   4  13
BRANCH   5  21
ATOM     21  S1  EZL d          -6.045   0.702  16.909  0.00  0.00     0.281 S 
ATOM     22  O1  EZL d          -5.625   0.859  18.269  0.00  0.00    -0.199 OA
ATOM     23  O2  EZL d          -7.447   0.891  16.667  0.00  0.00    -0.199 OA
BRANCH  21  24
ATOM     24  N1  EZL d          -5.465  -0.606  16.252  0.00  0.00    -0.323 N 
ATOM     25  H1  EZL d          -4.497  -0.833  16.360  0.00  0.00     0.169 HD
ATOM     26  H2  EZL d          -6.065  -1.210  15.727  0.00  0.00     0.169 HD
ENDBRANCH  21  24
ENDBRANCH   5  21
TORSDOF 5
