MODEL 1
REMARK VINA RESULT:      -5.7      0.000      0.000
REMARK  5 active torsions:
REMARK  status: ('A' for Active; 'I' for Inactive)
REMARK       I    between atoms: N3_3  and  C14_6 
REMARK    1  A    between atoms: C14_6  and  C15_7 
REMARK    2  A    between atoms: C15_7  and  C16_8 
REMARK    3  A    between atoms: C15_7  and  N19_11 
REMARK    4  A    between atoms: C16_8  and  C17_9 
REMARK    5  A    between atoms: C16_8  and  C26_12 
ROOT
ATOM      1  C15 A3M d          82.619  75.071  98.646  0.00  0.00     0.169 C 
ATOM      2  H9  A3M d          82.408  75.328  99.694  0.00  0.00     0.092 H 
ENDROOT
BRANCH   1   3
ATOM      3  C14 A3M d          81.489  74.239  98.211  0.00  0.00     0.384 C 
ATOM      4  N3  A3M d          80.146  74.695  97.855  0.00  0.00     0.134 N 
ATOM      5  C2  A3M d          79.480  75.458  98.925  0.00  0.00     0.117 C 
ATOM      6  C4  A3M d          79.163  73.654  97.474  0.00  0.00     0.117 C 
ATOM      7  C1  A3M d          77.917  75.383  98.571  0.00  0.00    -0.038 C 
ATOM      8  H3  A3M d          79.677  75.002  99.906  0.00  0.00     0.080 H 
ATOM      9  H4  A3M d          79.827  76.502  98.929  0.00  0.00     0.080 H 
ATOM     10  C5  A3M d          77.888  74.501  97.243  0.00  0.00    -0.038 C 
ATOM     11  H1  A3M d          77.505  76.386  98.387  0.00  0.00     0.035 H 
ATOM     12  H2  A3M d          77.352  74.896  99.379  0.00  0.00     0.035 H 
ATOM     13  H7  A3M d          77.964  75.120  96.337  0.00  0.00     0.035 H 
ATOM     14  H8  A3M d          76.984  73.877  97.184  0.00  0.00     0.035 H 
ATOM     15  H5  A3M d          79.018  72.922  98.283  0.00  0.00     0.080 H 
ATOM     16  H6  A3M d          79.469  73.131  96.556  0.00  0.00     0.080 H 
ATOM     17  O18 A3M d          81.738  72.888  98.142  0.00  0.00    -0.186 OA
ENDBRANCH   1   3
BRANCH   1  18
ATOM     18  C16 A3M d          82.866  76.371  97.935  0.00  0.00    -0.029 C 
ATOM     19  H10 A3M d          82.360  76.321  96.958  0.00  0.00     0.042 H 
BRANCH  18  20
ATOM     20  C17 A3M d          82.399  77.568  98.651  0.00  0.00    -0.071 C 
ATOM     21  H11 A3M d          81.303  77.538  98.741  0.00  0.00     0.028 H 
ATOM     22  H12 A3M d          82.696  78.468  98.094  0.00  0.00     0.028 H 
ATOM     23  H13 A3M d          82.848  77.593  99.655  0.00  0.00     0.028 H 
ENDBRANCH  18  20
BRANCH  18  24
ATOM     24  C26 A3M d          84.525  76.611  97.709  0.00  0.00    -0.071 C 
ATOM     25  H17 A3M d          84.893  77.342  98.445  0.00  0.00     0.028 H 
ATOM     26  H18 A3M d          84.706  76.991  96.693  0.00  0.00     0.028 H 
ATOM     27  H19 A3M d          85.056  75.657  97.844  0.00  0.00     0.028 H 
ENDBRANCH  18  24
ENDBRANCH   1  18
BRANCH   1  28
ATOM     28  N19 A3M d          83.906  74.301  98.615  0.00  0.00    -0.070 N 
ATOM     29  H14 A3M d          84.145  74.083  97.660  0.00  0.00     0.274 HD
ATOM     30  H15 A3M d          83.799  73.446  99.138  0.00  0.00     0.274 HD
ATOM     31  H16 A3M d          84.640  74.856  99.026  0.00  0.00     0.274 HD
ENDBRANCH   1  28
TORSDOF 5
ENDMDL
MODEL 2
REMARK VINA RESULT:      -5.5      1.313      4.665
REMARK  5 active torsions:
REMARK  status: ('A' for Active; 'I' for Inactive)
REMARK       I    between atoms: N3_3  and  C14_6 
REMARK    1  A    between atoms: C14_6  and  C15_7 
REMARK    2  A    between atoms: C15_7  and  C16_8 
REMARK    3  A    between atoms: C15_7  and  N19_11 
REMARK    4  A    between atoms: C16_8  and  C17_9 
REMARK    5  A    between atoms: C16_8  and  C26_12 
ROOT
ATOM      1  C15 A3M d          80.243  74.599  97.756  0.00  0.00     0.169 C 
ATOM      2  H9  A3M d          80.081  75.551  97.230  0.00  0.00     0.092 H 
ENDROOT
BRANCH   1   3
ATOM      3  C14 A3M d          81.680  74.559  98.062  0.00  0.00     0.384 C 
ATOM      4  N3  A3M d          82.577  75.703  98.225  0.00  0.00     0.134 N 
ATOM      5  C2  A3M d          82.608  76.598  97.055  0.00  0.00     0.117 C 
ATOM      6  C4  A3M d          84.001  75.404  98.504  0.00  0.00     0.117 C 
ATOM      7  C1  A3M d          83.980  77.417  97.203  0.00  0.00    -0.038 C 
ATOM      8  H3  A3M d          82.603  76.016  96.122  0.00  0.00     0.080 H 
ATOM      9  H4  A3M d          81.746  77.281  97.067  0.00  0.00     0.080 H 
ATOM     10  C5  A3M d          84.614  76.826  98.540  0.00  0.00    -0.038 C 
ATOM     11  H1  A3M d          83.787  78.496  97.301  0.00  0.00     0.035 H 
ATOM     12  H2  A3M d          84.641  77.240  96.341  0.00  0.00     0.035 H 
ATOM     13  H7  A3M d          84.295  77.388  99.430  0.00  0.00     0.035 H 
ATOM     14  H8  A3M d          85.713  76.800  98.498  0.00  0.00     0.035 H 
ATOM     15  H5  A3M d          84.448  74.795  97.704  0.00  0.00     0.080 H 
ATOM     16  H6  A3M d          84.122  74.890  99.468  0.00  0.00     0.080 H 
ATOM     17  O18 A3M d          82.223  73.304  98.203  0.00  0.00    -0.186 OA
ENDBRANCH   1   3
BRANCH   1  18
ATOM     18  C16 A3M d          79.268  74.577  98.898  0.00  0.00    -0.029 C 
ATOM     19  H10 A3M d          79.837  74.717  99.829  0.00  0.00     0.042 H 
BRANCH  18  20
ATOM     20  C17 A3M d          78.211  75.598  98.829  0.00  0.00    -0.071 C 
ATOM     21  H11 A3M d          78.370  76.233  97.945  0.00  0.00     0.028 H 
ATOM     22  H12 A3M d          78.241  76.219  99.736  0.00  0.00     0.028 H 
ATOM     23  H13 A3M d          77.230  75.106  98.755  0.00  0.00     0.028 H 
ENDBRANCH  18  20
BRANCH  18  24
ATOM     24  C26 A3M d          78.449  73.097  98.942  0.00  0.00    -0.071 C 
ATOM     25  H17 A3M d          77.666  73.135  99.714  0.00  0.00     0.028 H 
ATOM     26  H18 A3M d          79.160  72.291  99.180  0.00  0.00     0.028 H 
ATOM     27  H19 A3M d          77.989  72.902  97.962  0.00  0.00     0.028 H 
ENDBRANCH  18  24
ENDBRANCH   1  18
BRANCH   1  28
ATOM     28  N19 A3M d          79.855  73.490  96.824  0.00  0.00    -0.070 N 
ATOM     29  H14 A3M d          80.397  73.557  95.976  0.00  0.00     0.274 HD
ATOM     30  H15 A3M d          78.875  73.565  96.602  0.00  0.00     0.274 HD
ATOM     31  H16 A3M d          80.033  72.602  97.265  0.00  0.00     0.274 HD
ENDBRANCH   1  28
TORSDOF 5
ENDMDL
MODEL 3
REMARK VINA RESULT:      -5.2      1.202      4.570
REMARK  5 active torsions:
REMARK  status: ('A' for Active; 'I' for Inactive)
REMARK       I    between atoms: N3_3  and  C14_6 
REMARK    1  A    between atoms: C14_6  and  C15_7 
REMARK    2  A    between atoms: C15_7  and  C16_8 
REMARK    3  A    between atoms: C15_7  and  N19_11 
REMARK    4  A    between atoms: C16_8  and  C17_9 
REMARK    5  A    between atoms: C16_8  and  C26_12 
ROOT
ATOM      1  C15 A3M d          80.221  74.403  99.019  0.00  0.00     0.169 C 
ATOM      2  H9  A3M d          79.964  73.392  99.369  0.00  0.00     0.092 H 
ENDROOT
BRANCH   1   3
ATOM      3  C14 A3M d          81.657  74.357  98.709  0.00  0.00     0.384 C 
ATOM      4  N3  A3M d          82.585  75.487  98.670  0.00  0.00     0.134 N 
ATOM      5  C2  A3M d          82.176  76.554  97.740  0.00  0.00     0.117 C 
ATOM      6  C4  A3M d          83.989  75.189  98.301  0.00  0.00     0.117 C 
ATOM      7  C1  A3M d          83.520  77.379  97.446  0.00  0.00    -0.038 C 
ATOM      8  H3  A3M d          81.773  76.124  96.811  0.00  0.00     0.080 H 
ATOM      9  H4  A3M d          81.417  77.201  98.204  0.00  0.00     0.080 H 
ATOM     10  C5  A3M d          84.617  76.604  98.305  0.00  0.00    -0.038 C 
ATOM     11  H1  A3M d          83.423  78.423  97.779  0.00  0.00     0.035 H 
ATOM     12  H2  A3M d          83.770  77.357  96.375  0.00  0.00     0.035 H 
ATOM     13  H7  A3M d          84.705  77.012  99.322  0.00  0.00     0.035 H 
ATOM     14  H8  A3M d          85.604  76.618  97.819  0.00  0.00     0.035 H 
ATOM     15  H5  A3M d          84.053  74.724  97.305  0.00  0.00     0.080 H 
ATOM     16  H6  A3M d          84.469  74.535  99.042  0.00  0.00     0.080 H 
ATOM     17  O18 A3M d          82.164  73.111  98.423  0.00  0.00    -0.186 OA
ENDBRANCH   1   3
BRANCH   1  18
ATOM     18  C16 A3M d          79.260  74.722  97.910  0.00  0.00    -0.029 C 
ATOM     19  H10 A3M d          79.764  75.411  97.215  0.00  0.00     0.042 H 
BRANCH  18  20
ATOM     20  C17 A3M d          78.776  73.556  97.155  0.00  0.00    -0.071 C 
ATOM     21  H11 A3M d          79.515  73.283  96.387  0.00  0.00     0.028 H 
ATOM     22  H12 A3M d          77.820  73.803  96.671  0.00  0.00     0.028 H 
ATOM     23  H13 A3M d          78.631  72.709  97.841  0.00  0.00     0.028 H 
ENDBRANCH  18  20
BRANCH  18  24
ATOM     24  C26 A3M d          77.867  75.453  98.532  0.00  0.00    -0.071 C 
ATOM     25  H17 A3M d          77.863  75.361  99.628  0.00  0.00     0.028 H 
ATOM     26  H18 A3M d          76.976  74.956  98.119  0.00  0.00     0.028 H 
ATOM     27  H19 A3M d          77.855  76.517  98.254  0.00  0.00     0.028 H 
ENDBRANCH  18  24
ENDBRANCH   1  18
BRANCH   1  28
ATOM     28  N19 A3M d          79.936  75.360 100.138  0.00  0.00    -0.070 N 
ATOM     29  H14 A3M d          80.677  75.312 100.819  0.00  0.00     0.274 HD
ATOM     30  H15 A3M d          79.062  75.115 100.575  0.00  0.00     0.274 HD
ATOM     31  H16 A3M d          79.877  76.297  99.772  0.00  0.00     0.274 HD
ENDBRANCH   1  28
TORSDOF 5
ENDMDL
MODEL 4
REMARK VINA RESULT:      -5.2      1.908      5.018
REMARK  5 active torsions:
REMARK  status: ('A' for Active; 'I' for Inactive)
REMARK       I    between atoms: N3_3  and  C14_6 
REMARK    1  A    between atoms: C14_6  and  C15_7 
REMARK    2  A    between atoms: C15_7  and  C16_8 
REMARK    3  A    between atoms: C15_7  and  N19_11 
REMARK    4  A    between atoms: C16_8  and  C17_9 
REMARK    5  A    between atoms: C16_8  and  C26_12 
ROOT
ATOM      1  C15 A3M d          79.914  74.931  98.708  0.00  0.00     0.169 C 
ATOM      2  H9  A3M d          80.529  74.073  98.400  0.00  0.00     0.092 H 
ENDROOT
BRANCH   1   3
ATOM      3  C14 A3M d          80.782  76.108  98.565  0.00  0.00     0.384 C 
ATOM      4  N3  A3M d          82.109  76.153  97.953  0.00  0.00     0.134 N 
ATOM      5  C2  A3M d          83.072  75.221  98.566  0.00  0.00     0.117 C 
ATOM      6  C4  A3M d          82.805  77.462  97.955  0.00  0.00     0.117 C 
ATOM      7  C1  A3M d          84.514  75.793  98.155  0.00  0.00    -0.038 C 
ATOM      8  H3  A3M d          82.957  75.210  99.659  0.00  0.00     0.080 H 
ATOM      9  H4  A3M d          82.931  74.204  98.171  0.00  0.00     0.080 H 
ATOM     10  C5  A3M d          84.160  77.093  97.303  0.00  0.00    -0.038 C 
ATOM     11  H1  A3M d          85.070  75.063  97.548  0.00  0.00     0.035 H 
ATOM     12  H2  A3M d          85.104  76.054  99.046  0.00  0.00     0.035 H 
ATOM     13  H7  A3M d          84.052  76.865  96.232  0.00  0.00     0.035 H 
ATOM     14  H8  A3M d          84.909  77.887  97.434  0.00  0.00     0.035 H 
ATOM     15  H5  A3M d          82.942  77.843  98.978  0.00  0.00     0.080 H 
ATOM     16  H6  A3M d          82.260  78.205  97.355  0.00  0.00     0.080 H 
ATOM     17  O18 A3M d          80.278  77.283  99.070  0.00  0.00    -0.186 OA
ENDBRANCH   1   3
BRANCH   1  18
ATOM     18  C16 A3M d          78.658  74.865  97.887  0.00  0.00    -0.029 C 
ATOM     19  H10 A3M d          78.708  75.661  97.129  0.00  0.00     0.042 H 
BRANCH  18  20
ATOM     20  C17 A3M d          78.427  73.579  97.210  0.00  0.00    -0.071 C 
ATOM     21  H11 A3M d          79.305  73.323  96.598  0.00  0.00     0.028 H 
ATOM     22  H12 A3M d          77.540  73.658  96.564  0.00  0.00     0.028 H 
ATOM     23  H13 A3M d          78.263  72.793  97.962  0.00  0.00     0.028 H 
ENDBRANCH  18  20
BRANCH  18  24
ATOM     24  C26 A3M d          77.300  75.095  98.870  0.00  0.00    -0.071 C 
ATOM     25  H17 A3M d          77.185  76.166  99.091  0.00  0.00     0.028 H 
ATOM     26  H18 A3M d          77.430  74.539  99.811  0.00  0.00     0.028 H 
ATOM     27  H19 A3M d          76.403  74.728  98.349  0.00  0.00     0.028 H 
ENDBRANCH  18  24
ENDBRANCH   1  18
BRANCH   1  28
ATOM     28  N19 A3M d          79.516  74.719 100.139  0.00  0.00    -0.070 N 
ATOM     29  H14 A3M d          78.511  74.692 100.208  0.00  0.00     0.274 HD
ATOM     30  H15 A3M d          79.872  75.474 100.702  0.00  0.00     0.274 HD
ATOM     31  H16 A3M d          79.898  73.846 100.468  0.00  0.00     0.274 HD
ENDBRANCH   1  28
TORSDOF 5
ENDMDL
MODEL 5
REMARK VINA RESULT:      -5.1      1.804      2.096
REMARK  5 active torsions:
REMARK  status: ('A' for Active; 'I' for Inactive)
REMARK       I    between atoms: N3_3  and  C14_6 
REMARK    1  A    between atoms: C14_6  and  C15_7 
REMARK    2  A    between atoms: C15_7  and  C16_8 
REMARK    3  A    between atoms: C15_7  and  N19_11 
REMARK    4  A    between atoms: C16_8  and  C17_9 
REMARK    5  A    between atoms: C16_8  and  C26_12 
ROOT
ATOM      1  C15 A3M d          82.554  76.097  99.061  0.00  0.00     0.169 C 
ATOM      2  H9  A3M d          82.899  76.797  99.836  0.00  0.00     0.092 H 
ENDROOT
BRANCH   1   3
ATOM      3  C14 A3M d          81.095  76.266  99.001  0.00  0.00     0.384 C 
ATOM      4  N3  A3M d          80.097  75.223  98.770  0.00  0.00     0.134 N 
ATOM      5  C2  A3M d          80.302  74.479  97.515  0.00  0.00     0.117 C 
ATOM      6  C4  A3M d          78.679  75.649  98.723  0.00  0.00     0.117 C 
ATOM      7  C1  A3M d          78.878  73.811  97.197  0.00  0.00    -0.038 C 
ATOM      8  H3  A3M d          80.600  75.161  96.705  0.00  0.00     0.080 H 
ATOM      9  H4  A3M d          81.073  73.705  97.645  0.00  0.00     0.080 H 
ATOM     10  C5  A3M d          77.965  74.313  98.403  0.00  0.00    -0.038 C 
ATOM     11  H1  A3M d          78.950  72.714  97.187  0.00  0.00     0.035 H 
ATOM     12  H2  A3M d          78.484  74.162  96.231  0.00  0.00     0.035 H 
ATOM     13  H7  A3M d          77.992  73.618  99.255  0.00  0.00     0.035 H 
ATOM     14  H8  A3M d          76.921  74.469  98.091  0.00  0.00     0.035 H 
ATOM     15  H5  A3M d          78.510  76.395  97.932  0.00  0.00     0.080 H 
ATOM     16  H6  A3M d          78.351  76.058  99.690  0.00  0.00     0.080 H 
ATOM     17  O18 A3M d          80.638  77.551  99.177  0.00  0.00    -0.186 OA
ENDBRANCH   1   3
BRANCH   1  18
ATOM     18  C16 A3M d          83.361  76.401  97.831  0.00  0.00    -0.029 C 
ATOM     19  H10 A3M d          82.943  75.813  97.000  0.00  0.00     0.042 H 
BRANCH  18  20
ATOM     20  C17 A3M d          83.387  77.820  97.442  0.00  0.00    -0.071 C 
ATOM     21  H11 A3M d          83.328  77.902  96.347  0.00  0.00     0.028 H 
ATOM     22  H12 A3M d          84.322  78.280  97.794  0.00  0.00     0.028 H 
ATOM     23  H13 A3M d          82.530  78.341  97.895  0.00  0.00     0.028 H 
ENDBRANCH  18  20
BRANCH  18  24
ATOM     24  C26 A3M d          84.982  75.981  98.073  0.00  0.00    -0.071 C 
ATOM     25  H17 A3M d          85.065  75.337  98.961  0.00  0.00     0.028 H 
ATOM     26  H18 A3M d          85.579  76.893  98.224  0.00  0.00     0.028 H 
ATOM     27  H19 A3M d          85.356  75.440  97.191  0.00  0.00     0.028 H 
ENDBRANCH  18  24
ENDBRANCH   1  18
BRANCH   1  28
ATOM     28  N19 A3M d          82.924  74.711  99.499  0.00  0.00    -0.070 N 
ATOM     29  H14 A3M d          82.794  74.627 100.495  0.00  0.00     0.274 HD
ATOM     30  H15 A3M d          83.889  74.533  99.270  0.00  0.00     0.274 HD
ATOM     31  H16 A3M d          82.337  74.042  99.026  0.00  0.00     0.274 HD
ENDBRANCH   1  28
TORSDOF 5
ENDMDL
MODEL 6
REMARK VINA RESULT:      -4.9      1.961      4.722
REMARK  5 active torsions:
REMARK  status: ('A' for Active; 'I' for Inactive)
REMARK       I    between atoms: N3_3  and  C14_6 
REMARK    1  A    between atoms: C14_6  and  C15_7 
REMARK    2  A    between atoms: C15_7  and  C16_8 
REMARK    3  A    between atoms: C15_7  and  N19_11 
REMARK    4  A    between atoms: C16_8  and  C17_9 
REMARK    5  A    between atoms: C16_8  and  C26_12 
ROOT
ATOM      1  C15 A3M d          80.183  74.955  99.147  0.00  0.00     0.169 C 
ATOM      2  H9  A3M d          80.909  74.308  99.661  0.00  0.00     0.092 H 
ENDROOT
BRANCH   1   3
ATOM      3  C14 A3M d          80.936  76.155  98.755  0.00  0.00     0.384 C 
ATOM      4  N3  A3M d          82.215  76.200  98.049  0.00  0.00     0.134 N 
ATOM      5  C2  A3M d          83.290  75.458  98.730  0.00  0.00     0.117 C 
ATOM      6  C4  A3M d          82.793  77.540  97.792  0.00  0.00     0.117 C 
ATOM      7  C1  A3M d          84.650  76.062  98.130  0.00  0.00    -0.038 C 
ATOM      8  H3  A3M d          83.242  75.617  99.817  0.00  0.00     0.080 H 
ATOM      9  H4  A3M d          83.215  74.382  98.514  0.00  0.00     0.080 H 
ATOM     10  C5  A3M d          84.134  77.173  97.110  0.00  0.00    -0.038 C 
ATOM     11  H1  A3M d          85.230  75.286  97.608  0.00  0.00     0.035 H 
ATOM     12  H2  A3M d          85.267  76.510  98.922  0.00  0.00     0.035 H 
ATOM     13  H7  A3M d          83.983  76.764  96.100  0.00  0.00     0.035 H 
ATOM     14  H8  A3M d          84.818  78.033  97.058  0.00  0.00     0.035 H 
ATOM     15  H5  A3M d          82.957  78.093  98.728  0.00  0.00     0.080 H 
ATOM     16  H6  A3M d          82.152  78.131  97.123  0.00  0.00     0.080 H 
ATOM     17  O18 A3M d          80.362  77.356  99.103  0.00  0.00    -0.186 OA
ENDBRANCH   1   3
BRANCH   1  18
ATOM     18  C16 A3M d          79.562  74.117  98.067  0.00  0.00    -0.029 C 
ATOM     19  H10 A3M d          79.432  73.099  98.464  0.00  0.00     0.042 H 
BRANCH  18  20
ATOM     20  C17 A3M d          78.264  74.604  97.574  0.00  0.00    -0.071 C 
ATOM     21  H11 A3M d          77.580  74.750  98.423  0.00  0.00     0.028 H 
ATOM     22  H12 A3M d          77.834  73.865  96.881  0.00  0.00     0.028 H 
ATOM     23  H13 A3M d          78.406  75.559  97.049  0.00  0.00     0.028 H 
ENDBRANCH  18  20
BRANCH  18  24
ATOM     24  C26 A3M d          80.564  74.078  96.704  0.00  0.00    -0.071 C 
ATOM     25  H17 A3M d          79.948  74.123  95.794  0.00  0.00     0.028 H 
ATOM     26  H18 A3M d          81.148  73.145  96.705  0.00  0.00     0.028 H 
ATOM     27  H19 A3M d          81.248  74.939  96.727  0.00  0.00     0.028 H 
ENDBRANCH  18  24
ENDBRANCH   1  18
BRANCH   1  28
ATOM     28  N19 A3M d          79.096  75.290 100.125  0.00  0.00    -0.070 N 
ATOM     29  H14 A3M d          79.221  74.746 100.965  0.00  0.00     0.274 HD
ATOM     30  H15 A3M d          78.200  75.077  99.717  0.00  0.00     0.274 HD
ATOM     31  H16 A3M d          79.138  76.271 100.352  0.00  0.00     0.274 HD
ENDBRANCH   1  28
TORSDOF 5
ENDMDL
MODEL 7
REMARK VINA RESULT:      -4.5      1.963      4.890
REMARK  5 active torsions:
REMARK  status: ('A' for Active; 'I' for Inactive)
REMARK       I    between atoms: N3_3  and  C14_6 
REMARK    1  A    between atoms: C14_6  and  C15_7 
REMARK    2  A    between atoms: C15_7  and  C16_8 
REMARK    3  A    between atoms: C15_7  and  N19_11 
REMARK    4  A    between atoms: C16_8  and  C17_9 
REMARK    5  A    between atoms: C16_8  and  C26_12 
ROOT
ATOM      1  C15 A3M d          80.352  74.850  98.525  0.00  0.00     0.169 C 
ATOM      2  H9  A3M d          80.105  74.664  97.470  0.00  0.00     0.092 H 
ENDROOT
BRANCH   1   3
ATOM      3  C14 A3M d          81.111  76.108  98.535  0.00  0.00     0.384 C 
ATOM      4  N3  A3M d          82.379  76.376  97.858  0.00  0.00     0.134 N 
ATOM      5  C2  A3M d          83.457  75.446  98.238  0.00  0.00     0.117 C 
ATOM      6  C4  A3M d          82.967  77.723  98.044  0.00  0.00     0.117 C 
ATOM      7  C1  A3M d          84.813  76.207  97.843  0.00  0.00    -0.038 C 
ATOM      8  H3  A3M d          83.428  75.241  99.318  0.00  0.00     0.080 H 
ATOM      9  H4  A3M d          83.367  74.501  97.682  0.00  0.00     0.080 H 
ATOM     10  C5  A3M d          84.293  77.594  97.254  0.00  0.00    -0.038 C 
ATOM     11  H1  A3M d          85.376  75.643  97.086  0.00  0.00     0.035 H 
ATOM     12  H2  A3M d          85.447  76.368  98.728  0.00  0.00     0.035 H 
ATOM     13  H7  A3M d          84.121  77.540  96.169  0.00  0.00     0.035 H 
ATOM     14  H8  A3M d          84.985  78.420  97.475  0.00  0.00     0.035 H 
ATOM     15  H5  A3M d          83.152  77.938  99.107  0.00  0.00     0.080 H 
ATOM     16  H6  A3M d          82.321  78.505  97.618  0.00  0.00     0.080 H 
ATOM     17  O18 A3M d          80.556  77.131  99.267  0.00  0.00    -0.186 OA
ENDBRANCH   1   3
BRANCH   1  18
ATOM     18  C16 A3M d          79.053  74.792  99.278  0.00  0.00    -0.029 C 
ATOM     19  H10 A3M d          79.095  75.545 100.079  0.00  0.00     0.042 H 
BRANCH  18  20
ATOM     20  C17 A3M d          77.853  75.032  98.462  0.00  0.00    -0.071 C 
ATOM     21  H11 A3M d          77.205  74.143  98.492  0.00  0.00     0.028 H 
ATOM     22  H12 A3M d          78.150  75.234  97.423  0.00  0.00     0.028 H 
ATOM     23  H13 A3M d          77.305  75.899  98.862  0.00  0.00     0.028 H 
ENDBRANCH  18  20
BRANCH  18  24
ATOM     24  C26 A3M d          78.831  73.254  99.948  0.00  0.00    -0.071 C 
ATOM     25  H17 A3M d          78.338  73.349 100.927  0.00  0.00     0.028 H 
ATOM     26  H18 A3M d          79.807  72.764 100.074  0.00  0.00     0.028 H 
ATOM     27  H19 A3M d          78.201  72.650  99.278  0.00  0.00     0.028 H 
ENDBRANCH  18  24
ENDBRANCH   1  18
BRANCH   1  28
ATOM     28  N19 A3M d          81.191  73.704  99.007  0.00  0.00    -0.070 N 
ATOM     29  H14 A3M d          80.594  72.984  99.382  0.00  0.00     0.274 HD
ATOM     30  H15 A3M d          81.820  74.027  99.725  0.00  0.00     0.274 HD
ATOM     31  H16 A3M d          81.724  73.331  98.237  0.00  0.00     0.274 HD
ENDBRANCH   1  28
TORSDOF 5
ENDMDL
MODEL 8
REMARK VINA RESULT:      -3.9      2.215      5.105
REMARK  5 active torsions:
REMARK  status: ('A' for Active; 'I' for Inactive)
REMARK       I    between atoms: N3_3  and  C14_6 
REMARK    1  A    between atoms: C14_6  and  C15_7 
REMARK    2  A    between atoms: C15_7  and  C16_8 
REMARK    3  A    between atoms: C15_7  and  N19_11 
REMARK    4  A    between atoms: C16_8  and  C17_9 
REMARK    5  A    between atoms: C16_8  and  C26_12 
ROOT
ATOM      1  C15 A3M d          77.978  75.036  99.534  0.00  0.00     0.169 C 
ATOM      2  H9  A3M d          78.174  74.288 100.316  0.00  0.00     0.092 H 
ENDROOT
BRANCH   1   3
ATOM      3  C14 A3M d          79.297  75.563  99.157  0.00  0.00     0.384 C 
ATOM      4  N3  A3M d          80.528  74.798  98.963  0.00  0.00     0.134 N 
ATOM      5  C2  A3M d          80.919  74.002 100.139  0.00  0.00     0.117 C 
ATOM      6  C4  A3M d          81.746  75.565  98.610  0.00  0.00     0.117 C 
ATOM      7  C1  A3M d          82.482  73.706  99.933  0.00  0.00    -0.038 C 
ATOM      8  H3  A3M d          80.751  74.571 101.065  0.00  0.00     0.080 H 
ATOM      9  H4  A3M d          80.348  73.062 100.177  0.00  0.00     0.080 H 
ATOM     10  C5  A3M d          82.814  74.444  98.559  0.00  0.00    -0.038 C 
ATOM     11  H1  A3M d          82.672  72.625  99.856  0.00  0.00     0.035 H 
ATOM     12  H2  A3M d          83.076  74.125 100.759  0.00  0.00     0.035 H 
ATOM     13  H7  A3M d          82.673  73.782  97.693  0.00  0.00     0.035 H 
ATOM     14  H8  A3M d          83.836  74.850  98.547  0.00  0.00     0.035 H 
ATOM     15  H5  A3M d          81.987  76.313  99.380  0.00  0.00     0.080 H 
ATOM     16  H6  A3M d          81.639  76.062  97.636  0.00  0.00     0.080 H 
ATOM     17  O18 A3M d          79.363  76.925  98.976  0.00  0.00    -0.186 OA
ENDBRANCH   1   3
BRANCH   1  18
ATOM     18  C16 A3M d          77.158  74.343  98.484  0.00  0.00    -0.029 C 
ATOM     19  H10 A3M d          76.099  74.562  98.685  0.00  0.00     0.042 H 
BRANCH  18  20
ATOM     20  C17 A3M d          77.469  74.731  97.099  0.00  0.00    -0.071 C 
ATOM     21  H11 A3M d          76.978  75.688  96.867  0.00  0.00     0.028 H 
ATOM     22  H12 A3M d          77.103  73.955  96.410  0.00  0.00     0.028 H 
ATOM     23  H13 A3M d          78.557  74.840  96.984  0.00  0.00     0.028 H 
ENDBRANCH  18  20
BRANCH  18  24
ATOM     24  C26 A3M d          77.420  72.672  98.542  0.00  0.00    -0.071 C 
ATOM     25  H17 A3M d          77.262  72.312  99.569  0.00  0.00     0.028 H 
ATOM     26  H18 A3M d          78.452  72.451  98.231  0.00  0.00     0.028 H 
ATOM     27  H19 A3M d          76.716  72.167  97.864  0.00  0.00     0.028 H 
ENDBRANCH  18  24
ENDBRANCH   1  18
BRANCH   1  28
ATOM     28  N19 A3M d          77.115  76.107 100.132  0.00  0.00    -0.070 N 
ATOM     29  H14 A3M d          76.209  75.724 100.354  0.00  0.00     0.274 HD
ATOM     30  H15 A3M d          77.007  76.860  99.471  0.00  0.00     0.274 HD
ATOM     31  H16 A3M d          77.547  76.457 100.972  0.00  0.00     0.274 HD
ENDBRANCH   1  28
TORSDOF 5
ENDMDL
MODEL 9
REMARK VINA RESULT:      -2.8      1.781      2.051
REMARK  5 active torsions:
REMARK  status: ('A' for Active; 'I' for Inactive)
REMARK       I    between atoms: N3_3  and  C14_6 
REMARK    1  A    between atoms: C14_6  and  C15_7 
REMARK    2  A    between atoms: C15_7  and  C16_8 
REMARK    3  A    between atoms: C15_7  and  N19_11 
REMARK    4  A    between atoms: C16_8  and  C17_9 
REMARK    5  A    between atoms: C16_8  and  C26_12 
ROOT
ATOM      1  C15 A3M d          81.433  74.318  97.849  0.00  0.00     0.169 C 
ATOM      2  H9  A3M d          82.205  73.580  97.587  0.00  0.00     0.092 H 
ENDROOT
BRANCH   1   3
ATOM      3  C14 A3M d          80.513  73.618  98.757  0.00  0.00     0.384 C 
ATOM      4  N3  A3M d          79.069  73.816  98.870  0.00  0.00     0.134 N 
ATOM      5  C2  A3M d          78.686  75.206  99.171  0.00  0.00     0.117 C 
ATOM      6  C4  A3M d          78.358  73.005  99.887  0.00  0.00     0.117 C 
ATOM      7  C1  A3M d          77.202  75.102  99.772  0.00  0.00    -0.038 C 
ATOM      8  H3  A3M d          79.373  75.646  99.909  0.00  0.00     0.080 H 
ATOM      9  H4  A3M d          78.691  75.816  98.255  0.00  0.00     0.080 H 
ATOM     10  C5  A3M d          76.910  73.535  99.748  0.00  0.00    -0.038 C 
ATOM     11  H1  A3M d          76.482  75.647  99.143  0.00  0.00     0.035 H 
ATOM     12  H2  A3M d          77.163  75.495 100.799  0.00  0.00     0.035 H 
ATOM     13  H7  A3M d          76.445  73.218  98.803  0.00  0.00     0.035 H 
ATOM     14  H8  A3M d          76.276  73.222 100.591  0.00  0.00     0.035 H 
ATOM     15  H5  A3M d          78.758  73.187 100.896  0.00  0.00     0.080 H 
ATOM     16  H6  A3M d          78.417  71.932  99.657  0.00  0.00     0.080 H 
ATOM     17  O18 A3M d          81.091  72.684  99.584  0.00  0.00    -0.186 OA
ENDBRANCH   1   3
BRANCH   1  18
ATOM     18  C16 A3M d          82.163  75.526  98.364  0.00  0.00    -0.029 C 
ATOM     19  H10 A3M d          81.992  76.350  97.655  0.00  0.00     0.042 H 
BRANCH  18  20
ATOM     20  C17 A3M d          81.763  75.966  99.709  0.00  0.00    -0.071 C 
ATOM     21  H11 A3M d          81.955  77.044  99.815  0.00  0.00     0.028 H 
ATOM     22  H12 A3M d          82.343  75.415 100.463  0.00  0.00     0.028 H 
ATOM     23  H13 A3M d          80.691  75.768  99.856  0.00  0.00     0.028 H 
ENDBRANCH  18  20
BRANCH  18  24
ATOM     24  C26 A3M d          83.820  75.205  98.480  0.00  0.00    -0.071 C 
ATOM     25  H17 A3M d          84.351  76.120  98.782  0.00  0.00     0.028 H 
ATOM     26  H18 A3M d          84.198  74.868  97.503  0.00  0.00     0.028 H 
ATOM     27  H19 A3M d          83.990  74.418  99.230  0.00  0.00     0.028 H 
ENDBRANCH  18  24
ENDBRANCH   1  18
BRANCH   1  28
ATOM     28  N19 A3M d          80.742  74.728  96.583  0.00  0.00    -0.070 N 
ATOM     29  H14 A3M d          80.652  73.928  95.975  0.00  0.00     0.274 HD
ATOM     30  H15 A3M d          81.283  75.441  96.120  0.00  0.00     0.274 HD
ATOM     31  H16 A3M d          79.827  75.088  96.801  0.00  0.00     0.274 HD
ENDBRANCH   1  28
TORSDOF 5
ENDMDL
