MODEL 1
REMARK VINA RESULT:     -11.1      0.000      0.000
REMARK  9 active torsions:
REMARK  status: ('A' for Active; 'I' for Inactive)
REMARK    1  A    between atoms: C9_2  and  O37_1 
REMARK    2  A    between atoms: C7_6  and  C6_7 
REMARK    3  A    between atoms: N3_14  and  C25_28 
REMARK    4  A    between atoms: N2_17  and  C21_26 
REMARK    5  A    between atoms: C21_26  and  C26_36 
REMARK    6  A    between atoms: C23_30  and  N4_31 
REMARK    7  A    between atoms: N4_31  and  C28_32 
REMARK    8  A    between atoms: C22_33  and  O6_34 
REMARK    9  A    between atoms: O6_34  and  C27_35 
ROOT
ATOM      1  C21 UCN d           5.681   4.268  13.601  0.00  0.00     0.168 C 
ATOM      2  O4  UCN d           6.090   3.535  14.741  0.00  0.00    -0.333 OA
ATOM      3  C25 UCN d           5.773   3.823  16.108  0.00  0.00     0.115 C 
ATOM      4  C24 UCN d           4.245   4.204  16.225  0.00  0.00     0.005 C 
ATOM      5  C23 UCN d           3.510   4.159  14.854  0.00  0.00     0.134 C 
ATOM      6  C22 UCN d           4.275   5.012  13.772  0.00  0.00     0.113 C 
ATOM      7  H12 UCN d           5.991   2.944  16.732  0.00  0.00     0.118 H 
ATOM      8  H13 UCN d           4.166   5.222  16.633  0.00  0.00     0.042 H 
ATOM      9  H14 UCN d           3.756   3.496  16.910  0.00  0.00     0.042 H 
ATOM     10  H15 UCN d           3.469   3.118  14.498  0.00  0.00     0.088 H 
ATOM     11  H21 UCN d           3.729   5.068  12.819  0.00  0.00     0.094 H 
ENDROOT
BRANCH   5  12
ATOM     12  N4  UCN d           2.037   4.667  15.125  0.00  0.00    -0.072 N 
ATOM     13  H16 UCN d           1.523   4.664  14.258  0.00  0.00     0.277 HD
ATOM     14  H17 UCN d           2.073   5.605  15.490  0.00  0.00     0.277 HD
BRANCH  12  15
ATOM     15  C28 UCN d           1.339   3.780  16.113  0.00  0.00     0.065 C 
ATOM     16  H18 UCN d           0.840   4.399  16.873  0.00  0.00     0.067 H 
ATOM     17  H19 UCN d           2.075   3.123  16.600  0.00  0.00     0.067 H 
ATOM     18  H20 UCN d           0.590   3.167  15.591  0.00  0.00     0.067 H 
ENDBRANCH  12  15
ENDBRANCH   5  12
BRANCH   6  19
ATOM     19  O6  UCN d           4.463   6.333  14.349  0.00  0.00    -0.384 OA
BRANCH  19  20
ATOM     20  C27 UCN d           5.095   7.232  13.451  0.00  0.00     0.005 C 
ATOM     21  H22 UCN d           6.118   7.440  13.798  0.00  0.00     0.066 H 
ATOM     22  H23 UCN d           4.523   8.172  13.411  0.00  0.00     0.066 H 
ATOM     23  H24 UCN d           5.133   6.782  12.448  0.00  0.00     0.066 H 
ENDBRANCH  19  20
ENDBRANCH   6  19
BRANCH   3  24
ATOM     24  N3  UCN d           6.568   4.984  16.574  0.00  0.00    -0.316 N 
ATOM     25  C20 UCN d           7.859   5.218  16.193  0.00  0.00     0.048 A 
ATOM     26  C5  UCN d           8.216   6.572  16.571  0.00  0.00     0.004 A 
ATOM     27  C1  UCN d           8.788   4.344  15.525  0.00  0.00    -0.056 A 
ATOM     28  C6  UCN d           7.081   7.131  17.203  0.00  0.00     0.022 A 
ATOM     29  C4  UCN d           9.521   7.013  16.259  0.00  0.00    -0.070 A 
ATOM     30  C19 UCN d           6.022   6.141  17.220  0.00  0.00     0.077 A 
ATOM     31  C18 UCN d           4.783   6.387  17.791  0.00  0.00     0.077 A 
ATOM     32  N2  UCN d           3.598   5.574  17.957  0.00  0.00    -0.308 N 
ATOM     33  C11 UCN d           4.466   7.678  18.407  0.00  0.00     0.017 A 
ATOM     34  C17 UCN d           2.577   6.314  18.632  0.00  0.00     0.049 A 
ATOM     35  C12 UCN d           3.132   7.627  18.907  0.00  0.00     0.004 A 
ATOM     36  C16 UCN d           1.271   6.022  19.045  0.00  0.00    -0.056 A 
ATOM     37  C13 UCN d           2.331   8.572  19.583  0.00  0.00    -0.070 A 
ATOM     38  C14 UCN d           1.022   8.286  19.994  0.00  0.00    -0.082 A 
ATOM     39  H8  UCN d           2.742   9.553  19.793  0.00  0.00     0.084 H 
ATOM     40  C15 UCN d           0.499   6.967  19.707  0.00  0.00    -0.081 A 
ATOM     41  H9  UCN d           0.422   9.027  20.509  0.00  0.00     0.083 H 
ATOM     42  H10 UCN d          -0.510   6.714  20.013  0.00  0.00     0.083 H 
ATOM     43  H11 UCN d           0.856   5.040  18.845  0.00  0.00     0.087 H 
ATOM     44  C10 UCN d           5.516   8.670  18.384  0.00  0.00     0.020 A 
ATOM     45  C9  UCN d           5.454  10.090  18.961  0.00  0.00     0.131 A 
ATOM     46  C7  UCN d           6.713   8.440  17.847  0.00  0.00     0.057 A 
ATOM     47  N1  UCN d           6.795  10.522  18.635  0.00  0.00    -0.326 N 
ATOM     48  H2  UCN d           4.685  10.709  18.476  0.00  0.00     0.126 H 
ATOM     49  C8  UCN d           7.587   9.643  17.998  0.00  0.00     0.255 A 
ATOM     50  H3  UCN d           7.120  11.437  18.874  0.00  0.00     0.165 HD
ATOM     51  O5  UCN d           8.745   9.797  17.638  0.00  0.00    -0.268 OA
ATOM     52  C3  UCN d          10.427   6.185  15.616  0.00  0.00    -0.082 A 
ATOM     53  H7  UCN d           9.819   8.020  16.527  0.00  0.00     0.084 H 
ATOM     54  C2  UCN d          10.069   4.840  15.243  0.00  0.00    -0.081 A 
ATOM     55  H6  UCN d          11.421   6.555  15.390  0.00  0.00     0.083 H 
ATOM     56  H5  UCN d          10.794   4.209  14.742  0.00  0.00     0.083 H 
ATOM     57  H4  UCN d           8.506   3.335  15.250  0.00  0.00     0.087 H 
BRANCH  45  58
ATOM     58  O37 UCN d           5.242  10.059  20.368  0.00  0.00    -0.372 OA
ATOM     59  H1  UCN d           5.817  10.687  20.789  0.00  0.00     0.212 HD
ENDBRANCH  45  58
ENDBRANCH   3  24
BRANCH   1  60
ATOM     60  C26 UCN d           5.536   3.207  12.515  0.00  0.00    -0.028 C 
ATOM     61  H25 UCN d           6.461   2.616  12.453  0.00  0.00     0.034 H 
ATOM     62  H26 UCN d           5.348   3.696  11.547  0.00  0.00     0.034 H 
ATOM     63  H27 UCN d           4.693   2.544  12.761  0.00  0.00     0.034 H 
ENDBRANCH   1  60
TORSDOF 9
ENDMDL
MODEL 2
REMARK VINA RESULT:     -10.8      1.065      5.283
REMARK  9 active torsions:
REMARK  status: ('A' for Active; 'I' for Inactive)
REMARK    1  A    between atoms: C9_2  and  O37_1 
REMARK    2  A    between atoms: C7_6  and  C6_7 
REMARK    3  A    between atoms: N3_14  and  C25_28 
REMARK    4  A    between atoms: N2_17  and  C21_26 
REMARK    5  A    between atoms: C21_26  and  C26_36 
REMARK    6  A    between atoms: C23_30  and  N4_31 
REMARK    7  A    between atoms: N4_31  and  C28_32 
REMARK    8  A    between atoms: C22_33  and  O6_34 
REMARK    9  A    between atoms: O6_34  and  C27_35 
ROOT
ATOM      1  C21 UCN d           4.650   4.104  14.601  0.00  0.00     0.168 C 
ATOM      2  O4  UCN d           4.966   3.752  15.935  0.00  0.00    -0.333 OA
ATOM      3  C25 UCN d           4.142   3.935  17.092  0.00  0.00     0.115 C 
ATOM      4  C24 UCN d           2.658   3.508  16.753  0.00  0.00     0.005 C 
ATOM      5  C23 UCN d           2.499   3.010  15.288  0.00  0.00     0.134 C 
ATOM      6  C22 UCN d           3.086   4.056  14.266  0.00  0.00     0.113 C 
ATOM      7  H12 UCN d           4.528   3.326  17.923  0.00  0.00     0.118 H 
ATOM      8  H13 UCN d           2.000   4.376  16.904  0.00  0.00     0.042 H 
ATOM      9  H14 UCN d           2.360   2.699  17.435  0.00  0.00     0.042 H 
ATOM     10  H15 UCN d           3.052   2.067  15.162  0.00  0.00     0.088 H 
ATOM     11  H21 UCN d           2.905   3.768  13.220  0.00  0.00     0.094 H 
ENDROOT
BRANCH   5  12
ATOM     12  N4  UCN d           0.956   2.731  15.081  0.00  0.00    -0.072 N 
ATOM     13  H16 UCN d           0.844   1.948  14.457  0.00  0.00     0.277 HD
ATOM     14  H17 UCN d           0.524   3.547  14.677  0.00  0.00     0.277 HD
BRANCH  12  15
ATOM     15  C28 UCN d           0.289   2.419  16.388  0.00  0.00     0.065 C 
ATOM     16  H18 UCN d          -0.635   1.853  16.202  0.00  0.00     0.067 H 
ATOM     17  H19 UCN d           0.047   3.357  16.909  0.00  0.00     0.067 H 
ATOM     18  H20 UCN d           0.968   1.818  17.011  0.00  0.00     0.067 H 
ENDBRANCH  12  15
ENDBRANCH   5  12
BRANCH   6  19
ATOM     19  O6  UCN d           2.458   5.330  14.576  0.00  0.00    -0.384 OA
BRANCH  19  20
ATOM     20  C27 UCN d           3.337   6.428  14.387  0.00  0.00     0.005 C 
ATOM     21  H22 UCN d           2.852   7.351  14.739  0.00  0.00     0.066 H 
ATOM     22  H23 UCN d           3.577   6.525  13.317  0.00  0.00     0.066 H 
ATOM     23  H24 UCN d           4.262   6.260  14.957  0.00  0.00     0.066 H 
ENDBRANCH  19  20
ENDBRANCH   6  19
BRANCH   3  24
ATOM     24  N3  UCN d           4.126   5.366  17.477  0.00  0.00    -0.316 N 
ATOM     25  C20 UCN d           3.074   5.968  18.109  0.00  0.00     0.048 A 
ATOM     26  C5  UCN d           3.510   7.258  18.608  0.00  0.00     0.004 A 
ATOM     27  C1  UCN d           1.731   5.490  18.303  0.00  0.00    -0.056 A 
ATOM     28  C6  UCN d           4.867   7.400  18.237  0.00  0.00     0.022 A 
ATOM     29  C4  UCN d           2.562   8.041  19.302  0.00  0.00    -0.070 A 
ATOM     30  C19 UCN d           5.281   6.215  17.515  0.00  0.00     0.077 A 
ATOM     31  C18 UCN d           6.560   6.063  17.003  0.00  0.00     0.077 A 
ATOM     32  N2  UCN d           7.195   5.012  16.239  0.00  0.00    -0.308 N 
ATOM     33  C11 UCN d           7.581   7.100  17.173  0.00  0.00     0.017 A 
ATOM     34  C17 UCN d           8.553   5.357  15.950  0.00  0.00     0.049 A 
ATOM     35  C12 UCN d           8.781   6.664  16.540  0.00  0.00     0.004 A 
ATOM     36  C16 UCN d           9.595   4.727  15.256  0.00  0.00    -0.056 A 
ATOM     37  C13 UCN d          10.053   7.258  16.396  0.00  0.00    -0.070 A 
ATOM     38  C14 UCN d          11.100   6.629  15.709  0.00  0.00    -0.082 A 
ATOM     39  H8  UCN d          10.227   8.235  16.833  0.00  0.00     0.084 H 
ATOM     40  C15 UCN d          10.840   5.328  15.130  0.00  0.00    -0.081 A 
ATOM     41  H9  UCN d          12.071   7.101  15.613  0.00  0.00     0.083 H 
ATOM     42  H10 UCN d          11.628   4.816  14.590  0.00  0.00     0.083 H 
ATOM     43  H11 UCN d           9.425   3.753  14.811  0.00  0.00     0.087 H 
ATOM     44  C10 UCN d           7.175   8.281  17.900  0.00  0.00     0.020 A 
ATOM     45  C9  UCN d           8.036   9.512  18.212  0.00  0.00     0.131 A 
ATOM     46  C7  UCN d           5.945   8.440  18.387  0.00  0.00     0.057 A 
ATOM     47  N1  UCN d           7.049  10.300  18.917  0.00  0.00    -0.326 N 
ATOM     48  H2  UCN d           8.906   9.270  18.840  0.00  0.00     0.126 H 
ATOM     49  C8  UCN d           5.825   9.767  19.064  0.00  0.00     0.255 A 
ATOM     50  H3  UCN d           7.269  11.206  19.280  0.00  0.00     0.165 HD
ATOM     51  O5  UCN d           4.851  10.259  19.614  0.00  0.00    -0.268 OA
ATOM     52  C3  UCN d           1.264   7.597  19.498  0.00  0.00    -0.082 A 
ATOM     53  H7  UCN d           2.855   9.010  19.688  0.00  0.00     0.084 H 
ATOM     54  C2  UCN d           0.835   6.315  18.999  0.00  0.00    -0.081 A 
ATOM     55  H6  UCN d           0.561   8.223  20.036  0.00  0.00     0.083 H 
ATOM     56  H5  UCN d          -0.185   5.987  19.163  0.00  0.00     0.083 H 
ATOM     57  H4  UCN d           1.421   4.523  17.924  0.00  0.00     0.087 H 
BRANCH  45  58
ATOM     58  O37 UCN d           8.460  10.153  17.014  0.00  0.00    -0.372 OA
ATOM     59  H1  UCN d           9.056   9.581  16.544  0.00  0.00     0.212 HD
ENDBRANCH  45  58
ENDBRANCH   3  24
BRANCH   1  60
ATOM     60  C26 UCN d           5.355   3.043  13.764  0.00  0.00    -0.028 C 
ATOM     61  H25 UCN d           6.414   3.314  13.643  0.00  0.00     0.034 H 
ATOM     62  H26 UCN d           4.878   2.980  12.774  0.00  0.00     0.034 H 
ATOM     63  H27 UCN d           5.281   2.068  14.269  0.00  0.00     0.034 H 
ENDBRANCH   1  60
TORSDOF 9
ENDMDL
MODEL 3
REMARK VINA RESULT:      -9.0      2.068      5.369
REMARK  9 active torsions:
REMARK  status: ('A' for Active; 'I' for Inactive)
REMARK    1  A    between atoms: C9_2  and  O37_1 
REMARK    2  A    between atoms: C7_6  and  C6_7 
REMARK    3  A    between atoms: N3_14  and  C25_28 
REMARK    4  A    between atoms: N2_17  and  C21_26 
REMARK    5  A    between atoms: C21_26  and  C26_36 
REMARK    6  A    between atoms: C23_30  and  N4_31 
REMARK    7  A    between atoms: N4_31  and  C28_32 
REMARK    8  A    between atoms: C22_33  and  O6_34 
REMARK    9  A    between atoms: O6_34  and  C27_35 
ROOT
ATOM      1  C21 UCN d           6.023   4.769  14.778  0.00  0.00     0.168 C 
ATOM      2  O4  UCN d           5.788   4.006  15.947  0.00  0.00    -0.333 OA
ATOM      3  C25 UCN d           4.650   3.181  16.223  0.00  0.00     0.115 C 
ATOM      4  C24 UCN d           4.291   2.334  14.938  0.00  0.00     0.005 C 
ATOM      5  C23 UCN d           5.255   2.614  13.749  0.00  0.00     0.134 C 
ATOM      6  C22 UCN d           5.361   4.158  13.455  0.00  0.00     0.113 C 
ATOM      7  H12 UCN d           4.873   2.511  17.066  0.00  0.00     0.118 H 
ATOM      8  H13 UCN d           3.266   2.583  14.627  0.00  0.00     0.042 H 
ATOM      9  H14 UCN d           4.347   1.266  15.194  0.00  0.00     0.042 H 
ATOM     10  H15 UCN d           6.261   2.247  14.002  0.00  0.00     0.088 H 
ATOM     11  H21 UCN d           5.966   4.375  12.563  0.00  0.00     0.094 H 
ENDROOT
BRANCH   5  12
ATOM     12  N4  UCN d           4.699   1.781  12.524  0.00  0.00    -0.072 N 
ATOM     13  H16 UCN d           5.260   0.952  12.407  0.00  0.00     0.277 HD
ATOM     14  H17 UCN d           4.754   2.344  11.690  0.00  0.00     0.277 HD
BRANCH  12  15
ATOM     15  C28 UCN d           3.271   1.381  12.754  0.00  0.00     0.065 C 
ATOM     16  H18 UCN d           3.221   0.299  12.949  0.00  0.00     0.067 H 
ATOM     17  H19 UCN d           2.675   1.621  11.862  0.00  0.00     0.067 H 
ATOM     18  H20 UCN d           2.872   1.928  13.620  0.00  0.00     0.067 H 
ENDBRANCH  12  15
ENDBRANCH   5  12
BRANCH   6  19
ATOM     19  O6  UCN d           3.999   4.640  13.297  0.00  0.00    -0.384 OA
BRANCH  19  20
ATOM     20  C27 UCN d           3.843   5.981  13.737  0.00  0.00     0.005 C 
ATOM     21  H22 UCN d           3.331   6.565  12.959  0.00  0.00     0.066 H 
ATOM     22  H23 UCN d           4.833   6.419  13.934  0.00  0.00     0.066 H 
ATOM     23  H24 UCN d           3.245   5.997  14.660  0.00  0.00     0.066 H 
ENDBRANCH  19  20
ENDBRANCH   6  19
BRANCH   3  24
ATOM     24  N3  UCN d           3.480   4.032  16.547  0.00  0.00    -0.316 N 
ATOM     25  C20 UCN d           2.186   3.598  16.475  0.00  0.00     0.048 A 
ATOM     26  C5  UCN d           1.336   4.561  17.148  0.00  0.00     0.004 A 
ATOM     27  C1  UCN d           1.655   2.407  15.865  0.00  0.00    -0.056 A 
ATOM     28  C6  UCN d           2.182   5.593  17.616  0.00  0.00     0.022 A 
ATOM     29  C4  UCN d          -0.049   4.290  17.188  0.00  0.00    -0.070 A 
ATOM     30  C19 UCN d           3.547   5.282  17.244  0.00  0.00     0.077 A 
ATOM     31  C18 UCN d           4.610   6.118  17.549  0.00  0.00     0.077 A 
ATOM     32  N2  UCN d           6.028   6.048  17.270  0.00  0.00    -0.308 N 
ATOM     33  C11 UCN d           4.414   7.372  18.282  0.00  0.00     0.017 A 
ATOM     34  C17 UCN d           6.699   7.190  17.809  0.00  0.00     0.049 A 
ATOM     35  C12 UCN d           5.678   8.009  18.439  0.00  0.00     0.004 A 
ATOM     36  C16 UCN d           8.031   7.624  17.824  0.00  0.00    -0.056 A 
ATOM     37  C13 UCN d           6.066   9.220  19.051  0.00  0.00    -0.070 A 
ATOM     38  C14 UCN d           7.398   9.655  19.074  0.00  0.00    -0.082 A 
ATOM     39  H8  UCN d           5.307   9.836  19.521  0.00  0.00     0.084 H 
ATOM     40  C15 UCN d           8.391   8.817  18.435  0.00  0.00    -0.081 A 
ATOM     41  H9  UCN d           7.676  10.587  19.553  0.00  0.00     0.083 H 
ATOM     42  H10 UCN d           9.430   9.126  18.434  0.00  0.00     0.083 H 
ATOM     43  H11 UCN d           8.794   7.016  17.351  0.00  0.00     0.087 H 
ATOM     44  C10 UCN d           3.054   7.681  18.662  0.00  0.00     0.020 A 
ATOM     45  C9  UCN d           2.570   8.922  19.423  0.00  0.00     0.131 A 
ATOM     46  C7  UCN d           2.025   6.889  18.365  0.00  0.00     0.057 A 
ATOM     47  N1  UCN d           1.155   8.628  19.450  0.00  0.00    -0.326 N 
ATOM     48  H2  UCN d           3.004   8.995  20.431  0.00  0.00     0.126 H 
ATOM     49  C8  UCN d           0.751   7.486  18.868  0.00  0.00     0.255 A 
ATOM     50  H3  UCN d           0.502   9.250  19.884  0.00  0.00     0.165 HD
ATOM     51  O5  UCN d          -0.387   7.052  18.772  0.00  0.00    -0.268 OA
ATOM     52  C3  UCN d          -0.578   3.149  16.606  0.00  0.00    -0.082 A 
ATOM     53  H7  UCN d          -0.713   4.989  17.684  0.00  0.00     0.084 H 
ATOM     54  C2  UCN d           0.270   2.196  15.937  0.00  0.00    -0.081 A 
ATOM     55  H6  UCN d          -1.646   2.971  16.655  0.00  0.00     0.083 H 
ATOM     56  H5  UCN d          -0.165   1.310  15.488  0.00  0.00     0.083 H 
ATOM     57  H4  UCN d           2.303   1.698  15.365  0.00  0.00     0.087 H 
BRANCH  45  58
ATOM     58  O37 UCN d           2.845  10.109  18.686  0.00  0.00    -0.372 OA
ATOM     59  H1  UCN d           2.150  10.256  18.054  0.00  0.00     0.212 HD
ENDBRANCH  45  58
ENDBRANCH   3  24
BRANCH   1  60
ATOM     60  C26 UCN d           7.539   4.737  14.616  0.00  0.00    -0.028 C 
ATOM     61  H25 UCN d           7.966   5.685  14.974  0.00  0.00     0.034 H 
ATOM     62  H26 UCN d           7.792   4.599  13.555  0.00  0.00     0.034 H 
ATOM     63  H27 UCN d           7.953   3.904  15.204  0.00  0.00     0.034 H 
ENDBRANCH   1  60
TORSDOF 9
ENDMDL
MODEL 4
REMARK VINA RESULT:      -8.2      2.010      3.957
REMARK  9 active torsions:
REMARK  status: ('A' for Active; 'I' for Inactive)
REMARK    1  A    between atoms: C9_2  and  O37_1 
REMARK    2  A    between atoms: C7_6  and  C6_7 
REMARK    3  A    between atoms: N3_14  and  C25_28 
REMARK    4  A    between atoms: N2_17  and  C21_26 
REMARK    5  A    between atoms: C21_26  and  C26_36 
REMARK    6  A    between atoms: C23_30  and  N4_31 
REMARK    7  A    between atoms: N4_31  and  C28_32 
REMARK    8  A    between atoms: C22_33  and  O6_34 
REMARK    9  A    between atoms: O6_34  and  C27_35 
ROOT
ATOM      1  C21 UCN d           8.062   5.630  15.184  0.00  0.00     0.168 C 
ATOM      2  O4  UCN d           7.615   4.722  16.174  0.00  0.00    -0.333 OA
ATOM      3  C25 UCN d           6.258   4.458  16.550  0.00  0.00     0.115 C 
ATOM      4  C24 UCN d           5.368   4.330  15.250  0.00  0.00     0.005 C 
ATOM      5  C23 UCN d           6.189   4.515  13.942  0.00  0.00     0.134 C 
ATOM      6  C22 UCN d           7.029   5.848  13.982  0.00  0.00     0.113 C 
ATOM      7  H12 UCN d           6.210   3.527  17.133  0.00  0.00     0.118 H 
ATOM      8  H13 UCN d           4.583   5.099  15.285  0.00  0.00     0.042 H 
ATOM      9  H14 UCN d           4.904   3.333  15.238  0.00  0.00     0.042 H 
ATOM     10  H15 UCN d           6.892   3.675  13.832  0.00  0.00     0.088 H 
ATOM     11  H21 UCN d           7.548   6.045  13.033  0.00  0.00     0.094 H 
ENDROOT
BRANCH   5  12
ATOM     12  N4  UCN d           5.146   4.468  12.755  0.00  0.00    -0.072 N 
ATOM     13  H16 UCN d           5.551   3.970  11.979  0.00  0.00     0.277 HD
ATOM     14  H17 UCN d           4.926   5.410  12.471  0.00  0.00     0.277 HD
BRANCH  12  15
ATOM     15  C28 UCN d           3.884   3.775  13.179  0.00  0.00     0.065 C 
ATOM     16  H18 UCN d           3.697   3.974  14.244  0.00  0.00     0.067 H 
ATOM     17  H19 UCN d           3.990   2.692  13.021  0.00  0.00     0.067 H 
ATOM     18  H20 UCN d           3.041   4.152  12.582  0.00  0.00     0.067 H 
ENDBRANCH  12  15
ENDBRANCH   5  12
BRANCH   6  19
ATOM     19  O6  UCN d           6.092   6.913  14.301  0.00  0.00    -0.384 OA
BRANCH  19  20
ATOM     20  C27 UCN d           5.405   7.391  13.155  0.00  0.00     0.005 C 
ATOM     21  H22 UCN d           4.498   7.929  13.469  0.00  0.00     0.066 H 
ATOM     22  H23 UCN d           5.124   6.542  12.514  0.00  0.00     0.066 H 
ATOM     23  H24 UCN d           6.059   8.074  12.593  0.00  0.00     0.066 H 
ENDBRANCH  19  20
ENDBRANCH   6  19
BRANCH   3  24
ATOM     24  N3  UCN d           5.731   5.587  17.352  0.00  0.00    -0.316 N 
ATOM     25  C20 UCN d           6.498   6.635  17.777  0.00  0.00     0.048 A 
ATOM     26  C5  UCN d           5.620   7.689  18.251  0.00  0.00     0.004 A 
ATOM     27  C1  UCN d           7.931   6.772  17.793  0.00  0.00    -0.056 A 
ATOM     28  C6  UCN d           4.297   7.217  18.095  0.00  0.00     0.022 A 
ATOM     29  C4  UCN d           6.224   8.871  18.733  0.00  0.00    -0.070 A 
ATOM     30  C19 UCN d           4.340   5.883  17.531  0.00  0.00     0.077 A 
ATOM     31  C18 UCN d           3.195   5.146  17.276  0.00  0.00     0.077 A 
ATOM     32  N2  UCN d           2.978   3.813  16.754  0.00  0.00    -0.308 N 
ATOM     33  C11 UCN d           1.860   5.681  17.557  0.00  0.00     0.017 A 
ATOM     34  C17 UCN d           1.579   3.523  16.695  0.00  0.00     0.049 A 
ATOM     35  C12 UCN d           0.892   4.698  17.199  0.00  0.00     0.004 A 
ATOM     36  C16 UCN d           0.829   2.411  16.289  0.00  0.00    -0.056 A 
ATOM     37  C13 UCN d          -0.518   4.682  17.261  0.00  0.00    -0.070 A 
ATOM     38  C14 UCN d          -1.273   3.575  16.852  0.00  0.00    -0.082 A 
ATOM     39  H8  UCN d          -1.036   5.557  17.639  0.00  0.00     0.084 H 
ATOM     40  C15 UCN d          -0.557   2.418  16.356  0.00  0.00    -0.081 A 
ATOM     41  H9  UCN d          -2.356   3.584  16.904  0.00  0.00     0.083 H 
ATOM     42  H10 UCN d          -1.112   1.544  16.033  0.00  0.00     0.083 H 
ATOM     43  H11 UCN d           1.340   1.531  15.917  0.00  0.00     0.087 H 
ATOM     44  C10 UCN d           1.812   7.014  18.113  0.00  0.00     0.020 A 
ATOM     45  C9  UCN d           0.557   7.804  18.505  0.00  0.00     0.131 A 
ATOM     46  C7  UCN d           2.908   7.726  18.370  0.00  0.00     0.057 A 
ATOM     47  N1  UCN d           1.195   9.005  18.998  0.00  0.00    -0.326 N 
ATOM     48  H2  UCN d          -0.103   8.001  17.647  0.00  0.00     0.126 H 
ATOM     49  C8  UCN d           2.537   9.049  18.960  0.00  0.00     0.255 A 
ATOM     50  H3  UCN d           0.658   9.771  19.352  0.00  0.00     0.165 HD
ATOM     51  O5  UCN d           3.270   9.954  19.328  0.00  0.00    -0.268 OA
ATOM     52  C3  UCN d           7.602   9.020  18.755  0.00  0.00    -0.082 A 
ATOM     53  H7  UCN d           5.598   9.678  19.093  0.00  0.00     0.084 H 
ATOM     54  C2  UCN d           8.469   7.970  18.286  0.00  0.00    -0.081 A 
ATOM     55  H6  UCN d           8.033   9.940  19.131  0.00  0.00     0.083 H 
ATOM     56  H5  UCN d           9.544   8.107  18.313  0.00  0.00     0.083 H 
ATOM     57  H4  UCN d           8.572   5.975  17.437  0.00  0.00     0.087 H 
BRANCH  45  58
ATOM     58  O37 UCN d          -0.164   7.134  19.533  0.00  0.00    -0.372 OA
ATOM     59  H1  UCN d           0.177   7.396  20.381  0.00  0.00     0.212 HD
ENDBRANCH  45  58
ENDBRANCH   3  24
BRANCH   1  60
ATOM     60  C26 UCN d           9.320   4.974  14.625  0.00  0.00    -0.028 C 
ATOM     61  H25 UCN d          10.190   5.276  15.226  0.00  0.00     0.034 H 
ATOM     62  H26 UCN d           9.467   5.293  13.582  0.00  0.00     0.034 H 
ATOM     63  H27 UCN d           9.211   3.880  14.662  0.00  0.00     0.034 H 
ENDBRANCH   1  60
TORSDOF 9
ENDMDL
