MODEL 1
REMARK VINA RESULT:      -5.9      0.000      0.000
REMARK  4 active torsions:
REMARK  status: ('A' for Active; 'I' for Inactive)
REMARK    1  A    between atoms: CA_3  and  N_2 
REMARK    2  A    between atoms: CA_3  and  C_4 
REMARK    3  A    between atoms: CB_10  and  CA_3 
REMARK    4  A    between atoms: CG_9  and  CB_10 
ROOT
ATOM      1  CB  R2P d         -31.833  -5.311  42.885  0.00  0.00     0.016 C 
ATOM      2  H6  R2P d         -32.819  -4.856  42.709  0.00  0.00     0.046 H 
ATOM      3  H7  R2P d         -31.742  -5.590  43.945  0.00  0.00     0.046 H 
ENDROOT
BRANCH   1   4
ATOM      4  CA  R2P d         -30.709  -4.262  42.528  0.00  0.00     0.187 C 
ATOM      5  H4  R2P d         -29.751  -4.801  42.575  0.00  0.00     0.101 H 
BRANCH   4   6
ATOM      6  N   R2P d         -30.759  -3.559  41.181  0.00  0.00    -0.065 N 
ATOM      7  H1  R2P d         -29.858  -3.625  40.734  0.00  0.00     0.275 HD
ATOM      8  H2  R2P d         -30.997  -2.589  41.316  0.00  0.00     0.275 HD
ATOM      9  H3  R2P d         -31.456  -3.997  40.599  0.00  0.00     0.275 HD
ENDBRANCH   4   6
BRANCH   4  10
ATOM     10  C   R2P d         -30.715  -3.147  43.593  0.00  0.00     0.204 C 
ATOM     11  O   R2P d         -30.258  -1.973  43.167  0.00  0.00    -0.646 OA
ATOM     12  O   R2P d         -31.103  -3.431  44.715  0.00  0.00    -0.646 OA
ENDBRANCH   4  10
ENDBRANCH   1   4
BRANCH   1  13
ATOM     13  CG  R2P d         -31.699  -6.563  42.025  0.00  0.00     0.101 A 
ATOM     14  N1  R2P d         -32.666  -7.425  41.739  0.00  0.00    -0.195 NA
ATOM     15  SE1 R2P d         -32.061  -8.659  40.747  0.00  0.00     0.093 SA
ATOM     16  N2  R2P d         -30.527  -8.074  40.686  0.00  0.00    -0.287 N 
ATOM     17  CD2 R2P d         -30.444  -6.946  41.409  0.00  0.00     0.211 A 
ATOM     18  H5  R2P d         -29.770  -8.495  40.186  0.00  0.00     0.178 HD
ATOM     19  O2  R2P d         -29.336  -6.227  41.559  0.00  0.00    -0.169 OA
ENDBRANCH   1  13
TORSDOF 4
ENDMDL
MODEL 2
REMARK VINA RESULT:      -5.9      1.787      2.202
REMARK  4 active torsions:
REMARK  status: ('A' for Active; 'I' for Inactive)
REMARK    1  A    between atoms: CA_3  and  N_2 
REMARK    2  A    between atoms: CA_3  and  C_4 
REMARK    3  A    between atoms: CB_10  and  CA_3 
REMARK    4  A    between atoms: CG_9  and  CB_10 
ROOT
ATOM      1  CB  R2P d         -30.834  -4.464  41.430  0.00  0.00     0.016 C 
ATOM      2  H6  R2P d         -29.850  -4.125  41.073  0.00  0.00     0.046 H 
ATOM      3  H7  R2P d         -31.618  -4.081  40.761  0.00  0.00     0.046 H 
ENDROOT
BRANCH   1   4
ATOM      4  CA  R2P d         -31.076  -3.903  42.886  0.00  0.00     0.187 C 
ATOM      5  H4  R2P d         -32.166  -3.861  43.028  0.00  0.00     0.101 H 
BRANCH   4   6
ATOM      6  N   R2P d         -30.500  -4.660  44.072  0.00  0.00    -0.065 N 
ATOM      7  H1  R2P d         -29.494  -4.649  44.021  0.00  0.00     0.275 HD
ATOM      8  H2  R2P d         -30.827  -5.613  44.054  0.00  0.00     0.275 HD
ATOM      9  H3  R2P d         -30.798  -4.219  44.928  0.00  0.00     0.275 HD
ENDBRANCH   4   6
BRANCH   4  10
ATOM     10  C   R2P d         -30.501  -2.475  42.968  0.00  0.00     0.204 C 
ATOM     11  O   R2P d         -30.808  -1.818  44.084  0.00  0.00    -0.646 OA
ATOM     12  O   R2P d         -29.852  -2.065  42.020  0.00  0.00    -0.646 OA
ENDBRANCH   4  10
ENDBRANCH   1   4
BRANCH   1  13
ATOM     13  CG  R2P d         -30.871  -5.988  41.424  0.00  0.00     0.101 A 
ATOM     14  N1  R2P d         -30.079  -6.789  40.722  0.00  0.00    -0.195 NA
ATOM     15  SE1 R2P d         -30.478  -8.407  41.032  0.00  0.00     0.093 SA
ATOM     16  N2  R2P d         -31.692  -8.071  42.087  0.00  0.00    -0.287 N 
ATOM     17  CD2 R2P d         -31.818  -6.741  42.223  0.00  0.00     0.211 A 
ATOM     18  H5  R2P d         -32.252  -8.753  42.558  0.00  0.00     0.178 HD
ATOM     19  O2  R2P d         -32.710  -6.145  43.008  0.00  0.00    -0.169 OA
ENDBRANCH   1  13
TORSDOF 4
ENDMDL
MODEL 3
REMARK VINA RESULT:      -5.4      3.005      4.731
REMARK  4 active torsions:
REMARK  status: ('A' for Active; 'I' for Inactive)
REMARK    1  A    between atoms: CA_3  and  N_2 
REMARK    2  A    between atoms: CA_3  and  C_4 
REMARK    3  A    between atoms: CB_10  and  CA_3 
REMARK    4  A    between atoms: CG_9  and  CB_10 
ROOT
ATOM      1  CB  R2P d         -32.173  -6.008  42.984  0.00  0.00     0.016 C 
ATOM      2  H6  R2P d         -32.077  -6.491  43.967  0.00  0.00     0.046 H 
ATOM      3  H7  R2P d         -33.237  -5.873  42.743  0.00  0.00     0.046 H 
ENDROOT
BRANCH   1   4
ATOM      4  CA  R2P d         -31.507  -6.928  41.888  0.00  0.00     0.187 C 
ATOM      5  H4  R2P d         -31.750  -6.481  40.913  0.00  0.00     0.101 H 
BRANCH   4   6
ATOM      6  N   R2P d         -30.001  -7.139  41.919  0.00  0.00    -0.065 N 
ATOM      7  H1  R2P d         -29.565  -6.544  41.232  0.00  0.00     0.275 HD
ATOM      8  H2  R2P d         -29.792  -8.102  41.710  0.00  0.00     0.275 HD
ATOM      9  H3  R2P d         -29.649  -6.909  42.835  0.00  0.00     0.275 HD
ENDBRANCH   4   6
BRANCH   4  10
ATOM     10  C   R2P d         -32.137  -8.333  41.972  0.00  0.00     0.204 C 
ATOM     11  O   R2P d         -32.045  -8.910  43.167  0.00  0.00    -0.646 OA
ATOM     12  O   R2P d         -32.631  -8.799  40.958  0.00  0.00    -0.646 OA
ENDBRANCH   4  10
ENDBRANCH   1   4
BRANCH   1  13
ATOM     13  CG  R2P d         -31.494  -4.643  43.030  0.00  0.00     0.101 A 
ATOM     14  N1  R2P d         -31.394  -3.852  44.090  0.00  0.00    -0.195 NA
ATOM     15  SE1 R2P d         -30.555  -2.439  43.676  0.00  0.00     0.093 SA
ATOM     16  N2  R2P d         -30.318  -2.851  42.104  0.00  0.00    -0.287 N 
ATOM     17  CD2 R2P d         -30.865  -4.054  41.864  0.00  0.00     0.211 A 
ATOM     18  H5  R2P d         -29.839  -2.291  41.427  0.00  0.00     0.178 HD
ATOM     19  O2  R2P d         -30.843  -4.670  40.686  0.00  0.00    -0.169 OA
ENDBRANCH   1  13
TORSDOF 4
ENDMDL
MODEL 4
REMARK VINA RESULT:      -5.0      3.047      4.788
REMARK  4 active torsions:
REMARK  status: ('A' for Active; 'I' for Inactive)
REMARK    1  A    between atoms: CA_3  and  N_2 
REMARK    2  A    between atoms: CA_3  and  C_4 
REMARK    3  A    between atoms: CB_10  and  CA_3 
REMARK    4  A    between atoms: CG_9  and  CB_10 
ROOT
ATOM      1  CB  R2P d         -31.095  -5.105  40.797  0.00  0.00     0.016 C 
ATOM      2  H6  R2P d         -32.137  -5.440  40.688  0.00  0.00     0.046 H 
ATOM      3  H7  R2P d         -30.802  -4.524  39.911  0.00  0.00     0.046 H 
ENDROOT
BRANCH   1   4
ATOM      4  CA  R2P d         -30.157  -6.369  40.921  0.00  0.00     0.187 C 
ATOM      5  H4  R2P d         -29.448  -6.317  40.082  0.00  0.00     0.101 H 
BRANCH   4   6
ATOM      6  N   R2P d         -29.335  -6.554  42.187  0.00  0.00    -0.065 N 
ATOM      7  H1  R2P d         -29.611  -7.409  42.644  0.00  0.00     0.275 HD
ATOM      8  H2  R2P d         -29.493  -5.776  42.808  0.00  0.00     0.275 HD
ATOM      9  H3  R2P d         -28.357  -6.601  41.949  0.00  0.00     0.275 HD
ENDBRANCH   4   6
BRANCH   4  10
ATOM     10  C   R2P d         -31.017  -7.641  40.779  0.00  0.00     0.204 C 
ATOM     11  O   R2P d         -30.325  -8.776  40.744  0.00  0.00    -0.646 OA
ATOM     12  O   R2P d         -32.226  -7.504  40.685  0.00  0.00    -0.646 OA
ENDBRANCH   4  10
ENDBRANCH   1   4
BRANCH   1  13
ATOM     13  CG  R2P d         -30.980  -4.222  42.035  0.00  0.00     0.101 A 
ATOM     14  N1  R2P d         -30.341  -3.062  42.114  0.00  0.00    -0.195 NA
ATOM     15  SE1 R2P d         -30.483  -2.434  43.682  0.00  0.00     0.093 SA
ATOM     16  N2  R2P d         -31.382  -3.677  44.269  0.00  0.00    -0.287 N 
ATOM     17  CD2 R2P d         -31.589  -4.583  43.300  0.00  0.00     0.211 A 
ATOM     18  H5  R2P d         -31.724  -3.748  45.207  0.00  0.00     0.178 HD
ATOM     19  O2  R2P d         -32.283  -5.707  43.455  0.00  0.00    -0.169 OA
ENDBRANCH   1  13
TORSDOF 4
ENDMDL
