REMARK  16 active torsions:
REMARK  status: ('A' for Active; 'I' for Inactive)
REMARK    1  A    between atoms: PA_1  and  O5_4 
REMARK    2  A    between atoms: O3A_8  and  PA_1 
REMARK    3  A    between atoms: O5_4  and  C5_23 
REMARK    4  A    between atoms: PB_5  and  O3A_8 
REMARK    5  A    between atoms: O3_38  and  PB_5 
REMARK    6  A    between atoms: O3_30  and  PG_9 
REMARK    7  A    between atoms: C1_26  and  N9A_13 
REMARK    8  A    between atoms: C5_23  and  C4_24 
REMARK    9  A    between atoms: C2_27  and  O2_28 
REMARK   10  A    between atoms: C3_29  and  O3_30 
REMARK   11  A    between atoms: C5_32  and  O5_31 
REMARK   12  A    between atoms: O5_31  and  PD_39 
REMARK   13  A    between atoms: C4_33  and  C5_32 
REMARK   14  A    between atoms: C1_35  and  N1T_43 
REMARK   15  A    between atoms: C3_37  and  O3_38 
REMARK   16  A    between atoms: C5T_50  and  CM5_51 
ROOT
ATOM      1  PA  PAX d         -30.221 -29.408  17.292  0.00  0.00     0.417 P 
ATOM      2  O1A PAX d         -31.389 -30.168  17.927  0.00  0.00    -0.624 OA
ATOM      3  O2A PAX d         -30.373 -29.044  15.811  0.00  0.00    -0.624 OA
ENDROOT
BRANCH   1   4
ATOM      4  O5  PAX d         -29.902 -28.070  18.098  0.00  0.00    -0.287 OA
BRANCH   4   5
ATOM      5  C5  PAX d         -30.827 -27.538  19.020  0.00  0.00     0.058 C 
ATOM      6  H5  PAX d         -30.312 -27.309  19.965  0.00  0.00     0.079 H 
ATOM      7  H6  PAX d         -31.624 -28.273  19.205  0.00  0.00     0.079 H 
BRANCH   5   8
ATOM      8  C4  PAX d         -31.424 -26.285  18.461  0.00  0.00     0.090 C 
ATOM      9  O4  PAX d         -30.369 -25.394  17.969  0.00  0.00    -0.353 OA
ATOM     10  C1  PAX d         -30.871 -24.699  16.849  0.00  0.00     0.140 C 
ATOM     11  C2  PAX d         -31.667 -25.798  16.118  0.00  0.00     0.106 C 
ATOM     12  H8  PAX d         -31.582 -23.927  17.178  0.00  0.00     0.122 H 
ATOM     13  C3  PAX d         -32.364 -26.525  17.278  0.00  0.00     0.107 C 
ATOM     14  H9  PAX d         -30.970 -26.489  15.622  0.00  0.00     0.093 H 
ATOM     15  H11 PAX d         -32.498 -27.595  17.060  0.00  0.00     0.092 H 
ATOM     16  H7  PAX d         -31.984 -25.785  19.265  0.00  0.00     0.090 H 
BRANCH  10  17
ATOM     17  N9A PAX d         -29.773 -23.982  16.130  0.00  0.00    -0.294 N 
ATOM     18  C4A PAX d         -28.858 -24.427  15.183  0.00  0.00     0.167 A 
ATOM     19  N3A PAX d         -28.737 -25.686  14.656  0.00  0.00    -0.222 NA
ATOM     20  C5A PAX d         -28.066 -23.302  14.862  0.00  0.00     0.149 A 
ATOM     21  C2A PAX d         -27.721 -25.764  13.741  0.00  0.00     0.091 A 
ATOM     22  N1A PAX d         -26.877 -24.763  13.335  0.00  0.00    -0.222 NA
ATOM     23  H1  PAX d         -27.566 -26.734  13.283  0.00  0.00     0.146 H 
ATOM     24  C6A PAX d         -27.026 -23.507  13.883  0.00  0.00     0.155 A 
ATOM     25  N6A PAX d         -26.202 -22.546  13.476  0.00  0.00    -0.382 N 
ATOM     26  H2  PAX d         -26.286 -21.596  13.865  0.00  0.00     0.157 HD
ATOM     27  H3  PAX d         -25.479 -22.751  12.771  0.00  0.00     0.157 HD
ATOM     28  N7A PAX d         -28.473 -22.193  15.588  0.00  0.00    -0.236 NA
ATOM     29  C8A PAX d         -29.476 -22.641  16.316  0.00  0.00     0.071 A 
ATOM     30  H4  PAX d         -30.028 -22.008  17.009  0.00  0.00     0.144 H 
ENDBRANCH  10  17
BRANCH  11  31
ATOM     31  O2  PAX d         -32.543 -25.297  15.117  0.00  0.00    -0.388 OA
ATOM     32  H10 PAX d         -33.173 -24.707  15.515  0.00  0.00     0.210 HD
ENDBRANCH  11  31
BRANCH  13  33
ATOM     33  O3  PAX d         -33.616 -25.915  17.604  0.00  0.00    -0.272 OA
BRANCH  33  34
ATOM     34  PG  PAX d         -34.893 -26.776  18.155  0.00  0.00     0.422 P 
ATOM     35  O1G PAX d         -34.702 -26.921  19.663  0.00  0.00    -0.617 OA
ATOM     36  O2G PAX d         -36.122 -25.962  17.774  0.00  0.00    -0.617 OA
ATOM     37  O3G PAX d         -34.895 -28.150  17.460  0.00  0.00    -0.617 OA
ENDBRANCH  33  34
ENDBRANCH  13  33
ENDBRANCH   5   8
ENDBRANCH   4   5
ENDBRANCH   1   4
BRANCH   1  38
ATOM     38  O3A PAX d         -28.871 -30.214  17.495  0.00  0.00    -0.180 OA
BRANCH  38  39
ATOM     39  PB  PAX d         -28.159 -30.856  18.749  0.00  0.00     0.418 P 
ATOM     40  O1B PAX d         -27.086 -29.951  19.203  0.00  0.00    -0.624 OA
ATOM     41  O2B PAX d         -29.210 -31.255  19.712  0.00  0.00    -0.624 OA
BRANCH  39  42
ATOM     42  O3  PAX d         -27.588 -32.261  18.160  0.00  0.00    -0.281 OA
BRANCH  42  43
ATOM     43  C3  PAX d         -26.747 -32.301  17.005  0.00  0.00     0.081 C 
ATOM     44  C4  PAX d         -26.814 -33.699  16.379  0.00  0.00     0.087 C 
ATOM     45  O4  PAX d         -25.554 -34.354  16.693  0.00  0.00    -0.356 OA
ATOM     46  H14 PAX d         -27.642 -34.255  16.842  0.00  0.00     0.090 H 
ATOM     47  C1  PAX d         -24.845 -33.581  17.640  0.00  0.00     0.116 C 
ATOM     48  C2  PAX d         -25.293 -32.142  17.418  0.00  0.00     0.003 C 
ATOM     49  H15 PAX d         -25.106 -33.897  18.661  0.00  0.00     0.118 H 
ATOM     50  H16 PAX d         -24.705 -31.663  16.621  0.00  0.00     0.043 H 
ATOM     51  H17 PAX d         -25.206 -31.553  18.343  0.00  0.00     0.043 H 
ATOM     52  H18 PAX d         -27.046 -31.523  16.287  0.00  0.00     0.088 H 
BRANCH  44  53
ATOM     53  C5  PAX d         -27.038 -33.682  14.875  0.00  0.00     0.059 C 
ATOM     54  H12 PAX d         -27.697 -34.519  14.599  0.00  0.00     0.079 H 
ATOM     55  H13 PAX d         -27.514 -32.732  14.592  0.00  0.00     0.079 H 
BRANCH  53  56
ATOM     56  O5  PAX d         -25.781 -33.813  14.166  0.00  0.00    -0.280 OA
BRANCH  56  57
ATOM     57  PD  PAX d         -25.421 -32.905  12.841  0.00  0.00     0.422 P 
ATOM     58  O1D PAX d         -24.325 -33.693  12.098  0.00  0.00    -0.617 OA
ATOM     59  O2D PAX d         -24.923 -31.540  13.368  0.00  0.00    -0.617 OA
ATOM     60  O3D PAX d         -26.724 -32.797  12.029  0.00  0.00    -0.617 OA
ENDBRANCH  56  57
ENDBRANCH  53  56
ENDBRANCH  44  53
BRANCH  47  61
ATOM     61  N1T PAX d         -23.368 -33.761  17.438  0.00  0.00    -0.282 N 
ATOM     62  C6T PAX d         -22.785 -33.780  16.145  0.00  0.00    -0.002 A 
ATOM     63  C5T PAX d         -21.457 -33.938  15.937  0.00  0.00     0.022 A 
ATOM     64  H19 PAX d         -23.436 -33.662  15.280  0.00  0.00     0.113 H 
ATOM     65  C4T PAX d         -20.570 -34.095  17.095  0.00  0.00     0.256 A 
ATOM     66  N3T PAX d         -21.208 -34.072  18.351  0.00  0.00    -0.275 N 
ATOM     67  O4T PAX d         -19.345 -34.232  17.058  0.00  0.00    -0.267 OA
ATOM     68  C2T PAX d         -22.570 -33.913  18.598  0.00  0.00     0.331 A 
ATOM     69  H20 PAX d         -20.619 -34.182  19.152  0.00  0.00     0.173 HD
ATOM     70  O2T PAX d         -23.022 -33.905  19.720  0.00  0.00    -0.246 OA
BRANCH  63  71
ATOM     71  CM5 PAX d         -20.914 -33.942  14.543  0.00  0.00    -0.045 C 
ATOM     72  H21 PAX d         -21.739 -33.812  13.828  0.00  0.00     0.033 H 
ATOM     73  H22 PAX d         -20.409 -34.900  14.349  0.00  0.00     0.033 H 
ATOM     74  H23 PAX d         -20.195 -33.118  14.427  0.00  0.00     0.033 H 
ENDBRANCH  63  71
ENDBRANCH  47  61
ENDBRANCH  42  43
ENDBRANCH  39  42
ENDBRANCH  38  39
ENDBRANCH   1  38
TORSDOF 16
