MODEL 1
REMARK VINA RESULT:      -7.0      0.000      0.000
REMARK  16 active torsions:
REMARK  status: ('A' for Active; 'I' for Inactive)
REMARK    1  A    between atoms: PA_1  and  O5_4 
REMARK    2  A    between atoms: O3A_8  and  PA_1 
REMARK    3  A    between atoms: O5_4  and  C5_23 
REMARK    4  A    between atoms: PB_5  and  O3A_8 
REMARK    5  A    between atoms: O3_38  and  PB_5 
REMARK    6  A    between atoms: O3_30  and  PG_9 
REMARK    7  A    between atoms: C1_26  and  N9A_13 
REMARK    8  A    between atoms: C5_23  and  C4_24 
REMARK    9  A    between atoms: C2_27  and  O2_28 
REMARK   10  A    between atoms: C3_29  and  O3_30 
REMARK   11  A    between atoms: C5_32  and  O5_31 
REMARK   12  A    between atoms: O5_31  and  PD_39 
REMARK   13  A    between atoms: C4_33  and  C5_32 
REMARK   14  A    between atoms: C1_35  and  N1T_43 
REMARK   15  A    between atoms: C3_37  and  O3_38 
REMARK   16  A    between atoms: C5T_50  and  CM5_51 
ROOT
ATOM      1  PA  PAX d         -29.390 -31.322  18.873  0.00  0.00     0.417 P 
ATOM      2  O1A PAX d         -28.862 -30.441  20.008  0.00  0.00    -0.624 OA
ATOM      3  O2A PAX d         -30.853 -31.767  18.984  0.00  0.00    -0.624 OA
ENDROOT
BRANCH   1   4
ATOM      4  O5  PAX d         -29.197 -30.612  17.459  0.00  0.00    -0.287 OA
BRANCH   4   5
ATOM      5  C5  PAX d         -30.291 -30.407  16.592  0.00  0.00     0.058 C 
ATOM      6  H5  PAX d         -30.999 -31.243  16.692  0.00  0.00     0.079 H 
ATOM      7  H6  PAX d         -29.931 -30.353  15.554  0.00  0.00     0.079 H 
BRANCH   5   8
ATOM      8  C4  PAX d         -30.977 -29.126  16.949  0.00  0.00     0.090 C 
ATOM      9  O4  PAX d         -30.062 -27.994  16.778  0.00  0.00    -0.353 OA
ATOM     10  C1  PAX d         -30.819 -26.880  16.359  0.00  0.00     0.140 C 
ATOM     11  C2  PAX d         -31.809 -27.518  15.365  0.00  0.00     0.106 C 
ATOM     12  H8  PAX d         -31.397 -26.482  17.206  0.00  0.00     0.122 H 
ATOM     13  C3  PAX d         -32.200 -28.820  16.082  0.00  0.00     0.107 C 
ATOM     14  H9  PAX d         -31.286 -27.761  14.429  0.00  0.00     0.093 H 
ATOM     15  H11 PAX d         -32.416 -29.625  15.365  0.00  0.00     0.092 H 
ATOM     16  H7  PAX d         -31.293 -29.189  18.001  0.00  0.00     0.090 H 
BRANCH  10  17
ATOM     17  N9A PAX d         -29.926 -25.770  15.900  0.00  0.00    -0.294 N 
ATOM     18  C4A PAX d         -29.010 -25.707  14.857  0.00  0.00     0.167 A 
ATOM     19  N3A PAX d         -28.690 -26.689  13.957  0.00  0.00    -0.222 NA
ATOM     20  C5A PAX d         -28.467 -24.404  14.907  0.00  0.00     0.149 A 
ATOM     21  C2A PAX d         -27.741 -26.275  13.061  0.00  0.00     0.091 A 
ATOM     22  N1A PAX d         -27.130 -25.049  12.990  0.00  0.00    -0.222 NA
ATOM     23  H1  PAX d         -27.437 -27.003  12.318  0.00  0.00     0.146 H 
ATOM     24  C6A PAX d         -27.476 -24.082  13.909  0.00  0.00     0.155 A 
ATOM     25  N6A PAX d         -26.877 -22.898  13.825  0.00  0.00    -0.382 N 
ATOM     26  H2  PAX d         -27.112 -22.153  14.496  0.00  0.00     0.157 HD
ATOM     27  H3  PAX d         -26.177 -22.725  13.088  0.00  0.00     0.157 HD
ATOM     28  N7A PAX d         -29.026 -23.680  15.949  0.00  0.00    -0.236 NA
ATOM     29  C8A PAX d         -29.875 -24.523  16.501  0.00  0.00     0.071 A 
ATOM     30  H4  PAX d         -30.489 -24.260  17.362  0.00  0.00     0.144 H 
ENDBRANCH  10  17
BRANCH  11  31
ATOM     31  O2  PAX d         -32.901 -26.674  15.027  0.00  0.00    -0.388 OA
ATOM     32  H10 PAX d         -33.362 -27.037  14.279  0.00  0.00     0.210 HD
ENDBRANCH  11  31
BRANCH  13  33
ATOM     33  O3  PAX d         -33.305 -28.621  16.968  0.00  0.00    -0.272 OA
BRANCH  33  34
ATOM     34  PG  PAX d         -34.547 -29.680  17.071  0.00  0.00     0.422 P 
ATOM     35  O1G PAX d         -34.724 -30.000  18.553  0.00  0.00    -0.617 OA
ATOM     36  O2G PAX d         -35.741 -28.962  16.458  0.00  0.00    -0.617 OA
ATOM     37  O3G PAX d         -34.182 -30.943  16.269  0.00  0.00    -0.617 OA
ENDBRANCH  33  34
ENDBRANCH  13  33
ENDBRANCH   5   8
ENDBRANCH   4   5
ENDBRANCH   1   4
BRANCH   1  38
ATOM     38  O3A PAX d         -28.468 -32.600  18.700  0.00  0.00    -0.180 OA
BRANCH  38  39
ATOM     39  PB  PAX d         -26.979 -32.817  18.225  0.00  0.00     0.418 P 
ATOM     40  O1B PAX d         -26.385 -31.505  17.903  0.00  0.00    -0.624 OA
ATOM     41  O2B PAX d         -26.306 -33.678  19.224  0.00  0.00    -0.624 OA
BRANCH  39  42
ATOM     42  O3  PAX d         -27.152 -33.767  16.915  0.00  0.00    -0.281 OA
BRANCH  42  43
ATOM     43  C3  PAX d         -26.556 -33.427  15.661  0.00  0.00     0.081 C 
ATOM     44  C4  PAX d         -26.334 -34.706  14.845  0.00  0.00     0.087 C 
ATOM     45  O4  PAX d         -24.905 -34.973  14.875  0.00  0.00    -0.356 OA
ATOM     46  H14 PAX d         -26.873 -35.533  15.329  0.00  0.00     0.090 H 
ATOM     47  C1  PAX d         -24.287 -34.124  15.820  0.00  0.00     0.116 C 
ATOM     48  C2  PAX d         -25.157 -32.876  15.886  0.00  0.00     0.003 C 
ATOM     49  H15 PAX d         -24.259 -34.609  16.807  0.00  0.00     0.118 H 
ATOM     50  H16 PAX d         -24.883 -32.160  15.097  0.00  0.00     0.043 H 
ATOM     51  H17 PAX d         -25.077 -32.388  16.869  0.00  0.00     0.043 H 
ATOM     52  H18 PAX d         -27.187 -32.707  15.120  0.00  0.00     0.088 H 
BRANCH  44  53
ATOM     53  C5  PAX d         -26.820 -34.601  13.407  0.00  0.00     0.059 C 
ATOM     54  H12 PAX d         -26.133 -33.954  12.841  0.00  0.00     0.079 H 
ATOM     55  H13 PAX d         -26.833 -35.605  12.958  0.00  0.00     0.079 H 
BRANCH  53  56
ATOM     56  O5  PAX d         -28.154 -34.039  13.355  0.00  0.00    -0.280 OA
BRANCH  56  57
ATOM     57  PD  PAX d         -29.503 -34.981  13.302  0.00  0.00     0.422 P 
ATOM     58  O1D PAX d         -29.683 -35.509  14.738  0.00  0.00    -0.617 OA
ATOM     59  O2D PAX d         -29.211 -36.107  12.284  0.00  0.00    -0.617 OA
ATOM     60  O3D PAX d         -30.654 -34.058  12.864  0.00  0.00    -0.617 OA
ENDBRANCH  56  57
ENDBRANCH  53  56
ENDBRANCH  44  53
BRANCH  47  61
ATOM     61  N1T PAX d         -22.881 -33.822  15.388  0.00  0.00    -0.282 N 
ATOM     62  C6T PAX d         -21.765 -34.097  16.219  0.00  0.00    -0.002 A 
ATOM     63  C5T PAX d         -20.489 -33.837  15.852  0.00  0.00     0.022 A 
ATOM     64  H19 PAX d         -21.944 -34.538  17.199  0.00  0.00     0.113 H 
ATOM     65  C4T PAX d         -20.236 -33.246  14.533  0.00  0.00     0.256 A 
ATOM     66  N3T PAX d         -21.383 -32.992  13.755  0.00  0.00    -0.275 N 
ATOM     67  O4T PAX d         -19.130 -32.970  14.061  0.00  0.00    -0.267 OA
ATOM     68  C2T PAX d         -22.708 -33.247  14.105  0.00  0.00     0.331 A 
ATOM     69  H20 PAX d         -21.230 -32.585  12.855  0.00  0.00     0.173 HD
ATOM     70  O2T PAX d         -23.628 -32.993  13.362  0.00  0.00    -0.246 OA
BRANCH  63  71
ATOM     71  CM5 PAX d         -19.362 -34.160  16.781  0.00  0.00    -0.045 C 
ATOM     72  H21 PAX d         -19.692 -34.015  17.820  0.00  0.00     0.033 H 
ATOM     73  H22 PAX d         -18.511 -33.495  16.571  0.00  0.00     0.033 H 
ATOM     74  H23 PAX d         -19.055 -35.206  16.636  0.00  0.00     0.033 H 
ENDBRANCH  63  71
ENDBRANCH  47  61
ENDBRANCH  42  43
ENDBRANCH  39  42
ENDBRANCH  38  39
ENDBRANCH   1  38
TORSDOF 16
ENDMDL
MODEL 2
REMARK VINA RESULT:      -6.7      3.936      6.706
REMARK  16 active torsions:
REMARK  status: ('A' for Active; 'I' for Inactive)
REMARK    1  A    between atoms: PA_1  and  O5_4 
REMARK    2  A    between atoms: O3A_8  and  PA_1 
REMARK    3  A    between atoms: O5_4  and  C5_23 
REMARK    4  A    between atoms: PB_5  and  O3A_8 
REMARK    5  A    between atoms: O3_38  and  PB_5 
REMARK    6  A    between atoms: O3_30  and  PG_9 
REMARK    7  A    between atoms: C1_26  and  N9A_13 
REMARK    8  A    between atoms: C5_23  and  C4_24 
REMARK    9  A    between atoms: C2_27  and  O2_28 
REMARK   10  A    between atoms: C3_29  and  O3_30 
REMARK   11  A    between atoms: C5_32  and  O5_31 
REMARK   12  A    between atoms: O5_31  and  PD_39 
REMARK   13  A    between atoms: C4_33  and  C5_32 
REMARK   14  A    between atoms: C1_35  and  N1T_43 
REMARK   15  A    between atoms: C3_37  and  O3_38 
REMARK   16  A    between atoms: C5T_50  and  CM5_51 
ROOT
ATOM      1  PA  PAX d         -32.314 -34.131  16.804  0.00  0.00     0.417 P 
ATOM      2  O1A PAX d         -30.861 -34.350  16.370  0.00  0.00    -0.624 OA
ATOM      3  O2A PAX d         -33.044 -35.353  17.372  0.00  0.00    -0.624 OA
ENDROOT
BRANCH   1   4
ATOM      4  O5  PAX d         -32.421 -32.953  17.872  0.00  0.00    -0.287 OA
BRANCH   4   5
ATOM      5  C5  PAX d         -31.286 -32.505  18.578  0.00  0.00     0.058 C 
ATOM      6  H5  PAX d         -30.547 -33.318  18.638  0.00  0.00     0.079 H 
ATOM      7  H6  PAX d         -31.582 -32.202  19.594  0.00  0.00     0.079 H 
BRANCH   5   8
ATOM      8  C4  PAX d         -30.684 -31.336  17.865  0.00  0.00     0.090 C 
ATOM      9  O4  PAX d         -31.698 -30.304  17.632  0.00  0.00    -0.353 OA
ATOM     10  C1  PAX d         -31.067 -29.045  17.710  0.00  0.00     0.140 C 
ATOM     11  C2  PAX d         -30.101 -29.241  18.895  0.00  0.00     0.106 C 
ATOM     12  H8  PAX d         -30.465 -28.874  16.806  0.00  0.00     0.122 H 
ATOM     13  C3  PAX d         -29.555 -30.655  18.642  0.00  0.00     0.107 C 
ATOM     14  H9  PAX d         -30.668 -29.234  19.837  0.00  0.00     0.093 H 
ATOM     15  H11 PAX d         -29.324 -31.172  19.585  0.00  0.00     0.092 H 
ATOM     16  H7  PAX d         -30.289 -31.689  16.901  0.00  0.00     0.090 H 
BRANCH  10  17
ATOM     17  N9A PAX d         -32.078 -27.943  17.758  0.00  0.00    -0.294 N 
ATOM     18  C4A PAX d         -31.925 -26.568  17.885  0.00  0.00     0.167 A 
ATOM     19  N3A PAX d         -30.759 -25.857  18.000  0.00  0.00    -0.222 NA
ATOM     20  C5A PAX d         -33.234 -26.036  17.865  0.00  0.00     0.149 A 
ATOM     21  C2A PAX d         -30.986 -24.511  18.105  0.00  0.00     0.091 A 
ATOM     22  N1A PAX d         -32.193 -23.860  18.102  0.00  0.00    -0.222 NA
ATOM     23  H1  PAX d         -30.106 -23.886  18.201  0.00  0.00     0.146 H 
ATOM     24  C6A PAX d         -33.347 -24.603  17.982  0.00  0.00     0.155 A 
ATOM     25  N6A PAX d         -34.509 -23.956  17.977  0.00  0.00    -0.382 N 
ATOM     26  H2  PAX d         -35.391 -24.481  17.889  0.00  0.00     0.157 HD
ATOM     27  H3  PAX d         -34.528 -22.929  18.061  0.00  0.00     0.157 HD
ATOM     28  N7A PAX d         -34.172 -27.049  17.734  0.00  0.00    -0.236 NA
ATOM     29  C8A PAX d         -33.446 -28.148  17.674  0.00  0.00     0.071 A 
ATOM     30  H4  PAX d         -33.887 -29.138  17.568  0.00  0.00     0.144 H 
ENDBRANCH  10  17
BRANCH  11  31
ATOM     31  O2  PAX d         -29.109 -28.229  18.995  0.00  0.00    -0.388 OA
ATOM     32  H10 PAX d         -28.655 -28.312  19.826  0.00  0.00     0.210 HD
ENDBRANCH  11  31
BRANCH  13  33
ATOM     33  O3  PAX d         -28.409 -30.630  17.786  0.00  0.00    -0.272 OA
BRANCH  33  34
ATOM     34  PG  PAX d         -27.066 -31.511  18.094  0.00  0.00     0.422 P 
ATOM     35  O1G PAX d         -26.065 -30.564  18.751  0.00  0.00    -0.617 OA
ATOM     36  O2G PAX d         -27.526 -32.639  19.008  0.00  0.00    -0.617 OA
ATOM     37  O3G PAX d         -26.522 -32.058  16.761  0.00  0.00    -0.617 OA
ENDBRANCH  33  34
ENDBRANCH  13  33
ENDBRANCH   5   8
ENDBRANCH   4   5
ENDBRANCH   1   4
BRANCH   1  38
ATOM     38  O3A PAX d         -33.157 -33.531  15.603  0.00  0.00    -0.180 OA
BRANCH  38  39
ATOM     39  PB  PAX d         -32.797 -33.069  14.138  0.00  0.00     0.418 P 
ATOM     40  O1B PAX d         -32.078 -34.162  13.456  0.00  0.00    -0.624 OA
ATOM     41  O2B PAX d         -34.028 -32.530  13.517  0.00  0.00    -0.624 OA
BRANCH  39  42
ATOM     42  O3  PAX d         -31.860 -31.763  14.391  0.00  0.00    -0.281 OA
BRANCH  42  43
ATOM     43  C3  PAX d         -30.710 -31.500  13.585  0.00  0.00     0.081 C 
ATOM     44  C4  PAX d         -29.444 -31.762  14.410  0.00  0.00     0.087 C 
ATOM     45  O4  PAX d         -28.885 -30.460  14.735  0.00  0.00    -0.356 OA
ATOM     46  H14 PAX d         -29.727 -32.282  15.337  0.00  0.00     0.090 H 
ATOM     47  C1  PAX d         -29.813 -29.451  14.394  0.00  0.00     0.116 C 
ATOM     48  C2  PAX d         -30.641 -30.020  13.248  0.00  0.00     0.003 C 
ATOM     49  H15 PAX d         -30.468 -29.231  15.250  0.00  0.00     0.118 H 
ATOM     50  H16 PAX d         -30.142 -29.857  12.281  0.00  0.00     0.043 H 
ATOM     51  H17 PAX d         -31.645 -29.572  13.224  0.00  0.00     0.043 H 
ATOM     52  H18 PAX d         -30.732 -32.117  12.674  0.00  0.00     0.088 H 
BRANCH  44  53
ATOM     53  C5  PAX d         -28.411 -32.613  13.687  0.00  0.00     0.059 C 
ATOM     54  H12 PAX d         -28.670 -32.662  12.618  0.00  0.00     0.079 H 
ATOM     55  H13 PAX d         -27.420 -32.152  13.803  0.00  0.00     0.079 H 
BRANCH  53  56
ATOM     56  O5  PAX d         -28.379 -33.956  14.231  0.00  0.00    -0.280 OA
BRANCH  56  57
ATOM     57  PD  PAX d         -26.994 -34.844  14.294  0.00  0.00     0.422 P 
ATOM     58  O1D PAX d         -27.138 -35.894  13.175  0.00  0.00    -0.617 OA
ATOM     59  O2D PAX d         -26.943 -35.476  15.704  0.00  0.00    -0.617 OA
ATOM     60  O3D PAX d         -25.841 -33.859  14.035  0.00  0.00    -0.617 OA
ENDBRANCH  56  57
ENDBRANCH  53  56
ENDBRANCH  44  53
BRANCH  47  61
ATOM     61  N1T PAX d         -29.082 -28.198  14.008  0.00  0.00    -0.282 N 
ATOM     62  C6T PAX d         -29.325 -26.958  14.653  0.00  0.00    -0.002 A 
ATOM     63  C5T PAX d         -28.677 -25.816  14.324  0.00  0.00     0.022 A 
ATOM     64  H19 PAX d         -30.068 -26.924  15.448  0.00  0.00     0.113 H 
ATOM     65  C4T PAX d         -27.672 -25.851  13.256  0.00  0.00     0.256 A 
ATOM     66  N3T PAX d         -27.478 -27.109  12.651  0.00  0.00    -0.275 N 
ATOM     67  O4T PAX d         -26.997 -24.897  12.863  0.00  0.00    -0.267 OA
ATOM     68  C2T PAX d         -28.129 -28.300  12.964  0.00  0.00     0.331 A 
ATOM     69  H20 PAX d         -26.800 -27.151  11.917  0.00  0.00     0.173 HD
ATOM     70  O2T PAX d         -27.889 -29.334  12.384  0.00  0.00    -0.246 OA
BRANCH  63  71
ATOM     71  CM5 PAX d         -28.983 -24.547  15.054  0.00  0.00    -0.045 C 
ATOM     72  H21 PAX d         -29.528 -24.779  15.981  0.00  0.00     0.033 H 
ATOM     73  H22 PAX d         -29.604 -23.899  14.417  0.00  0.00     0.033 H 
ATOM     74  H23 PAX d         -28.045 -24.029  15.300  0.00  0.00     0.033 H 
ENDBRANCH  63  71
ENDBRANCH  47  61
ENDBRANCH  42  43
ENDBRANCH  39  42
ENDBRANCH  38  39
ENDBRANCH   1  38
TORSDOF 16
ENDMDL
MODEL 3
REMARK VINA RESULT:      -6.6      2.853      8.226
REMARK  16 active torsions:
REMARK  status: ('A' for Active; 'I' for Inactive)
REMARK    1  A    between atoms: PA_1  and  O5_4 
REMARK    2  A    between atoms: O3A_8  and  PA_1 
REMARK    3  A    between atoms: O5_4  and  C5_23 
REMARK    4  A    between atoms: PB_5  and  O3A_8 
REMARK    5  A    between atoms: O3_38  and  PB_5 
REMARK    6  A    between atoms: O3_30  and  PG_9 
REMARK    7  A    between atoms: C1_26  and  N9A_13 
REMARK    8  A    between atoms: C5_23  and  C4_24 
REMARK    9  A    between atoms: C2_27  and  O2_28 
REMARK   10  A    between atoms: C3_29  and  O3_30 
REMARK   11  A    between atoms: C5_32  and  O5_31 
REMARK   12  A    between atoms: O5_31  and  PD_39 
REMARK   13  A    between atoms: C4_33  and  C5_32 
REMARK   14  A    between atoms: C1_35  and  N1T_43 
REMARK   15  A    between atoms: C3_37  and  O3_38 
REMARK   16  A    between atoms: C5T_50  and  CM5_51 
ROOT
ATOM      1  PA  PAX d         -33.675 -30.862  15.968  0.00  0.00     0.417 P 
ATOM      2  O1A PAX d         -34.638 -31.787  15.219  0.00  0.00    -0.624 OA
ATOM      3  O2A PAX d         -33.149 -31.374  17.313  0.00  0.00    -0.624 OA
ENDROOT
BRANCH   1   4
ATOM      4  O5  PAX d         -32.420 -30.484  15.060  0.00  0.00    -0.287 OA
BRANCH   4   5
ATOM      5  C5  PAX d         -32.326 -30.933  13.726  0.00  0.00     0.058 C 
ATOM      6  H5  PAX d         -32.035 -30.093  13.077  0.00  0.00     0.079 H 
ATOM      7  H6  PAX d         -33.300 -31.326  13.402  0.00  0.00     0.079 H 
BRANCH   5   8
ATOM      8  C4  PAX d         -31.296 -32.014  13.635  0.00  0.00     0.090 C 
ATOM      9  O4  PAX d         -30.052 -31.486  13.065  0.00  0.00    -0.353 OA
ATOM     10  C1  PAX d         -28.973 -32.169  13.662  0.00  0.00     0.140 C 
ATOM     11  C2  PAX d         -29.430 -32.273  15.131  0.00  0.00     0.106 C 
ATOM     12  H8  PAX d         -28.907 -33.189  13.255  0.00  0.00     0.122 H 
ATOM     13  C3  PAX d         -30.919 -32.622  14.987  0.00  0.00     0.107 C 
ATOM     14  H9  PAX d         -29.332 -31.291  15.617  0.00  0.00     0.093 H 
ATOM     15  H11 PAX d         -31.512 -32.203  15.814  0.00  0.00     0.092 H 
ATOM     16  H7  PAX d         -31.691 -32.809  12.985  0.00  0.00     0.090 H 
BRANCH  10  17
ATOM     17  N9A PAX d         -27.674 -31.501  13.339  0.00  0.00    -0.294 N 
ATOM     18  C4A PAX d         -26.388 -31.727  13.815  0.00  0.00     0.167 A 
ATOM     19  N3A PAX d         -25.981 -32.658  14.734  0.00  0.00    -0.222 NA
ATOM     20  C5A PAX d         -25.566 -30.792  13.146  0.00  0.00     0.149 A 
ATOM     21  C2A PAX d         -24.632 -32.598  14.963  0.00  0.00     0.091 A 
ATOM     22  N1A PAX d         -23.720 -31.749  14.393  0.00  0.00    -0.222 NA
ATOM     23  H1  PAX d         -24.240 -33.307  15.683  0.00  0.00     0.146 H 
ATOM     24  C6A PAX d         -24.161 -30.824  13.470  0.00  0.00     0.155 A 
ATOM     25  N6A PAX d         -23.263 -30.010  12.924  0.00  0.00    -0.382 N 
ATOM     26  H2  PAX d         -23.558 -29.308  12.231  0.00  0.00     0.157 HD
ATOM     27  H3  PAX d         -22.271 -30.082  13.192  0.00  0.00     0.157 HD
ATOM     28  N7A PAX d         -26.318 -30.007  12.285  0.00  0.00    -0.236 NA
ATOM     29  C8A PAX d         -27.546 -30.461  12.433  0.00  0.00     0.071 A 
ATOM     30  H4  PAX d         -28.394 -30.051  11.886  0.00  0.00     0.144 H 
ENDBRANCH  10  17
BRANCH  11  31
ATOM     31  O2  PAX d         -28.673 -33.198  15.899  0.00  0.00    -0.388 OA
ATOM     32  H10 PAX d         -27.971 -33.552  15.366  0.00  0.00     0.210 HD
ENDBRANCH  11  31
BRANCH  13  33
ATOM     33  O3  PAX d         -31.120 -34.034  14.885  0.00  0.00    -0.272 OA
BRANCH  33  34
ATOM     34  PG  PAX d         -31.229 -35.001  16.200  0.00  0.00     0.422 P 
ATOM     35  O1G PAX d         -31.283 -34.078  17.415  0.00  0.00    -0.617 OA
ATOM     36  O2G PAX d         -32.500 -35.814  15.998  0.00  0.00    -0.617 OA
ATOM     37  O3G PAX d         -29.986 -35.909  16.246  0.00  0.00    -0.617 OA
ENDBRANCH  33  34
ENDBRANCH  13  33
ENDBRANCH   5   8
ENDBRANCH   4   5
ENDBRANCH   1   4
BRANCH   1  38
ATOM     38  O3A PAX d         -34.338 -29.437  16.176  0.00  0.00    -0.180 OA
BRANCH  38  39
ATOM     39  PB  PAX d         -34.033 -27.995  15.609  0.00  0.00     0.418 P 
ATOM     40  O1B PAX d         -33.412 -28.128  14.277  0.00  0.00    -0.624 OA
ATOM     41  O2B PAX d         -35.265 -27.185  15.744  0.00  0.00    -0.624 OA
BRANCH  39  42
ATOM     42  O3  PAX d         -33.014 -27.380  16.718  0.00  0.00    -0.281 OA
BRANCH  42  43
ATOM     43  C3  PAX d         -31.618 -27.684  16.702  0.00  0.00     0.081 C 
ATOM     44  C4  PAX d         -30.926 -26.947  17.854  0.00  0.00     0.087 C 
ATOM     45  O4  PAX d         -30.177 -25.854  17.256  0.00  0.00    -0.356 OA
ATOM     46  H14 PAX d         -31.695 -26.540  18.527  0.00  0.00     0.090 H 
ATOM     47  C1  PAX d         -30.542 -25.721  15.897  0.00  0.00     0.116 C 
ATOM     48  C2  PAX d         -30.978 -27.110  15.448  0.00  0.00     0.003 C 
ATOM     49  H15 PAX d         -31.383 -25.018  15.796  0.00  0.00     0.118 H 
ATOM     50  H16 PAX d         -30.114 -27.713  15.133  0.00  0.00     0.043 H 
ATOM     51  H17 PAX d         -31.704 -27.050  14.624  0.00  0.00     0.043 H 
ATOM     52  H18 PAX d         -31.463 -28.772  16.767  0.00  0.00     0.088 H 
BRANCH  44  53
ATOM     53  C5  PAX d         -30.001 -27.833  18.674  0.00  0.00     0.059 C 
ATOM     54  H12 PAX d         -29.000 -27.830  18.217  0.00  0.00     0.079 H 
ATOM     55  H13 PAX d         -29.937 -27.437  19.698  0.00  0.00     0.079 H 
BRANCH  53  56
ATOM     56  O5  PAX d         -30.498 -29.193  18.721  0.00  0.00    -0.280 OA
BRANCH  56  57
ATOM     57  PD  PAX d         -29.511 -30.481  18.999  0.00  0.00     0.422 P 
ATOM     58  O1D PAX d         -30.457 -31.686  19.164  0.00  0.00    -0.617 OA
ATOM     59  O2D PAX d         -28.723 -30.158  20.288  0.00  0.00    -0.617 OA
ATOM     60  O3D PAX d         -28.609 -30.604  17.758  0.00  0.00    -0.617 OA
ENDBRANCH  56  57
ENDBRANCH  53  56
ENDBRANCH  44  53
BRANCH  47  61
ATOM     61  N1T PAX d         -29.376 -25.201  15.107  0.00  0.00    -0.282 N 
ATOM     62  C6T PAX d         -28.665 -26.020  14.192  0.00  0.00    -0.002 A 
ATOM     63  C5T PAX d         -27.614 -25.574  13.467  0.00  0.00     0.022 A 
ATOM     64  H19 PAX d         -28.981 -27.055  14.069  0.00  0.00     0.113 H 
ATOM     65  C4T PAX d         -27.182 -24.180  13.623  0.00  0.00     0.256 A 
ATOM     66  N3T PAX d         -27.924 -23.419  14.548  0.00  0.00    -0.275 N 
ATOM     67  O4T PAX d         -26.255 -23.636  13.020  0.00  0.00    -0.267 OA
ATOM     68  C2T PAX d         -29.008 -23.849  15.310  0.00  0.00     0.331 A 
ATOM     69  H20 PAX d         -27.641 -22.468  14.670  0.00  0.00     0.173 HD
ATOM     70  O2T PAX d         -29.583 -23.113  16.079  0.00  0.00    -0.246 OA
BRANCH  63  71
ATOM     71  CM5 PAX d         -26.916 -26.496  12.517  0.00  0.00    -0.045 C 
ATOM     72  H21 PAX d         -26.143 -25.939  11.967  0.00  0.00     0.033 H 
ATOM     73  H22 PAX d         -27.646 -26.909  11.805  0.00  0.00     0.033 H 
ATOM     74  H23 PAX d         -26.447 -27.316  13.080  0.00  0.00     0.033 H 
ENDBRANCH  63  71
ENDBRANCH  47  61
ENDBRANCH  42  43
ENDBRANCH  39  42
ENDBRANCH  38  39
ENDBRANCH   1  38
TORSDOF 16
ENDMDL
MODEL 4
REMARK VINA RESULT:      -5.9      1.127      1.579
REMARK  16 active torsions:
REMARK  status: ('A' for Active; 'I' for Inactive)
REMARK    1  A    between atoms: PA_1  and  O5_4 
REMARK    2  A    between atoms: O3A_8  and  PA_1 
REMARK    3  A    between atoms: O5_4  and  C5_23 
REMARK    4  A    between atoms: PB_5  and  O3A_8 
REMARK    5  A    between atoms: O3_38  and  PB_5 
REMARK    6  A    between atoms: O3_30  and  PG_9 
REMARK    7  A    between atoms: C1_26  and  N9A_13 
REMARK    8  A    between atoms: C5_23  and  C4_24 
REMARK    9  A    between atoms: C2_27  and  O2_28 
REMARK   10  A    between atoms: C3_29  and  O3_30 
REMARK   11  A    between atoms: C5_32  and  O5_31 
REMARK   12  A    between atoms: O5_31  and  PD_39 
REMARK   13  A    between atoms: C4_33  and  C5_32 
REMARK   14  A    between atoms: C1_35  and  N1T_43 
REMARK   15  A    between atoms: C3_37  and  O3_38 
REMARK   16  A    between atoms: C5T_50  and  CM5_51 
ROOT
ATOM      1  PA  PAX d         -29.377 -31.581  18.835  0.00  0.00     0.417 P 
ATOM      2  O1A PAX d         -28.847 -30.578  19.863  0.00  0.00    -0.624 OA
ATOM      3  O2A PAX d         -30.752 -32.191  19.128  0.00  0.00    -0.624 OA
ENDROOT
BRANCH   1   4
ATOM      4  O5  PAX d         -29.423 -30.938  17.377  0.00  0.00    -0.287 OA
BRANCH   4   5
ATOM      5  C5  PAX d         -30.506 -31.183  16.508  0.00  0.00     0.058 C 
ATOM      6  H5  PAX d         -30.858 -32.217  16.643  0.00  0.00     0.079 H 
ATOM      7  H6  PAX d         -30.180 -31.040  15.467  0.00  0.00     0.079 H 
BRANCH   5   8
ATOM      8  C4  PAX d         -31.619 -30.233  16.817  0.00  0.00     0.090 C 
ATOM      9  O4  PAX d         -31.083 -28.905  17.129  0.00  0.00    -0.353 OA
ATOM     10  C1  PAX d         -32.003 -27.942  16.665  0.00  0.00     0.140 C 
ATOM     11  C2  PAX d         -32.449 -28.544  15.319  0.00  0.00     0.106 C 
ATOM     12  H8  PAX d         -32.879 -27.913  17.331  0.00  0.00     0.122 H 
ATOM     13  C3  PAX d         -32.600 -30.034  15.660  0.00  0.00     0.107 C 
ATOM     14  H9  PAX d         -31.647 -28.420  14.576  0.00  0.00     0.093 H 
ATOM     15  H11 PAX d         -32.361 -30.672  14.795  0.00  0.00     0.092 H 
ATOM     16  H7  PAX d         -32.169 -30.622  17.687  0.00  0.00     0.090 H 
BRANCH  10  17
ATOM     17  N9A PAX d         -31.404 -26.572  16.698  0.00  0.00    -0.294 N 
ATOM     18  C4A PAX d         -30.354 -26.016  15.975  0.00  0.00     0.167 A 
ATOM     19  N3A PAX d         -29.583 -26.617  15.015  0.00  0.00    -0.222 NA
ATOM     20  C5A PAX d         -30.242 -24.684  16.431  0.00  0.00     0.149 A 
ATOM     21  C2A PAX d         -28.637 -25.765  14.510  0.00  0.00     0.091 A 
ATOM     22  N1A PAX d         -28.413 -24.457  14.856  0.00  0.00    -0.222 NA
ATOM     23  H1  PAX d         -27.987 -26.174  13.745  0.00  0.00     0.146 H 
ATOM     24  C6A PAX d         -29.208 -23.882  15.824  0.00  0.00     0.155 A 
ATOM     25  N6A PAX d         -28.981 -22.612  16.145  0.00  0.00    -0.382 N 
ATOM     26  H2  PAX d         -29.557 -22.151  16.864  0.00  0.00     0.157 HD
ATOM     27  H3  PAX d         -28.229 -22.088  15.674  0.00  0.00     0.157 HD
ATOM     28  N7A PAX d         -31.190 -24.419  17.408  0.00  0.00    -0.236 NA
ATOM     29  C8A PAX d         -31.847 -25.555  17.530  0.00  0.00     0.071 A 
ATOM     30  H4  PAX d         -32.672 -25.686  18.228  0.00  0.00     0.144 H 
ENDBRANCH  10  17
BRANCH  11  31
ATOM     31  O2  PAX d         -33.616 -27.936  14.780  0.00  0.00    -0.388 OA
ATOM     32  H10 PAX d         -33.365 -27.308  14.112  0.00  0.00     0.210 HD
ENDBRANCH  11  31
BRANCH  13  33
ATOM     33  O3  PAX d         -33.907 -30.330  16.160  0.00  0.00    -0.272 OA
BRANCH  33  34
ATOM     34  PG  PAX d         -34.732 -31.671  15.718  0.00  0.00     0.422 P 
ATOM     35  O1G PAX d         -36.002 -31.700  16.564  0.00  0.00    -0.617 OA
ATOM     36  O2G PAX d         -34.999 -31.507  14.228  0.00  0.00    -0.617 OA
ATOM     37  O3G PAX d         -33.851 -32.903  15.995  0.00  0.00    -0.617 OA
ENDBRANCH  33  34
ENDBRANCH  13  33
ENDBRANCH   5   8
ENDBRANCH   4   5
ENDBRANCH   1   4
BRANCH   1  38
ATOM     38  O3A PAX d         -28.325 -32.748  18.619  0.00  0.00    -0.180 OA
BRANCH  38  39
ATOM     39  PB  PAX d         -26.837 -32.795  18.096  0.00  0.00     0.418 P 
ATOM     40  O1B PAX d         -26.377 -31.417  17.841  0.00  0.00    -0.624 OA
ATOM     41  O2B PAX d         -26.057 -33.647  19.022  0.00  0.00    -0.624 OA
BRANCH  39  42
ATOM     42  O3  PAX d         -26.960 -33.677  16.734  0.00  0.00    -0.281 OA
BRANCH  42  43
ATOM     43  C3  PAX d         -26.441 -33.207  15.489  0.00  0.00     0.081 C 
ATOM     44  C4  PAX d         -26.360 -34.376  14.500  0.00  0.00     0.087 C 
ATOM     45  O4  PAX d         -24.952 -34.718  14.378  0.00  0.00    -0.356 OA
ATOM     46  H14 PAX d         -26.910 -35.232  14.919  0.00  0.00     0.090 H 
ATOM     47  C1  PAX d         -24.214 -34.032  15.368  0.00  0.00     0.116 C 
ATOM     48  C2  PAX d         -24.999 -32.761  15.664  0.00  0.00     0.003 C 
ATOM     49  H15 PAX d         -24.141 -34.644  16.280  0.00  0.00     0.118 H 
ATOM     50  H16 PAX d         -24.742 -31.962  14.953  0.00  0.00     0.043 H 
ATOM     51  H17 PAX d         -24.815 -32.411  16.691  0.00  0.00     0.043 H 
ATOM     52  H18 PAX d         -27.067 -32.391  15.097  0.00  0.00     0.088 H 
BRANCH  44  53
ATOM     53  C5  PAX d         -26.947 -34.059  13.133  0.00  0.00     0.059 C 
ATOM     54  H12 PAX d         -26.443 -33.172  12.722  0.00  0.00     0.079 H 
ATOM     55  H13 PAX d         -26.784 -34.916  12.464  0.00  0.00     0.079 H 
BRANCH  53  56
ATOM     56  O5  PAX d         -28.368 -33.797  13.231  0.00  0.00    -0.280 OA
BRANCH  56  57
ATOM     57  PD  PAX d         -29.489 -35.002  13.195  0.00  0.00     0.422 P 
ATOM     58  O1D PAX d         -30.752 -34.360  12.589  0.00  0.00    -0.617 OA
ATOM     59  O2D PAX d         -29.692 -35.455  14.659  0.00  0.00    -0.617 OA
ATOM     60  O3D PAX d         -28.900 -36.107  12.300  0.00  0.00    -0.617 OA
ENDBRANCH  56  57
ENDBRANCH  53  56
ENDBRANCH  44  53
BRANCH  47  61
ATOM     61  N1T PAX d         -22.829 -33.748  14.863  0.00  0.00    -0.282 N 
ATOM     62  C6T PAX d         -21.676 -34.281  15.494  0.00  0.00    -0.002 A 
ATOM     63  C5T PAX d         -20.418 -34.041  15.056  0.00  0.00     0.022 A 
ATOM     64  H19 PAX d         -21.809 -34.912  16.371  0.00  0.00     0.113 H 
ATOM     65  C4T PAX d         -20.226 -33.195  13.873  0.00  0.00     0.256 A 
ATOM     66  N3T PAX d         -21.408 -32.692  13.293  0.00  0.00    -0.275 N 
ATOM     67  O4T PAX d         -19.145 -32.905  13.355  0.00  0.00    -0.267 OA
ATOM     68  C2T PAX d         -22.715 -32.918  13.720  0.00  0.00     0.331 A 
ATOM     69  H20 PAX d         -21.296 -32.109  12.488  0.00  0.00     0.173 HD
ATOM     70  O2T PAX d         -23.668 -32.440  13.150  0.00  0.00    -0.246 OA
BRANCH  63  71
ATOM     71  CM5 PAX d         -19.250 -34.643  15.771  0.00  0.00    -0.045 C 
ATOM     72  H21 PAX d         -18.653 -35.236  15.064  0.00  0.00     0.033 H 
ATOM     73  H22 PAX d         -19.612 -35.295  16.580  0.00  0.00     0.033 H 
ATOM     74  H23 PAX d         -18.627 -33.843  16.196  0.00  0.00     0.033 H 
ENDBRANCH  63  71
ENDBRANCH  47  61
ENDBRANCH  42  43
ENDBRANCH  39  42
ENDBRANCH  38  39
ENDBRANCH   1  38
TORSDOF 16
ENDMDL
MODEL 5
REMARK VINA RESULT:      -5.5      3.877     10.347
REMARK  16 active torsions:
REMARK  status: ('A' for Active; 'I' for Inactive)
REMARK    1  A    between atoms: PA_1  and  O5_4 
REMARK    2  A    between atoms: O3A_8  and  PA_1 
REMARK    3  A    between atoms: O5_4  and  C5_23 
REMARK    4  A    between atoms: PB_5  and  O3A_8 
REMARK    5  A    between atoms: O3_38  and  PB_5 
REMARK    6  A    between atoms: O3_30  and  PG_9 
REMARK    7  A    between atoms: C1_26  and  N9A_13 
REMARK    8  A    between atoms: C5_23  and  C4_24 
REMARK    9  A    between atoms: C2_27  and  O2_28 
REMARK   10  A    between atoms: C3_29  and  O3_30 
REMARK   11  A    between atoms: C5_32  and  O5_31 
REMARK   12  A    between atoms: O5_31  and  PD_39 
REMARK   13  A    between atoms: C4_33  and  C5_32 
REMARK   14  A    between atoms: C1_35  and  N1T_43 
REMARK   15  A    between atoms: C3_37  and  O3_38 
REMARK   16  A    between atoms: C5T_50  and  CM5_51 
ROOT
ATOM      1  PA  PAX d         -29.643 -30.414  13.936  0.00  0.00     0.417 P 
ATOM      2  O1A PAX d         -30.826 -31.379  13.812  0.00  0.00    -0.624 OA
ATOM      3  O2A PAX d         -29.070 -30.219  15.344  0.00  0.00    -0.624 OA
ENDROOT
BRANCH   1   4
ATOM      4  O5  PAX d         -28.448 -30.845  12.973  0.00  0.00    -0.287 OA
BRANCH   4   5
ATOM      5  C5  PAX d         -27.145 -31.042  13.475  0.00  0.00     0.058 C 
ATOM      6  H5  PAX d         -27.037 -30.514  14.434  0.00  0.00     0.079 H 
ATOM      7  H6  PAX d         -26.412 -30.649  12.755  0.00  0.00     0.079 H 
BRANCH   5   8
ATOM      8  C4  PAX d         -26.906 -32.505  13.681  0.00  0.00     0.090 C 
ATOM      9  O4  PAX d         -25.475 -32.766  13.867  0.00  0.00    -0.353 OA
ATOM     10  C1  PAX d         -25.341 -33.845  14.764  0.00  0.00     0.140 C 
ATOM     11  C2  PAX d         -26.439 -33.541  15.801  0.00  0.00     0.106 C 
ATOM     12  H8  PAX d         -25.603 -34.786  14.258  0.00  0.00     0.122 H 
ATOM     13  C3  PAX d         -27.606 -33.075  14.917  0.00  0.00     0.107 C 
ATOM     14  H9  PAX d         -26.117 -32.711  16.446  0.00  0.00     0.093 H 
ATOM     15  H11 PAX d         -28.226 -32.325  15.430  0.00  0.00     0.092 H 
ATOM     16  H7  PAX d         -27.266 -33.040  12.790  0.00  0.00     0.090 H 
BRANCH  10  17
ATOM     17  N9A PAX d         -23.922 -33.991  15.215  0.00  0.00    -0.294 N 
ATOM     18  C4A PAX d         -23.367 -34.032  16.488  0.00  0.00     0.167 A 
ATOM     19  N3A PAX d         -24.016 -33.946  17.692  0.00  0.00    -0.222 NA
ATOM     20  C5A PAX d         -21.977 -34.188  16.292  0.00  0.00     0.149 A 
ATOM     21  C2A PAX d         -23.149 -34.025  18.749  0.00  0.00     0.091 A 
ATOM     22  N1A PAX d         -21.787 -34.174  18.710  0.00  0.00    -0.222 NA
ATOM     23  H1  PAX d         -23.594 -33.963  19.736  0.00  0.00     0.146 H 
ATOM     24  C6A PAX d         -21.164 -34.260  17.483  0.00  0.00     0.155 A 
ATOM     25  N6A PAX d         -19.843 -34.408  17.461  0.00  0.00    -0.382 N 
ATOM     26  H2  PAX d         -19.346 -34.475  16.562  0.00  0.00     0.157 HD
ATOM     27  H3  PAX d         -19.315 -34.456  18.345  0.00  0.00     0.157 HD
ATOM     28  N7A PAX d         -21.675 -34.239  14.940  0.00  0.00    -0.236 NA
ATOM     29  C8A PAX d         -22.847 -34.120  14.349  0.00  0.00     0.071 A 
ATOM     30  H4  PAX d         -22.962 -34.124  13.266  0.00  0.00     0.144 H 
ENDBRANCH  10  17
BRANCH  11  31
ATOM     31  O2  PAX d         -26.740 -34.639  16.652  0.00  0.00    -0.388 OA
ATOM     32  H10 PAX d         -27.476 -34.415  17.210  0.00  0.00     0.210 HD
ENDBRANCH  11  31
BRANCH  13  33
ATOM     33  O3  PAX d         -28.405 -34.177  14.477  0.00  0.00    -0.272 OA
BRANCH  33  34
ATOM     34  PG  PAX d         -29.700 -34.711  15.322  0.00  0.00     0.422 P 
ATOM     35  O1G PAX d         -29.341 -36.104  15.834  0.00  0.00    -0.617 OA
ATOM     36  O2G PAX d         -29.906 -33.690  16.432  0.00  0.00    -0.617 OA
ATOM     37  O3G PAX d         -30.915 -34.762  14.377  0.00  0.00    -0.617 OA
ENDBRANCH  33  34
ENDBRANCH  13  33
ENDBRANCH   5   8
ENDBRANCH   4   5
ENDBRANCH   1   4
BRANCH   1  38
ATOM     38  O3A PAX d         -30.026 -29.000  13.330  0.00  0.00    -0.180 OA
BRANCH  38  39
ATOM     39  PB  PAX d         -30.234 -27.564  13.951  0.00  0.00     0.418 P 
ATOM     40  O1B PAX d         -28.964 -26.819  13.865  0.00  0.00    -0.624 OA
ATOM     41  O2B PAX d         -31.447 -26.977  13.339  0.00  0.00    -0.624 OA
BRANCH  39  42
ATOM     42  O3  PAX d         -30.667 -27.893  15.484  0.00  0.00    -0.281 OA
BRANCH  42  43
ATOM     43  C3  PAX d         -32.038 -27.910  15.887  0.00  0.00     0.081 C 
ATOM     44  C4  PAX d         -32.129 -27.597  17.385  0.00  0.00     0.087 C 
ATOM     45  O4  PAX d         -32.445 -28.851  18.052  0.00  0.00    -0.356 OA
ATOM     46  H14 PAX d         -31.150 -27.234  17.731  0.00  0.00     0.090 H 
ATOM     47  C1  PAX d         -32.316 -29.917  17.133  0.00  0.00     0.116 C 
ATOM     48  C2  PAX d         -32.597 -29.318  15.761  0.00  0.00     0.003 C 
ATOM     49  H15 PAX d         -31.292 -30.320  17.159  0.00  0.00     0.118 H 
ATOM     50  H16 PAX d         -33.676 -29.298  15.552  0.00  0.00     0.043 H 
ATOM     51  H17 PAX d         -32.079 -29.880  14.970  0.00  0.00     0.043 H 
ATOM     52  H18 PAX d         -32.621 -27.194  15.290  0.00  0.00     0.088 H 
BRANCH  44  53
ATOM     53  C5  PAX d         -33.171 -26.543  17.725  0.00  0.00     0.059 C 
ATOM     54  H12 PAX d         -34.087 -26.744  17.149  0.00  0.00     0.079 H 
ATOM     55  H13 PAX d         -33.396 -26.591  18.800  0.00  0.00     0.079 H 
BRANCH  53  56
ATOM     56  O5  PAX d         -32.686 -25.217  17.400  0.00  0.00    -0.280 OA
BRANCH  56  57
ATOM     57  PD  PAX d         -32.405 -24.077  18.554  0.00  0.00     0.422 P 
ATOM     58  O1D PAX d         -31.726 -24.835  19.712  0.00  0.00    -0.617 OA
ATOM     59  O2D PAX d         -33.784 -23.500  18.945  0.00  0.00    -0.617 OA
ATOM     60  O3D PAX d         -31.477 -23.033  17.908  0.00  0.00    -0.617 OA
ENDBRANCH  56  57
ENDBRANCH  53  56
ENDBRANCH  44  53
BRANCH  47  61
ATOM     61  N1T PAX d         -33.278 -31.013  17.490  0.00  0.00    -0.282 N 
ATOM     62  C6T PAX d         -32.879 -32.373  17.545  0.00  0.00    -0.002 A 
ATOM     63  C5T PAX d         -33.727 -33.378  17.867  0.00  0.00     0.022 A 
ATOM     64  H19 PAX d         -31.843 -32.620  17.319  0.00  0.00     0.113 H 
ATOM     65  C4T PAX d         -35.124 -33.057  18.177  0.00  0.00     0.256 A 
ATOM     66  N3T PAX d         -35.461 -31.691  18.101  0.00  0.00    -0.275 N 
ATOM     67  O4T PAX d         -36.000 -33.863  18.499  0.00  0.00    -0.267 OA
ATOM     68  C2T PAX d         -34.614 -30.635  17.772  0.00  0.00     0.331 A 
ATOM     69  H20 PAX d         -36.411 -31.454  18.305  0.00  0.00     0.173 HD
ATOM     70  O2T PAX d         -35.000 -29.489  17.737  0.00  0.00    -0.246 OA
BRANCH  63  71
ATOM     71  CM5 PAX d         -33.231 -34.789  17.910  0.00  0.00    -0.045 C 
ATOM     72  H21 PAX d         -32.495 -34.894  18.719  0.00  0.00     0.033 H 
ATOM     73  H22 PAX d         -32.758 -35.041  16.949  0.00  0.00     0.033 H 
ATOM     74  H23 PAX d         -34.076 -35.469  18.092  0.00  0.00     0.033 H 
ENDBRANCH  63  71
ENDBRANCH  47  61
ENDBRANCH  42  43
ENDBRANCH  39  42
ENDBRANCH  38  39
ENDBRANCH   1  38
TORSDOF 16
ENDMDL
MODEL 6
REMARK VINA RESULT:      -5.1      2.934      4.196
REMARK  16 active torsions:
REMARK  status: ('A' for Active; 'I' for Inactive)
REMARK    1  A    between atoms: PA_1  and  O5_4 
REMARK    2  A    between atoms: O3A_8  and  PA_1 
REMARK    3  A    between atoms: O5_4  and  C5_23 
REMARK    4  A    between atoms: PB_5  and  O3A_8 
REMARK    5  A    between atoms: O3_38  and  PB_5 
REMARK    6  A    between atoms: O3_30  and  PG_9 
REMARK    7  A    between atoms: C1_26  and  N9A_13 
REMARK    8  A    between atoms: C5_23  and  C4_24 
REMARK    9  A    between atoms: C2_27  and  O2_28 
REMARK   10  A    between atoms: C3_29  and  O3_30 
REMARK   11  A    between atoms: C5_32  and  O5_31 
REMARK   12  A    between atoms: O5_31  and  PD_39 
REMARK   13  A    between atoms: C4_33  and  C5_32 
REMARK   14  A    between atoms: C1_35  and  N1T_43 
REMARK   15  A    between atoms: C3_37  and  O3_38 
REMARK   16  A    between atoms: C5T_50  and  CM5_51 
ROOT
ATOM      1  PA  PAX d         -29.404 -31.282  18.747  0.00  0.00     0.417 P 
ATOM      2  O1A PAX d         -28.487 -31.027  19.947  0.00  0.00    -0.624 OA
ATOM      3  O2A PAX d         -30.908 -31.316  19.038  0.00  0.00    -0.624 OA
ENDROOT
BRANCH   1   4
ATOM      4  O5  PAX d         -29.149 -30.212  17.593  0.00  0.00    -0.287 OA
BRANCH   4   5
ATOM      5  C5  PAX d         -29.655 -30.411  16.292  0.00  0.00     0.058 C 
ATOM      6  H5  PAX d         -29.423 -31.435  15.962  0.00  0.00     0.079 H 
ATOM      7  H6  PAX d         -29.190 -29.690  15.604  0.00  0.00     0.079 H 
BRANCH   5   8
ATOM      8  C4  PAX d         -31.137 -30.212  16.296  0.00  0.00     0.090 C 
ATOM      9  O4  PAX d         -31.468 -28.861  16.761  0.00  0.00    -0.353 OA
ATOM     10  C1  PAX d         -32.624 -28.433  16.076  0.00  0.00     0.140 C 
ATOM     11  C2  PAX d         -32.367 -28.961  14.650  0.00  0.00     0.106 C 
ATOM     12  H8  PAX d         -33.507 -28.953  16.475  0.00  0.00     0.122 H 
ATOM     13  C3  PAX d         -31.783 -30.356  14.917  0.00  0.00     0.107 C 
ATOM     14  H9  PAX d         -31.607 -28.336  14.158  0.00  0.00     0.093 H 
ATOM     15  H11 PAX d         -31.056 -30.643  14.142  0.00  0.00     0.092 H 
ATOM     16  H7  PAX d         -31.580 -30.954  16.976  0.00  0.00     0.090 H 
BRANCH  10  17
ATOM     17  N9A PAX d         -32.861 -26.973  16.290  0.00  0.00    -0.294 N 
ATOM     18  C4A PAX d         -32.903 -26.215  17.454  0.00  0.00     0.167 A 
ATOM     19  N3A PAX d         -32.729 -26.643  18.744  0.00  0.00    -0.222 NA
ATOM     20  C5A PAX d         -33.162 -24.890  17.036  0.00  0.00     0.149 A 
ATOM     21  C2A PAX d         -32.836 -25.617  19.644  0.00  0.00     0.091 A 
ATOM     22  N1A PAX d         -33.083 -24.293  19.385  0.00  0.00    -0.222 NA
ATOM     23  H1  PAX d         -32.710 -25.883  20.687  0.00  0.00     0.146 H 
ATOM     24  C6A PAX d         -33.253 -23.894  18.076  0.00  0.00     0.155 A 
ATOM     25  N6A PAX d         -33.488 -22.607  17.841  0.00  0.00    -0.382 N 
ATOM     26  H2  PAX d         -33.619 -22.275  16.875  0.00  0.00     0.157 HD
ATOM     27  H3  PAX d         -33.539 -21.941  18.625  0.00  0.00     0.157 HD
ATOM     28  N7A PAX d         -33.280 -24.826  15.656  0.00  0.00    -0.236 NA
ATOM     29  C8A PAX d         -33.095 -26.070  15.264  0.00  0.00     0.071 A 
ATOM     30  H4  PAX d         -33.125 -26.367  14.216  0.00  0.00     0.144 H 
ENDBRANCH  10  17
BRANCH  11  31
ATOM     31  O2  PAX d         -33.521 -28.947  13.821  0.00  0.00    -0.388 OA
ATOM     32  H10 PAX d         -33.704 -29.829  13.519  0.00  0.00     0.210 HD
ENDBRANCH  11  31
BRANCH  13  33
ATOM     33  O3  PAX d         -32.812 -31.343  15.035  0.00  0.00    -0.272 OA
BRANCH  33  34
ATOM     34  PG  PAX d         -32.537 -32.932  14.763  0.00  0.00     0.422 P 
ATOM     35  O1G PAX d         -33.905 -33.584  14.573  0.00  0.00    -0.617 OA
ATOM     36  O2G PAX d         -31.662 -32.983  13.518  0.00  0.00    -0.617 OA
ATOM     37  O3G PAX d         -31.806 -33.519  15.985  0.00  0.00    -0.617 OA
ENDBRANCH  33  34
ENDBRANCH  13  33
ENDBRANCH   5   8
ENDBRANCH   4   5
ENDBRANCH   1   4
BRANCH   1  38
ATOM     38  O3A PAX d         -28.984 -32.624  18.015  0.00  0.00    -0.180 OA
BRANCH  38  39
ATOM     39  PB  PAX d         -27.598 -33.317  17.713  0.00  0.00     0.418 P 
ATOM     40  O1B PAX d         -26.527 -32.552  18.380  0.00  0.00    -0.624 OA
ATOM     41  O2B PAX d         -27.737 -34.759  18.015  0.00  0.00    -0.624 OA
BRANCH  39  42
ATOM     42  O3  PAX d         -27.504 -33.245  16.090  0.00  0.00    -0.281 OA
BRANCH  42  43
ATOM     43  C3  PAX d         -26.343 -32.736  15.430  0.00  0.00     0.081 C 
ATOM     44  C4  PAX d         -25.941 -33.695  14.304  0.00  0.00     0.087 C 
ATOM     45  O4  PAX d         -24.751 -34.394  14.761  0.00  0.00    -0.356 OA
ATOM     46  H14 PAX d         -26.754 -34.418  14.147  0.00  0.00     0.090 H 
ATOM     47  C1  PAX d         -24.544 -34.124  16.133  0.00  0.00     0.116 C 
ATOM     48  C2  PAX d         -25.158 -32.753  16.381  0.00  0.00     0.003 C 
ATOM     49  H15 PAX d         -25.057 -34.877  16.750  0.00  0.00     0.118 H 
ATOM     50  H16 PAX d         -24.445 -31.950  16.140  0.00  0.00     0.043 H 
ATOM     51  H17 PAX d         -25.487 -32.649  17.426  0.00  0.00     0.043 H 
ATOM     52  H18 PAX d         -26.535 -31.722  15.048  0.00  0.00     0.088 H 
BRANCH  44  53
ATOM     53  C5  PAX d         -25.666 -32.997  12.980  0.00  0.00     0.059 C 
ATOM     54  H12 PAX d         -25.972 -33.657  12.155  0.00  0.00     0.079 H 
ATOM     55  H13 PAX d         -26.245 -32.063  12.938  0.00  0.00     0.079 H 
BRANCH  53  56
ATOM     56  O5  PAX d         -24.256 -32.689  12.844  0.00  0.00    -0.280 OA
BRANCH  56  57
ATOM     57  PD  PAX d         -23.674 -31.157  12.992  0.00  0.00     0.422 P 
ATOM     58  O1D PAX d         -22.306 -31.175  12.284  0.00  0.00    -0.617 OA
ATOM     59  O2D PAX d         -23.559 -30.876  14.508  0.00  0.00    -0.617 OA
ATOM     60  O3D PAX d         -24.692 -30.242  12.287  0.00  0.00    -0.617 OA
ENDBRANCH  56  57
ENDBRANCH  53  56
ENDBRANCH  44  53
BRANCH  47  61
ATOM     61  N1T PAX d         -23.075 -34.162  16.441  0.00  0.00    -0.282 N 
ATOM     62  C6T PAX d         -22.093 -34.105  15.419  0.00  0.00    -0.002 A 
ATOM     63  C5T PAX d         -20.763 -34.134  15.672  0.00  0.00     0.022 A 
ATOM     64  H19 PAX d         -22.424 -34.035  14.384  0.00  0.00     0.113 H 
ATOM     65  C4T PAX d         -20.306 -34.225  17.063  0.00  0.00     0.256 A 
ATOM     66  N3T PAX d         -21.328 -34.282  18.031  0.00  0.00    -0.275 N 
ATOM     67  O4T PAX d         -19.133 -34.246  17.442  0.00  0.00    -0.267 OA
ATOM     68  C2T PAX d         -22.702 -34.256  17.804  0.00  0.00     0.331 A 
ATOM     69  H20 PAX d         -21.035 -34.349  18.985  0.00  0.00     0.173 HD
ATOM     70  O2T PAX d         -23.504 -34.308  18.709  0.00  0.00    -0.246 OA
BRANCH  63  71
ATOM     71  CM5 PAX d         -19.786 -34.065  14.541  0.00  0.00    -0.045 C 
ATOM     72  H21 PAX d         -19.372 -33.049  14.477  0.00  0.00     0.033 H 
ATOM     73  H22 PAX d         -20.297 -34.313  13.599  0.00  0.00     0.033 H 
ATOM     74  H23 PAX d         -18.971 -34.783  14.717  0.00  0.00     0.033 H 
ENDBRANCH  63  71
ENDBRANCH  47  61
ENDBRANCH  42  43
ENDBRANCH  39  42
ENDBRANCH  38  39
ENDBRANCH   1  38
TORSDOF 16
ENDMDL
MODEL 7
REMARK VINA RESULT:      -5.1      2.525      3.783
REMARK  16 active torsions:
REMARK  status: ('A' for Active; 'I' for Inactive)
REMARK    1  A    between atoms: PA_1  and  O5_4 
REMARK    2  A    between atoms: O3A_8  and  PA_1 
REMARK    3  A    between atoms: O5_4  and  C5_23 
REMARK    4  A    between atoms: PB_5  and  O3A_8 
REMARK    5  A    between atoms: O3_38  and  PB_5 
REMARK    6  A    between atoms: O3_30  and  PG_9 
REMARK    7  A    between atoms: C1_26  and  N9A_13 
REMARK    8  A    between atoms: C5_23  and  C4_24 
REMARK    9  A    between atoms: C2_27  and  O2_28 
REMARK   10  A    between atoms: C3_29  and  O3_30 
REMARK   11  A    between atoms: C5_32  and  O5_31 
REMARK   12  A    between atoms: O5_31  and  PD_39 
REMARK   13  A    between atoms: C4_33  and  C5_32 
REMARK   14  A    between atoms: C1_35  and  N1T_43 
REMARK   15  A    between atoms: C3_37  and  O3_38 
REMARK   16  A    between atoms: C5T_50  and  CM5_51 
ROOT
ATOM      1  PA  PAX d         -30.012 -32.565  18.242  0.00  0.00     0.417 P 
ATOM      2  O1A PAX d         -28.714 -32.825  19.012  0.00  0.00    -0.624 OA
ATOM      3  O2A PAX d         -31.289 -32.453  19.081  0.00  0.00    -0.624 OA
ENDROOT
BRANCH   1   4
ATOM      4  O5  PAX d         -29.894 -31.250  17.348  0.00  0.00    -0.287 OA
BRANCH   4   5
ATOM      5  C5  PAX d         -30.862 -30.947  16.368  0.00  0.00     0.058 C 
ATOM      6  H5  PAX d         -31.044 -31.835  15.745  0.00  0.00     0.079 H 
ATOM      7  H6  PAX d         -30.499 -30.123  15.736  0.00  0.00     0.079 H 
BRANCH   5   8
ATOM      8  C4  PAX d         -32.137 -30.537  17.037  0.00  0.00     0.090 C 
ATOM      9  O4  PAX d         -31.990 -29.210  17.643  0.00  0.00    -0.353 OA
ATOM     10  C1  PAX d         -33.234 -28.550  17.555  0.00  0.00     0.140 C 
ATOM     11  C2  PAX d         -33.715 -28.954  16.148  0.00  0.00     0.106 C 
ATOM     12  H8  PAX d         -33.934 -28.977  18.288  0.00  0.00     0.122 H 
ATOM     13  C3  PAX d         -33.329 -30.440  16.083  0.00  0.00     0.107 C 
ATOM     14  H9  PAX d         -33.145 -28.397  15.390  0.00  0.00     0.093 H 
ATOM     15  H11 PAX d         -33.071 -30.744  15.058  0.00  0.00     0.092 H 
ATOM     16  H7  PAX d         -32.365 -31.276  17.818  0.00  0.00     0.090 H 
BRANCH  10  17
ATOM     17  N9A PAX d         -33.094 -27.101  17.899  0.00  0.00    -0.294 N 
ATOM     18  C4A PAX d         -32.114 -26.174  17.565  0.00  0.00     0.167 A 
ATOM     19  N3A PAX d         -30.991 -26.372  16.806  0.00  0.00    -0.222 NA
ATOM     20  C5A PAX d         -32.516 -24.962  18.171  0.00  0.00     0.149 A 
ATOM     21  C2A PAX d         -30.247 -25.228  16.682  0.00  0.00     0.091 A 
ATOM     22  N1A PAX d         -30.512 -23.992  17.211  0.00  0.00    -0.222 NA
ATOM     23  H1  PAX d         -29.340 -25.312  16.094  0.00  0.00     0.146 H 
ATOM     24  C6A PAX d         -31.651 -23.825  17.968  0.00  0.00     0.155 A 
ATOM     25  N6A PAX d         -31.896 -22.619  18.472  0.00  0.00    -0.382 N 
ATOM     26  H2  PAX d         -32.738 -22.459  19.042  0.00  0.00     0.157 HD
ATOM     27  H3  PAX d         -31.242 -21.842  18.291  0.00  0.00     0.157 HD
ATOM     28  N7A PAX d         -33.706 -25.131  18.862  0.00  0.00    -0.236 NA
ATOM     29  C8A PAX d         -34.005 -26.400  18.673  0.00  0.00     0.071 A 
ATOM     30  H4  PAX d         -34.898 -26.863  19.091  0.00  0.00     0.144 H 
ENDBRANCH  10  17
BRANCH  11  31
ATOM     31  O2  PAX d         -35.091 -28.686  15.917  0.00  0.00    -0.388 OA
ATOM     32  H10 PAX d         -35.223 -28.480  14.999  0.00  0.00     0.210 HD
ENDBRANCH  11  31
BRANCH  13  33
ATOM     33  O3  PAX d         -34.362 -31.275  16.613  0.00  0.00    -0.272 OA
BRANCH  33  34
ATOM     34  PG  PAX d         -34.508 -32.853  16.208  0.00  0.00     0.422 P 
ATOM     35  O1G PAX d         -33.658 -33.061  14.957  0.00  0.00    -0.617 OA
ATOM     36  O2G PAX d         -34.006 -33.627  17.419  0.00  0.00    -0.617 OA
ATOM     37  O3G PAX d         -35.992 -33.152  15.928  0.00  0.00    -0.617 OA
ENDBRANCH  33  34
ENDBRANCH  13  33
ENDBRANCH   5   8
ENDBRANCH   4   5
ENDBRANCH   1   4
BRANCH   1  38
ATOM     38  O3A PAX d         -30.216 -33.673  17.126  0.00  0.00    -0.180 OA
BRANCH  38  39
ATOM     39  PB  PAX d         -29.231 -34.605  16.319  0.00  0.00     0.418 P 
ATOM     40  O1B PAX d         -27.989 -34.774  17.097  0.00  0.00    -0.624 OA
ATOM     41  O2B PAX d         -29.985 -35.812  15.908  0.00  0.00    -0.624 OA
BRANCH  39  42
ATOM     42  O3  PAX d         -29.000 -33.777  14.938  0.00  0.00    -0.281 OA
BRANCH  42  43
ATOM     43  C3  PAX d         -28.108 -32.661  14.876  0.00  0.00     0.081 C 
ATOM     44  C4  PAX d         -27.445 -32.620  13.494  0.00  0.00     0.087 C 
ATOM     45  O4  PAX d         -26.072 -33.060  13.680  0.00  0.00    -0.356 OA
ATOM     46  H14 PAX d         -27.969 -33.322  12.829  0.00  0.00     0.090 H 
ATOM     47  C1  PAX d         -25.918 -33.584  14.983  0.00  0.00     0.116 C 
ATOM     48  C2  PAX d         -26.953 -32.869  15.842  0.00  0.00     0.003 C 
ATOM     49  H15 PAX d         -26.119 -34.666  14.984  0.00  0.00     0.118 H 
ATOM     50  H16 PAX d         -26.565 -31.906  16.208  0.00  0.00     0.043 H 
ATOM     51  H17 PAX d         -27.257 -33.491  16.696  0.00  0.00     0.043 H 
ATOM     52  H18 PAX d         -28.647 -31.728  15.093  0.00  0.00     0.088 H 
BRANCH  44  53
ATOM     53  C5  PAX d         -27.475 -31.244  12.846  0.00  0.00     0.059 C 
ATOM     54  H12 PAX d         -26.443 -30.918  12.646  0.00  0.00     0.079 H 
ATOM     55  H13 PAX d         -28.031 -31.303  11.900  0.00  0.00     0.079 H 
BRANCH  53  56
ATOM     56  O5  PAX d         -28.118 -30.280  13.716  0.00  0.00    -0.280 OA
BRANCH  56  57
ATOM     57  PD  PAX d         -29.109 -29.099  13.138  0.00  0.00     0.422 P 
ATOM     58  O1D PAX d         -30.158 -29.837  12.283  0.00  0.00    -0.617 OA
ATOM     59  O2D PAX d         -28.218 -28.150  12.304  0.00  0.00    -0.617 OA
ATOM     60  O3D PAX d         -29.726 -28.416  14.371  0.00  0.00    -0.617 OA
ENDBRANCH  56  57
ENDBRANCH  53  56
ENDBRANCH  44  53
BRANCH  47  61
ATOM     61  N1T PAX d         -24.513 -33.351  15.461  0.00  0.00    -0.282 N 
ATOM     62  C6T PAX d         -24.021 -33.938  16.655  0.00  0.00    -0.002 A 
ATOM     63  C5T PAX d         -22.759 -33.746  17.105  0.00  0.00     0.022 A 
ATOM     64  H19 PAX d         -24.688 -34.573  17.235  0.00  0.00     0.113 H 
ATOM     65  C4T PAX d         -21.850 -32.895  16.329  0.00  0.00     0.256 A 
ATOM     66  N3T PAX d         -22.398 -32.337  15.157  0.00  0.00    -0.275 N 
ATOM     67  O4T PAX d         -20.675 -32.643  16.608  0.00  0.00    -0.267 OA
ATOM     68  C2T PAX d         -23.691 -32.515  14.668  0.00  0.00     0.331 A 
ATOM     69  H20 PAX d         -21.793 -31.751  14.618  0.00  0.00     0.173 HD
ATOM     70  O2T PAX d         -24.067 -31.991  13.645  0.00  0.00    -0.246 OA
BRANCH  63  71
ATOM     71  CM5 PAX d         -22.308 -34.403  18.371  0.00  0.00    -0.045 C 
ATOM     72  H21 PAX d         -23.079 -34.275  19.145  0.00  0.00     0.033 H 
ATOM     73  H22 PAX d         -21.369 -33.942  18.710  0.00  0.00     0.033 H 
ATOM     74  H23 PAX d         -22.146 -35.476  18.189  0.00  0.00     0.033 H 
ENDBRANCH  63  71
ENDBRANCH  47  61
ENDBRANCH  42  43
ENDBRANCH  39  42
ENDBRANCH  38  39
ENDBRANCH   1  38
TORSDOF 16
ENDMDL
MODEL 8
REMARK VINA RESULT:      -5.0      3.576     10.084
REMARK  16 active torsions:
REMARK  status: ('A' for Active; 'I' for Inactive)
REMARK    1  A    between atoms: PA_1  and  O5_4 
REMARK    2  A    between atoms: O3A_8  and  PA_1 
REMARK    3  A    between atoms: O5_4  and  C5_23 
REMARK    4  A    between atoms: PB_5  and  O3A_8 
REMARK    5  A    between atoms: O3_38  and  PB_5 
REMARK    6  A    between atoms: O3_30  and  PG_9 
REMARK    7  A    between atoms: C1_26  and  N9A_13 
REMARK    8  A    between atoms: C5_23  and  C4_24 
REMARK    9  A    between atoms: C2_27  and  O2_28 
REMARK   10  A    between atoms: C3_29  and  O3_30 
REMARK   11  A    between atoms: C5_32  and  O5_31 
REMARK   12  A    between atoms: O5_31  and  PD_39 
REMARK   13  A    between atoms: C4_33  and  C5_32 
REMARK   14  A    between atoms: C1_35  and  N1T_43 
REMARK   15  A    between atoms: C3_37  and  O3_38 
REMARK   16  A    between atoms: C5T_50  and  CM5_51 
ROOT
ATOM      1  PA  PAX d         -26.820 -31.071  13.724  0.00  0.00     0.417 P 
ATOM      2  O1A PAX d         -25.689 -31.227  14.745  0.00  0.00    -0.624 OA
ATOM      3  O2A PAX d         -26.497 -31.486  12.285  0.00  0.00    -0.624 OA
ENDROOT
BRANCH   1   4
ATOM      4  O5  PAX d         -28.122 -31.867  14.186  0.00  0.00    -0.287 OA
BRANCH   4   5
ATOM      5  C5  PAX d         -28.746 -31.588  15.419  0.00  0.00     0.058 C 
ATOM      6  H5  PAX d         -29.817 -31.396  15.253  0.00  0.00     0.079 H 
ATOM      7  H6  PAX d         -28.280 -30.701  15.873  0.00  0.00     0.079 H 
BRANCH   5   8
ATOM      8  C4  PAX d         -28.585 -32.759  16.336  0.00  0.00     0.090 C 
ATOM      9  O4  PAX d         -27.174 -33.144  16.427  0.00  0.00    -0.353 OA
ATOM     10  C1  PAX d         -26.935 -33.624  17.732  0.00  0.00     0.140 C 
ATOM     11  C2  PAX d         -27.757 -32.644  18.591  0.00  0.00     0.106 C 
ATOM     12  H8  PAX d         -27.374 -34.626  17.846  0.00  0.00     0.122 H 
ATOM     13  C3  PAX d         -29.046 -32.488  17.769  0.00  0.00     0.107 C 
ATOM     14  H9  PAX d         -27.239 -31.675  18.642  0.00  0.00     0.093 H 
ATOM     15  H11 PAX d         -29.479 -31.483  17.887  0.00  0.00     0.092 H 
ATOM     16  H7  PAX d         -29.170 -33.596  15.926  0.00  0.00     0.090 H 
BRANCH  10  17
ATOM     17  N9A PAX d         -25.469 -33.776  17.985  0.00  0.00    -0.294 N 
ATOM     18  C4A PAX d         -24.397 -33.892  17.107  0.00  0.00     0.167 A 
ATOM     19  N3A PAX d         -24.428 -33.895  15.737  0.00  0.00    -0.222 NA
ATOM     20  C5A PAX d         -23.249 -34.003  17.922  0.00  0.00     0.149 A 
ATOM     21  C2A PAX d         -23.177 -34.026  15.196  0.00  0.00     0.091 A 
ATOM     22  N1A PAX d         -21.983 -34.145  15.859  0.00  0.00    -0.222 NA
ATOM     23  H1  PAX d         -23.125 -34.038  14.114  0.00  0.00     0.146 H 
ATOM     24  C6A PAX d         -21.986 -34.136  17.237  0.00  0.00     0.155 A 
ATOM     25  N6A PAX d         -20.819 -34.248  17.865  0.00  0.00    -0.382 N 
ATOM     26  H2  PAX d         -20.786 -34.245  18.895  0.00  0.00     0.157 HD
ATOM     27  H3  PAX d         -19.948 -34.337  17.323  0.00  0.00     0.157 HD
ATOM     28  N7A PAX d         -23.595 -33.961  19.264  0.00  0.00    -0.236 NA
ATOM     29  C8A PAX d         -24.905 -33.826  19.250  0.00  0.00     0.071 A 
ATOM     30  H4  PAX d         -25.499 -33.759  20.160  0.00  0.00     0.144 H 
ENDBRANCH  10  17
BRANCH  11  31
ATOM     31  O2  PAX d         -27.954 -33.084  19.928  0.00  0.00    -0.388 OA
ATOM     32  H10 PAX d         -27.925 -32.337  20.515  0.00  0.00     0.210 HD
ENDBRANCH  11  31
BRANCH  13  33
ATOM     33  O3  PAX d         -30.006 -33.494  18.101  0.00  0.00    -0.272 OA
BRANCH  33  34
ATOM     34  PG  PAX d         -31.618 -33.241  17.984  0.00  0.00     0.422 P 
ATOM     35  O1G PAX d         -31.821 -32.265  16.827  0.00  0.00    -0.617 OA
ATOM     36  O2G PAX d         -32.224 -34.614  17.734  0.00  0.00    -0.617 OA
ATOM     37  O3G PAX d         -32.118 -32.642  19.311  0.00  0.00    -0.617 OA
ENDBRANCH  33  34
ENDBRANCH  13  33
ENDBRANCH   5   8
ENDBRANCH   4   5
ENDBRANCH   1   4
BRANCH   1  38
ATOM     38  O3A PAX d         -27.357 -29.580  13.729  0.00  0.00    -0.180 OA
BRANCH  38  39
ATOM     39  PB  PAX d         -28.651 -28.882  13.155  0.00  0.00     0.418 P 
ATOM     40  O1B PAX d         -28.243 -27.764  12.283  0.00  0.00    -0.624 OA
ATOM     41  O2B PAX d         -29.526 -29.938  12.597  0.00  0.00    -0.624 OA
BRANCH  39  42
ATOM     42  O3  PAX d         -29.419 -28.382  14.500  0.00  0.00    -0.281 OA
BRANCH  42  43
ATOM     43  C3  PAX d         -30.260 -27.227  14.494  0.00  0.00     0.081 C 
ATOM     44  C4  PAX d         -29.520 -26.059  15.156  0.00  0.00     0.087 C 
ATOM     45  O4  PAX d         -30.128 -25.870  16.463  0.00  0.00    -0.356 OA
ATOM     46  H14 PAX d         -28.462 -26.334  15.279  0.00  0.00     0.090 H 
ATOM     47  C1  PAX d         -30.990 -26.955  16.742  0.00  0.00     0.116 C 
ATOM     48  C2  PAX d         -31.467 -27.462  15.388  0.00  0.00     0.003 C 
ATOM     49  H15 PAX d         -30.441 -27.752  17.265  0.00  0.00     0.118 H 
ATOM     50  H16 PAX d         -32.339 -26.891  15.035  0.00  0.00     0.043 H 
ATOM     51  H17 PAX d         -31.724 -28.531  15.433  0.00  0.00     0.043 H 
ATOM     52  H18 PAX d         -30.566 -26.981  13.467  0.00  0.00     0.088 H 
BRANCH  44  53
ATOM     53  C5  PAX d         -29.582 -24.768  14.355  0.00  0.00     0.059 C 
ATOM     54  H12 PAX d         -30.579 -24.675  13.898  0.00  0.00     0.079 H 
ATOM     55  H13 PAX d         -29.407 -23.916  15.029  0.00  0.00     0.079 H 
BRANCH  53  56
ATOM     56  O5  PAX d         -28.577 -24.761  13.311  0.00  0.00    -0.280 OA
BRANCH  56  57
ATOM     57  PD  PAX d         -27.015 -24.327  13.597  0.00  0.00     0.422 P 
ATOM     58  O1D PAX d         -26.927 -24.124  15.122  0.00  0.00    -0.617 OA
ATOM     59  O2D PAX d         -26.771 -23.022  12.805  0.00  0.00    -0.617 OA
ATOM     60  O3D PAX d         -26.148 -25.500  13.106  0.00  0.00    -0.617 OA
ENDBRANCH  56  57
ENDBRANCH  53  56
ENDBRANCH  44  53
BRANCH  47  61
ATOM     61  N1T PAX d         -32.122 -26.492  17.614  0.00  0.00    -0.282 N 
ATOM     62  C6T PAX d         -32.492 -25.125  17.699  0.00  0.00    -0.002 A 
ATOM     63  C5T PAX d         -33.510 -24.684  18.475  0.00  0.00     0.022 A 
ATOM     64  H19 PAX d         -31.932 -24.398  17.113  0.00  0.00     0.113 H 
ATOM     65  C4T PAX d         -34.273 -25.655  19.267  0.00  0.00     0.256 A 
ATOM     66  N3T PAX d         -33.855 -26.995  19.144  0.00  0.00    -0.275 N 
ATOM     67  O4T PAX d         -35.229 -25.400  20.003  0.00  0.00    -0.267 OA
ATOM     68  C2T PAX d         -32.813 -27.480  18.356  0.00  0.00     0.331 A 
ATOM     69  H20 PAX d         -34.361 -27.670  19.680  0.00  0.00     0.173 HD
ATOM     70  O2T PAX d         -32.532 -28.656  18.318  0.00  0.00    -0.246 OA
BRANCH  63  71
ATOM     71  CM5 PAX d         -33.846 -23.226  18.509  0.00  0.00    -0.045 C 
ATOM     72  H21 PAX d         -34.391 -22.997  19.436  0.00  0.00     0.033 H 
ATOM     73  H22 PAX d         -34.475 -22.975  17.642  0.00  0.00     0.033 H 
ATOM     74  H23 PAX d         -32.919 -22.635  18.472  0.00  0.00     0.033 H 
ENDBRANCH  63  71
ENDBRANCH  47  61
ENDBRANCH  42  43
ENDBRANCH  39  42
ENDBRANCH  38  39
ENDBRANCH   1  38
TORSDOF 16
ENDMDL
MODEL 9
REMARK VINA RESULT:      -4.8      3.062      9.890
REMARK  16 active torsions:
REMARK  status: ('A' for Active; 'I' for Inactive)
REMARK    1  A    between atoms: PA_1  and  O5_4 
REMARK    2  A    between atoms: O3A_8  and  PA_1 
REMARK    3  A    between atoms: O5_4  and  C5_23 
REMARK    4  A    between atoms: PB_5  and  O3A_8 
REMARK    5  A    between atoms: O3_38  and  PB_5 
REMARK    6  A    between atoms: O3_30  and  PG_9 
REMARK    7  A    between atoms: C1_26  and  N9A_13 
REMARK    8  A    between atoms: C5_23  and  C4_24 
REMARK    9  A    between atoms: C2_27  and  O2_28 
REMARK   10  A    between atoms: C3_29  and  O3_30 
REMARK   11  A    between atoms: C5_32  and  O5_31 
REMARK   12  A    between atoms: O5_31  and  PD_39 
REMARK   13  A    between atoms: C4_33  and  C5_32 
REMARK   14  A    between atoms: C1_35  and  N1T_43 
REMARK   15  A    between atoms: C3_37  and  O3_38 
REMARK   16  A    between atoms: C5T_50  and  CM5_51 
ROOT
ATOM      1  PA  PAX d         -26.900 -31.319  13.744  0.00  0.00     0.417 P 
ATOM      2  O1A PAX d         -25.721 -31.604  14.679  0.00  0.00    -0.624 OA
ATOM      3  O2A PAX d         -26.727 -31.749  12.283  0.00  0.00    -0.624 OA
ENDROOT
BRANCH   1   4
ATOM      4  O5  PAX d         -28.242 -31.979  14.297  0.00  0.00    -0.287 OA
BRANCH   4   5
ATOM      5  C5  PAX d         -28.787 -31.588  15.537  0.00  0.00     0.058 C 
ATOM      6  H5  PAX d         -29.852 -31.342  15.408  0.00  0.00     0.079 H 
ATOM      7  H6  PAX d         -28.250 -30.704  15.912  0.00  0.00     0.079 H 
BRANCH   5   8
ATOM      8  C4  PAX d         -28.649 -32.709  16.518  0.00  0.00     0.090 C 
ATOM      9  O4  PAX d         -27.258 -33.167  16.576  0.00  0.00    -0.353 OA
ATOM     10  C1  PAX d         -26.988 -33.580  17.897  0.00  0.00     0.140 C 
ATOM     11  C2  PAX d         -27.717 -32.504  18.726  0.00  0.00     0.106 C 
ATOM     12  H8  PAX d         -27.475 -34.546  18.092  0.00  0.00     0.122 H 
ATOM     13  C3  PAX d         -29.030 -32.325  17.950  0.00  0.00     0.107 C 
ATOM     14  H9  PAX d         -27.145 -31.565  18.695  0.00  0.00     0.093 H 
ATOM     15  H11 PAX d         -29.403 -31.293  18.021  0.00  0.00     0.092 H 
ATOM     16  H7  PAX d         -29.296 -33.535  16.187  0.00  0.00     0.090 H 
BRANCH  10  17
ATOM     17  N9A PAX d         -25.522 -33.798  18.099  0.00  0.00    -0.294 N 
ATOM     18  C4A PAX d         -24.482 -33.915  17.185  0.00  0.00     0.167 A 
ATOM     19  N3A PAX d         -24.552 -33.855  15.817  0.00  0.00    -0.222 NA
ATOM     20  C5A PAX d         -23.316 -34.107  17.959  0.00  0.00     0.149 A 
ATOM     21  C2A PAX d         -23.322 -34.010  15.233  0.00  0.00     0.091 A 
ATOM     22  N1A PAX d         -22.116 -34.204  15.854  0.00  0.00    -0.222 NA
ATOM     23  H1  PAX d         -23.302 -33.975  14.150  0.00  0.00     0.146 H 
ATOM     24  C6A PAX d         -22.079 -34.257  17.231  0.00  0.00     0.155 A 
ATOM     25  N6A PAX d         -20.900 -34.442  17.818  0.00  0.00    -0.382 N 
ATOM     26  H2  PAX d         -20.837 -34.487  18.845  0.00  0.00     0.157 HD
ATOM     27  H3  PAX d         -20.049 -34.540  17.245  0.00  0.00     0.157 HD
ATOM     28  N7A PAX d         -23.621 -34.112  19.311  0.00  0.00    -0.236 NA
ATOM     29  C8A PAX d         -24.925 -33.927  19.343  0.00  0.00     0.071 A 
ATOM     30  H4  PAX d         -25.490 -33.879  20.273  0.00  0.00     0.144 H 
ENDBRANCH  10  17
BRANCH  11  31
ATOM     31  O2  PAX d         -27.877 -32.851  20.095  0.00  0.00    -0.388 OA
ATOM     32  H10 PAX d         -28.507 -33.558  20.170  0.00  0.00     0.210 HD
ENDBRANCH  11  31
BRANCH  13  33
ATOM     33  O3  PAX d         -30.028 -33.254  18.384  0.00  0.00    -0.272 OA
BRANCH  33  34
ATOM     34  PG  PAX d         -31.627 -32.982  18.177  0.00  0.00     0.422 P 
ATOM     35  O1G PAX d         -32.229 -32.841  19.573  0.00  0.00    -0.617 OA
ATOM     36  O2G PAX d         -31.715 -31.709  17.346  0.00  0.00    -0.617 OA
ATOM     37  O3G PAX d         -32.236 -34.181  17.427  0.00  0.00    -0.617 OA
ENDBRANCH  33  34
ENDBRANCH  13  33
ENDBRANCH   5   8
ENDBRANCH   4   5
ENDBRANCH   1   4
BRANCH   1  38
ATOM     38  O3A PAX d         -27.276 -29.779  13.794  0.00  0.00    -0.180 OA
BRANCH  38  39
ATOM     39  PB  PAX d         -28.451 -28.921  13.183  0.00  0.00     0.418 P 
ATOM     40  O1B PAX d         -27.879 -27.898  12.288  0.00  0.00    -0.624 OA
ATOM     41  O2B PAX d         -29.463 -29.857  12.642  0.00  0.00    -0.624 OA
BRANCH  39  42
ATOM     42  O3  PAX d         -29.152 -28.279  14.504  0.00  0.00    -0.281 OA
BRANCH  42  43
ATOM     43  C3  PAX d         -30.527 -27.886  14.505  0.00  0.00     0.081 C 
ATOM     44  C4  PAX d         -30.709 -26.680  13.575  0.00  0.00     0.087 C 
ATOM     45  O4  PAX d         -30.904 -25.522  14.433  0.00  0.00    -0.356 OA
ATOM     46  H14 PAX d         -29.792 -26.548  12.983  0.00  0.00     0.090 H 
ATOM     47  C1  PAX d         -30.619 -25.875  15.772  0.00  0.00     0.116 C 
ATOM     48  C2  PAX d         -30.915 -27.365  15.879  0.00  0.00     0.003 C 
ATOM     49  H15 PAX d         -29.558 -25.691  15.996  0.00  0.00     0.118 H 
ATOM     50  H16 PAX d         -31.981 -27.543  16.083  0.00  0.00     0.043 H 
ATOM     51  H17 PAX d         -30.307 -27.835  16.666  0.00  0.00     0.043 H 
ATOM     52  H18 PAX d         -31.165 -28.729  14.201  0.00  0.00     0.088 H 
BRANCH  44  53
ATOM     53  C5  PAX d         -31.877 -26.825  12.613  0.00  0.00     0.059 C 
ATOM     54  H12 PAX d         -32.313 -25.832  12.423  0.00  0.00     0.079 H 
ATOM     55  H13 PAX d         -31.514 -27.252  11.667  0.00  0.00     0.079 H 
BRANCH  53  56
ATOM     56  O5  PAX d         -32.896 -27.694  13.167  0.00  0.00    -0.280 OA
BRANCH  56  57
ATOM     57  PD  PAX d         -34.348 -27.123  13.690  0.00  0.00     0.422 P 
ATOM     58  O1D PAX d         -34.143 -25.607  13.875  0.00  0.00    -0.617 OA
ATOM     59  O2D PAX d         -34.653 -27.851  15.018  0.00  0.00    -0.617 OA
ATOM     60  O3D PAX d         -35.362 -27.450  12.579  0.00  0.00    -0.617 OA
ENDBRANCH  56  57
ENDBRANCH  53  56
ENDBRANCH  44  53
BRANCH  47  61
ATOM     61  N1T PAX d         -31.462 -25.053  16.704  0.00  0.00    -0.282 N 
ATOM     62  C6T PAX d         -32.742 -25.486  17.135  0.00  0.00    -0.002 A 
ATOM     63  C5T PAX d         -33.520 -24.765  17.976  0.00  0.00     0.022 A 
ATOM     64  H19 PAX d         -33.116 -26.443  16.773  0.00  0.00     0.113 H 
ATOM     65  C4T PAX d         -33.025 -23.476  18.472  0.00  0.00     0.256 A 
ATOM     66  N3T PAX d         -31.751 -23.099  18.005  0.00  0.00    -0.275 N 
ATOM     67  O4T PAX d         -33.615 -22.723  19.251  0.00  0.00    -0.267 OA
ATOM     68  C2T PAX d         -30.928 -23.816  17.140  0.00  0.00     0.331 A 
ATOM     69  H20 PAX d         -31.399 -22.221  18.330  0.00  0.00     0.173 HD
ATOM     70  O2T PAX d         -29.843 -23.405  16.798  0.00  0.00    -0.246 OA
BRANCH  63  71
ATOM     71  CM5 PAX d         -34.858 -25.290  18.392  0.00  0.00    -0.045 C 
ATOM     72  H21 PAX d         -35.563 -24.453  18.499  0.00  0.00     0.033 H 
ATOM     73  H22 PAX d         -34.763 -25.814  19.355  0.00  0.00     0.033 H 
ATOM     74  H23 PAX d         -35.231 -25.989  17.629  0.00  0.00     0.033 H 
ENDBRANCH  63  71
ENDBRANCH  47  61
ENDBRANCH  42  43
ENDBRANCH  39  42
ENDBRANCH  38  39
ENDBRANCH   1  38
TORSDOF 16
ENDMDL
MODEL 10
REMARK VINA RESULT:      -4.6      4.055      8.177
REMARK  16 active torsions:
REMARK  status: ('A' for Active; 'I' for Inactive)
REMARK    1  A    between atoms: PA_1  and  O5_4 
REMARK    2  A    between atoms: O3A_8  and  PA_1 
REMARK    3  A    between atoms: O5_4  and  C5_23 
REMARK    4  A    between atoms: PB_5  and  O3A_8 
REMARK    5  A    between atoms: O3_38  and  PB_5 
REMARK    6  A    between atoms: O3_30  and  PG_9 
REMARK    7  A    between atoms: C1_26  and  N9A_13 
REMARK    8  A    between atoms: C5_23  and  C4_24 
REMARK    9  A    between atoms: C2_27  and  O2_28 
REMARK   10  A    between atoms: C3_29  and  O3_30 
REMARK   11  A    between atoms: C5_32  and  O5_31 
REMARK   12  A    between atoms: O5_31  and  PD_39 
REMARK   13  A    between atoms: C4_33  and  C5_32 
REMARK   14  A    between atoms: C1_35  and  N1T_43 
REMARK   15  A    between atoms: C3_37  and  O3_38 
REMARK   16  A    between atoms: C5T_50  and  CM5_51 
ROOT
ATOM      1  PA  PAX d         -30.491 -26.022  14.210  0.00  0.00     0.417 P 
ATOM      2  O1A PAX d         -29.169 -26.519  14.801  0.00  0.00    -0.624 OA
ATOM      3  O2A PAX d         -30.438 -25.508  12.767  0.00  0.00    -0.624 OA
ENDROOT
BRANCH   1   4
ATOM      4  O5  PAX d         -31.615 -27.149  14.291  0.00  0.00    -0.287 OA
BRANCH   4   5
ATOM      5  C5  PAX d         -31.325 -28.430  14.804  0.00  0.00     0.058 C 
ATOM      6  H5  PAX d         -32.195 -28.806  15.363  0.00  0.00     0.079 H 
ATOM      7  H6  PAX d         -30.456 -28.369  15.474  0.00  0.00     0.079 H 
BRANCH   5   8
ATOM      8  C4  PAX d         -31.019 -29.362  13.674  0.00  0.00     0.090 C 
ATOM      9  O4  PAX d         -29.594 -29.299  13.334  0.00  0.00    -0.353 OA
ATOM     10  C1  PAX d         -29.188 -30.582  12.912  0.00  0.00     0.140 C 
ATOM     11  C2  PAX d         -29.936 -31.498  13.901  0.00  0.00     0.106 C 
ATOM     12  H8  PAX d         -29.577 -30.783  11.903  0.00  0.00     0.122 H 
ATOM     13  C3  PAX d         -31.316 -30.830  13.987  0.00  0.00     0.107 C 
ATOM     14  H9  PAX d         -29.448 -31.453  14.885  0.00  0.00     0.093 H 
ATOM     15  H11 PAX d         -31.766 -30.962  14.982  0.00  0.00     0.092 H 
ATOM     16  H7  PAX d         -31.619 -29.055  12.805  0.00  0.00     0.090 H 
BRANCH  10  17
ATOM     17  N9A PAX d         -27.698 -30.664  12.814  0.00  0.00    -0.294 N 
ATOM     18  C4A PAX d         -26.839 -31.757  12.846  0.00  0.00     0.167 A 
ATOM     19  N3A PAX d         -27.165 -33.080  12.982  0.00  0.00    -0.222 NA
ATOM     20  C5A PAX d         -25.539 -31.222  12.705  0.00  0.00     0.149 A 
ATOM     21  C2A PAX d         -26.058 -33.886  12.971  0.00  0.00     0.091 A 
ATOM     22  N1A PAX d         -24.746 -33.509  12.843  0.00  0.00    -0.222 NA
ATOM     23  H1  PAX d         -26.241 -34.949  13.075  0.00  0.00     0.146 H 
ATOM     24  C6A PAX d         -24.451 -32.170  12.707  0.00  0.00     0.155 A 
ATOM     25  N6A PAX d         -23.174 -31.821  12.580  0.00  0.00    -0.382 N 
ATOM     26  H2  PAX d         -22.919 -30.829  12.476  0.00  0.00     0.157 HD
ATOM     27  H3  PAX d         -22.439 -32.544  12.586  0.00  0.00     0.157 HD
ATOM     28  N7A PAX d         -25.587 -29.841  12.591  0.00  0.00    -0.236 NA
ATOM     29  C8A PAX d         -26.873 -29.561  12.659  0.00  0.00     0.071 A 
ATOM     30  H4  PAX d         -27.257 -28.544  12.599  0.00  0.00     0.144 H 
ENDBRANCH  10  17
BRANCH  11  31
ATOM     31  O2  PAX d         -29.959 -32.863  13.507  0.00  0.00    -0.388 OA
ATOM     32  H10 PAX d         -30.511 -33.355  14.104  0.00  0.00     0.210 HD
ENDBRANCH  11  31
BRANCH  13  33
ATOM     33  O3  PAX d         -32.197 -31.309  12.967  0.00  0.00    -0.272 OA
BRANCH  33  34
ATOM     34  PG  PAX d         -33.755 -31.705  13.269  0.00  0.00     0.422 P 
ATOM     35  O1G PAX d         -34.585 -30.456  12.983  0.00  0.00    -0.617 OA
ATOM     36  O2G PAX d         -34.063 -32.866  12.333  0.00  0.00    -0.617 OA
ATOM     37  O3G PAX d         -33.876 -32.128  14.744  0.00  0.00    -0.617 OA
ENDBRANCH  33  34
ENDBRANCH  13  33
ENDBRANCH   5   8
ENDBRANCH   4   5
ENDBRANCH   1   4
BRANCH   1  38
ATOM     38  O3A PAX d         -31.117 -24.901  15.140  0.00  0.00    -0.180 OA
BRANCH  38  39
ATOM     39  PB  PAX d         -30.553 -24.020  16.322  0.00  0.00     0.418 P 
ATOM     40  O1B PAX d         -29.211 -23.531  15.953  0.00  0.00    -0.624 OA
ATOM     41  O2B PAX d         -31.594 -23.035  16.690  0.00  0.00    -0.624 OA
BRANCH  39  42
ATOM     42  O3  PAX d         -30.519 -25.066  17.567  0.00  0.00    -0.281 OA
BRANCH  42  43
ATOM     43  C3  PAX d         -31.288 -26.271  17.553  0.00  0.00     0.081 C 
ATOM     44  C4  PAX d         -31.863 -26.519  18.953  0.00  0.00     0.087 C 
ATOM     45  O4  PAX d         -31.098 -27.615  19.526  0.00  0.00    -0.356 OA
ATOM     46  H14 PAX d         -31.720 -25.614  19.560  0.00  0.00     0.090 H 
ATOM     47  C1  PAX d         -29.976 -27.883  18.710  0.00  0.00     0.116 C 
ATOM     48  C2  PAX d         -30.379 -27.462  17.302  0.00  0.00     0.003 C 
ATOM     49  H15 PAX d         -29.113 -27.288  19.042  0.00  0.00     0.118 H 
ATOM     50  H16 PAX d         -30.918 -28.271  16.787  0.00  0.00     0.043 H 
ATOM     51  H17 PAX d         -29.499 -27.172  16.709  0.00  0.00     0.043 H 
ATOM     52  H18 PAX d         -32.083 -26.208  16.796  0.00  0.00     0.088 H 
BRANCH  44  53
ATOM     53  C5  PAX d         -33.346 -26.858  18.949  0.00  0.00     0.059 C 
ATOM     54  H12 PAX d         -33.731 -26.801  19.979  0.00  0.00     0.079 H 
ATOM     55  H13 PAX d         -33.880 -26.133  18.318  0.00  0.00     0.079 H 
BRANCH  53  56
ATOM     56  O5  PAX d         -33.568 -28.193  18.431  0.00  0.00    -0.280 OA
BRANCH  56  57
ATOM     57  PD  PAX d         -34.545 -28.482  17.139  0.00  0.00     0.422 P 
ATOM     58  O1D PAX d         -33.926 -29.702  16.430  0.00  0.00    -0.617 OA
ATOM     59  O2D PAX d         -34.511 -27.204  16.270  0.00  0.00    -0.617 OA
ATOM     60  O3D PAX d         -35.941 -28.780  17.715  0.00  0.00    -0.617 OA
ENDBRANCH  56  57
ENDBRANCH  53  56
ENDBRANCH  44  53
BRANCH  47  61
ATOM     61  N1T PAX d         -29.624 -29.340  18.796  0.00  0.00    -0.282 N 
ATOM     62  C6T PAX d         -30.435 -30.344  18.208  0.00  0.00    -0.002 A 
ATOM     63  C5T PAX d         -30.138 -31.663  18.269  0.00  0.00     0.022 A 
ATOM     64  H19 PAX d         -31.340 -30.039  17.683  0.00  0.00     0.113 H 
ATOM     65  C4T PAX d         -28.921 -32.085  18.971  0.00  0.00     0.256 A 
ATOM     66  N3T PAX d         -28.159 -31.044  19.537  0.00  0.00    -0.275 N 
ATOM     67  O4T PAX d         -28.518 -33.244  19.093  0.00  0.00    -0.267 OA
ATOM     68  C2T PAX d         -28.438 -29.679  19.493  0.00  0.00     0.331 A 
ATOM     69  H20 PAX d         -27.327 -31.313  20.023  0.00  0.00     0.173 HD
ATOM     70  O2T PAX d         -27.716 -28.859  20.011  0.00  0.00    -0.246 OA
BRANCH  63  71
ATOM     71  CM5 PAX d         -31.040 -32.664  17.619  0.00  0.00    -0.045 C 
ATOM     72  H21 PAX d         -31.815 -32.976  18.334  0.00  0.00     0.033 H 
ATOM     73  H22 PAX d         -30.453 -33.541  17.310  0.00  0.00     0.033 H 
ATOM     74  H23 PAX d         -31.516 -32.211  16.737  0.00  0.00     0.033 H 
ENDBRANCH  63  71
ENDBRANCH  47  61
ENDBRANCH  42  43
ENDBRANCH  39  42
ENDBRANCH  38  39
ENDBRANCH   1  38
TORSDOF 16
ENDMDL
