MODEL 1
REMARK VINA RESULT:      -4.8      0.000      0.000
REMARK  5 active torsions:
REMARK  status: ('A' for Active; 'I' for Inactive)
REMARK    1  A    between atoms: C11_2  and  O1_3 
REMARK    2  A    between atoms: C11_2  and  C13_14 
REMARK    3  A    between atoms: O1_3  and  C2_4 
REMARK    4  A    between atoms: C7_5  and  C1_6 
REMARK    5  A    between atoms: C3_10  and  C8_11 
ROOT
ATOM      1  C2  M3S d          35.732  40.253  -2.858  0.00  0.00     0.102 A 
ATOM      2  C7  M3S d          35.922  40.642  -1.519  0.00  0.00    -0.027 A 
ATOM      3  C6  M3S d          36.379  39.697  -0.597  0.00  0.00    -0.074 A 
ATOM      4  C5  M3S d          36.648  38.385  -1.004  0.00  0.00    -0.081 A 
ATOM      5  C4  M3S d          36.458  37.999  -2.343  0.00  0.00    -0.064 A 
ATOM      6  C3  M3S d          35.996  38.949  -3.260  0.00  0.00     0.075 A 
ATOM      7  H4  M3S d          36.525  39.981   0.438  0.00  0.00     0.084 H 
ATOM      8  H5  M3S d          37.005  37.661  -0.281  0.00  0.00     0.083 H 
ATOM      9  H6  M3S d          36.665  36.983  -2.658  0.00  0.00     0.085 H 
ENDROOT
BRANCH   1  10
ATOM     10  O1  M3S d          35.277  41.234  -3.715  0.00  0.00    -0.278 OA
BRANCH  10  11
ATOM     11  C11 M3S d          36.133  41.739  -4.622  0.00  0.00     0.260 C 
ATOM     12  O12 M3S d          35.685  41.953  -5.745  0.00  0.00    -0.265 OA
BRANCH  11  13
ATOM     13  C13 M3S d          37.522  42.045  -4.148  0.00  0.00     0.004 C 
ATOM     14  H7  M3S d          37.957  42.839  -4.773  0.00  0.00     0.041 H 
ATOM     15  H8  M3S d          38.142  41.140  -4.220  0.00  0.00     0.041 H 
ATOM     16  H9  M3S d          37.486  42.382  -3.101  0.00  0.00     0.041 H 
ENDBRANCH  11  13
ENDBRANCH  10  11
ENDBRANCH   1  10
BRANCH   2  17
ATOM     17  C1  M3S d          35.622  42.086  -1.117  0.00  0.00    -0.049 C 
ATOM     18  H1  M3S d          34.969  42.549  -1.872  0.00  0.00     0.033 H 
ATOM     19  H2  M3S d          36.564  42.651  -1.050  0.00  0.00     0.033 H 
ATOM     20  H3  M3S d          35.118  42.097  -0.139  0.00  0.00     0.033 H 
ENDBRANCH   2  17
BRANCH   6  21
ATOM     21  C8  M3S d          35.797  38.480  -4.757  0.00  0.00     0.212 C 
ATOM     22  O10 M3S d          34.557  38.447  -5.179  0.00  0.00    -0.644 OA
ATOM     23  O9  M3S d          36.899  38.236  -5.387  0.00  0.00    -0.644 OA
ENDBRANCH   6  21
TORSDOF 5
ENDMDL
MODEL 2
REMARK VINA RESULT:      -4.7      2.004      4.634
REMARK  5 active torsions:
REMARK  status: ('A' for Active; 'I' for Inactive)
REMARK    1  A    between atoms: C11_2  and  O1_3 
REMARK    2  A    between atoms: C11_2  and  C13_14 
REMARK    3  A    between atoms: O1_3  and  C2_4 
REMARK    4  A    between atoms: C7_5  and  C1_6 
REMARK    5  A    between atoms: C3_10  and  C8_11 
ROOT
ATOM      1  C2  M3S d          36.413  40.091  -4.036  0.00  0.00     0.102 A 
ATOM      2  C7  M3S d          36.032  39.266  -5.109  0.00  0.00    -0.027 A 
ATOM      3  C6  M3S d          35.286  39.816  -6.155  0.00  0.00    -0.074 A 
ATOM      4  C5  M3S d          34.930  41.169  -6.135  0.00  0.00    -0.081 A 
ATOM      5  C4  M3S d          35.313  41.993  -5.061  0.00  0.00    -0.064 A 
ATOM      6  C3  M3S d          36.056  41.435  -4.015  0.00  0.00     0.075 A 
ATOM      7  H4  M3S d          34.981  39.191  -6.986  0.00  0.00     0.084 H 
ATOM      8  H5  M3S d          34.354  41.586  -6.953  0.00  0.00     0.083 H 
ATOM      9  H6  M3S d          35.037  43.041  -5.044  0.00  0.00     0.085 H 
ENDROOT
BRANCH   1  10
ATOM     10  O1  M3S d          37.145  39.486  -3.036  0.00  0.00    -0.278 OA
BRANCH  10  11
ATOM     11  C11 M3S d          36.483  38.835  -2.061  0.00  0.00     0.260 C 
ATOM     12  O12 M3S d          35.327  39.189  -1.846  0.00  0.00    -0.265 OA
BRANCH  11  13
ATOM     13  C13 M3S d          37.205  37.707  -1.387  0.00  0.00     0.004 C 
ATOM     14  H7  M3S d          36.762  36.749  -1.700  0.00  0.00     0.041 H 
ATOM     15  H8  M3S d          37.116  37.814  -0.297  0.00  0.00     0.041 H 
ATOM     16  H9  M3S d          38.267  37.729  -1.672  0.00  0.00     0.041 H 
ENDBRANCH  11  13
ENDBRANCH  10  11
ENDBRANCH   1  10
BRANCH   2  17
ATOM     17  C1  M3S d          36.445  37.795  -5.096  0.00  0.00    -0.049 C 
ATOM     18  H1  M3S d          36.400  37.410  -4.066  0.00  0.00     0.033 H 
ATOM     19  H2  M3S d          37.472  37.699  -5.479  0.00  0.00     0.033 H 
ATOM     20  H3  M3S d          35.761  37.216  -5.735  0.00  0.00     0.033 H 
ENDBRANCH   2  17
BRANCH   6  21
ATOM     21  C8  M3S d          36.472  42.391  -2.826  0.00  0.00     0.212 C 
ATOM     22  O10 M3S d          35.701  42.346  -1.767  0.00  0.00    -0.644 OA
ATOM     23  O9  M3S d          37.557  43.062  -3.039  0.00  0.00    -0.644 OA
ENDBRANCH   6  21
TORSDOF 5
ENDMDL
MODEL 3
REMARK VINA RESULT:      -4.6      1.830      3.342
REMARK  5 active torsions:
REMARK  status: ('A' for Active; 'I' for Inactive)
REMARK    1  A    between atoms: C11_2  and  O1_3 
REMARK    2  A    between atoms: C11_2  and  C13_14 
REMARK    3  A    between atoms: O1_3  and  C2_4 
REMARK    4  A    between atoms: C7_5  and  C1_6 
REMARK    5  A    between atoms: C3_10  and  C8_11 
ROOT
ATOM      1  C2  M3S d          36.614  39.991  -2.928  0.00  0.00     0.102 A 
ATOM      2  C7  M3S d          36.573  38.642  -2.533  0.00  0.00    -0.027 A 
ATOM      3  C6  M3S d          36.306  37.663  -3.494  0.00  0.00    -0.074 A 
ATOM      4  C5  M3S d          36.090  38.022  -4.829  0.00  0.00    -0.081 A 
ATOM      5  C4  M3S d          36.133  39.372  -5.222  0.00  0.00    -0.064 A 
ATOM      6  C3  M3S d          36.397  40.347  -4.254  0.00  0.00     0.075 A 
ATOM      7  H4  M3S d          36.266  36.620  -3.204  0.00  0.00     0.084 H 
ATOM      8  H5  M3S d          35.888  37.254  -5.567  0.00  0.00     0.083 H 
ATOM      9  H6  M3S d          35.966  39.651  -6.255  0.00  0.00     0.085 H 
ENDROOT
BRANCH   1  10
ATOM     10  O1  M3S d          36.879  40.906  -1.931  0.00  0.00    -0.278 OA
BRANCH  10  11
ATOM     11  C11 M3S d          35.889  41.729  -1.536  0.00  0.00     0.260 C 
ATOM     12  O12 M3S d          34.768  41.239  -1.441  0.00  0.00    -0.265 OA
BRANCH  11  13
ATOM     13  C13 M3S d          36.274  43.137  -1.193  0.00  0.00     0.004 C 
ATOM     14  H7  M3S d          35.854  43.824  -1.942  0.00  0.00     0.041 H 
ATOM     15  H8  M3S d          37.369  43.227  -1.187  0.00  0.00     0.041 H 
ATOM     16  H9  M3S d          35.879  43.393  -0.199  0.00  0.00     0.041 H 
ENDBRANCH  11  13
ENDBRANCH  10  11
ENDBRANCH   1  10
BRANCH   2  17
ATOM     17  C1  M3S d          36.819  38.290  -1.066  0.00  0.00    -0.049 C 
ATOM     18  H1  M3S d          37.585  37.502  -1.001  0.00  0.00     0.033 H 
ATOM     19  H2  M3S d          35.883  37.930  -0.613  0.00  0.00     0.033 H 
ATOM     20  H3  M3S d          37.166  39.185  -0.528  0.00  0.00     0.033 H 
ENDBRANCH   2  17
BRANCH   6  21
ATOM     21  C8  M3S d          36.440  41.854  -4.732  0.00  0.00     0.212 C 
ATOM     22  O10 M3S d          35.338  42.309  -5.274  0.00  0.00    -0.644 OA
ATOM     23  O9  M3S d          37.554  42.459  -4.477  0.00  0.00    -0.644 OA
ENDBRANCH   6  21
TORSDOF 5
ENDMDL
MODEL 4
REMARK VINA RESULT:      -4.6      1.430      2.210
REMARK  5 active torsions:
REMARK  status: ('A' for Active; 'I' for Inactive)
REMARK    1  A    between atoms: C11_2  and  O1_3 
REMARK    2  A    between atoms: C11_2  and  C13_14 
REMARK    3  A    between atoms: O1_3  and  C2_4 
REMARK    4  A    between atoms: C7_5  and  C1_6 
REMARK    5  A    between atoms: C3_10  and  C8_11 
ROOT
ATOM      1  C2  M3S d          35.869  40.869  -2.471  0.00  0.00     0.102 A 
ATOM      2  C7  M3S d          36.128  40.335  -1.195  0.00  0.00    -0.027 A 
ATOM      3  C6  M3S d          36.440  38.978  -1.080  0.00  0.00    -0.074 A 
ATOM      4  C5  M3S d          36.500  38.166  -2.218  0.00  0.00    -0.081 A 
ATOM      5  C4  M3S d          36.241  38.703  -3.492  0.00  0.00    -0.064 A 
ATOM      6  C3  M3S d          35.926  40.061  -3.601  0.00  0.00     0.075 A 
ATOM      7  H4  M3S d          36.637  38.552  -0.103  0.00  0.00     0.084 H 
ATOM      8  H5  M3S d          36.746  37.116  -2.117  0.00  0.00     0.083 H 
ATOM      9  H6  M3S d          36.287  38.074  -4.374  0.00  0.00     0.085 H 
ENDROOT
BRANCH   1  10
ATOM     10  O1  M3S d          35.565  42.214  -2.515  0.00  0.00    -0.278 OA
BRANCH  10  11
ATOM     11  C11 M3S d          36.568  43.102  -2.385  0.00  0.00     0.260 C 
ATOM     12  O12 M3S d          37.557  42.927  -3.091  0.00  0.00    -0.265 OA
BRANCH  11  13
ATOM     13  C13 M3S d          36.344  44.245  -1.441  0.00  0.00     0.004 C 
ATOM     14  H7  M3S d          37.311  44.586  -1.042  0.00  0.00     0.041 H 
ATOM     15  H8  M3S d          35.702  43.915  -0.612  0.00  0.00     0.041 H 
ATOM     16  H9  M3S d          35.855  45.073  -1.976  0.00  0.00     0.041 H 
ENDBRANCH  11  13
ENDBRANCH  10  11
ENDBRANCH   1  10
BRANCH   2  17
ATOM     17  C1  M3S d          36.058  41.256   0.022  0.00  0.00    -0.049 C 
ATOM     18  H1  M3S d          35.646  40.702   0.879  0.00  0.00     0.033 H 
ATOM     19  H2  M3S d          35.410  42.116  -0.205  0.00  0.00     0.033 H 
ATOM     20  H3  M3S d          37.069  41.615   0.269  0.00  0.00     0.033 H 
ENDBRANCH   2  17
BRANCH   6  21
ATOM     21  C8  M3S d          35.644  40.630  -5.049  0.00  0.00     0.212 C 
ATOM     22  O10 M3S d          36.217  41.774  -5.329  0.00  0.00    -0.644 OA
ATOM     23  O9  M3S d          34.917  39.859  -5.790  0.00  0.00    -0.644 OA
ENDBRANCH   6  21
TORSDOF 5
ENDMDL
MODEL 5
REMARK VINA RESULT:      -4.4      1.383      3.363
REMARK  5 active torsions:
REMARK  status: ('A' for Active; 'I' for Inactive)
REMARK    1  A    between atoms: C11_2  and  O1_3 
REMARK    2  A    between atoms: C11_2  and  C13_14 
REMARK    3  A    between atoms: O1_3  and  C2_4 
REMARK    4  A    between atoms: C7_5  and  C1_6 
REMARK    5  A    between atoms: C3_10  and  C8_11 
ROOT
ATOM      1  C2  M3S d          35.905  40.734  -2.478  0.00  0.00     0.102 A 
ATOM      2  C7  M3S d          36.038  40.628  -1.081  0.00  0.00    -0.027 A 
ATOM      3  C6  M3S d          36.418  41.756  -0.349  0.00  0.00    -0.074 A 
ATOM      4  C5  M3S d          36.656  42.973  -0.998  0.00  0.00    -0.081 A 
ATOM      5  C4  M3S d          36.521  43.077  -2.394  0.00  0.00    -0.064 A 
ATOM      6  C3  M3S d          36.145  41.943  -3.121  0.00  0.00     0.075 A 
ATOM      7  H4  M3S d          36.528  41.688   0.726  0.00  0.00     0.084 H 
ATOM      8  H5  M3S d          36.946  43.842  -0.420  0.00  0.00     0.083 H 
ATOM      9  H6  M3S d          36.706  44.018  -2.897  0.00  0.00     0.085 H 
ENDROOT
BRANCH   1  10
ATOM     10  O1  M3S d          35.531  39.583  -3.140  0.00  0.00    -0.278 OA
BRANCH  10  11
ATOM     11  C11 M3S d          36.442  38.962  -3.912  0.00  0.00     0.260 C 
ATOM     12  O12 M3S d          37.556  38.793  -3.425  0.00  0.00    -0.265 OA
BRANCH  11  13
ATOM     13  C13 M3S d          35.981  38.490  -5.258  0.00  0.00     0.004 C 
ATOM     14  H7  M3S d          36.684  38.837  -6.030  0.00  0.00     0.041 H 
ATOM     15  H8  M3S d          34.980  38.894  -5.466  0.00  0.00     0.041 H 
ATOM     16  H9  M3S d          35.941  37.390  -5.267  0.00  0.00     0.041 H 
ENDBRANCH  11  13
ENDBRANCH  10  11
ENDBRANCH   1  10
BRANCH   2  17
ATOM     17  C1  M3S d          35.764  39.282  -0.410  0.00  0.00    -0.049 C 
ATOM     18  H1  M3S d          36.718  38.784  -0.184  0.00  0.00     0.033 H 
ATOM     19  H2  M3S d          35.170  38.649  -1.087  0.00  0.00     0.033 H 
ATOM     20  H3  M3S d          35.204  39.445   0.523  0.00  0.00     0.033 H 
ENDBRANCH   2  17
BRANCH   6  21
ATOM     21  C8  M3S d          36.001  42.097  -4.689  0.00  0.00     0.212 C 
ATOM     22  O10 M3S d          34.774  42.096  -5.147  0.00  0.00    -0.644 OA
ATOM     23  O9  M3S d          37.123  42.253  -5.311  0.00  0.00    -0.644 OA
ENDBRANCH   6  21
TORSDOF 5
ENDMDL
MODEL 6
REMARK VINA RESULT:      -4.3      1.364      3.332
REMARK  5 active torsions:
REMARK  status: ('A' for Active; 'I' for Inactive)
REMARK    1  A    between atoms: C11_2  and  O1_3 
REMARK    2  A    between atoms: C11_2  and  C13_14 
REMARK    3  A    between atoms: O1_3  and  C2_4 
REMARK    4  A    between atoms: C7_5  and  C1_6 
REMARK    5  A    between atoms: C3_10  and  C8_11 
ROOT
ATOM      1  C2  M3S d          35.986  39.828  -3.160  0.00  0.00     0.102 A 
ATOM      2  C7  M3S d          36.353  38.640  -3.818  0.00  0.00    -0.027 A 
ATOM      3  C6  M3S d          36.968  37.622  -3.085  0.00  0.00    -0.074 A 
ATOM      4  C5  M3S d          37.206  37.781  -1.715  0.00  0.00    -0.081 A 
ATOM      5  C4  M3S d          36.837  38.969  -1.059  0.00  0.00    -0.064 A 
ATOM      6  C3  M3S d          36.226  39.987  -1.800  0.00  0.00     0.075 A 
ATOM      7  H4  M3S d          37.261  36.704  -3.579  0.00  0.00     0.084 H 
ATOM      8  H5  M3S d          37.680  36.983  -1.155  0.00  0.00     0.083 H 
ATOM      9  H6  M3S d          37.022  39.094   0.001  0.00  0.00     0.085 H 
ENDROOT
BRANCH   1  10
ATOM     10  O1  M3S d          35.387  40.794  -3.942  0.00  0.00    -0.278 OA
BRANCH  10  11
ATOM     11  C11 M3S d          36.175  41.628  -4.646  0.00  0.00     0.260 C 
ATOM     12  O12 M3S d          35.730  42.040  -5.714  0.00  0.00    -0.265 OA
BRANCH  11  13
ATOM     13  C13 M3S d          37.482  42.015  -4.021  0.00  0.00     0.004 C 
ATOM     14  H7  M3S d          37.469  43.088  -3.778  0.00  0.00     0.041 H 
ATOM     15  H8  M3S d          38.300  41.807  -4.725  0.00  0.00     0.041 H 
ATOM     16  H9  M3S d          37.634  41.433  -3.099  0.00  0.00     0.041 H 
ENDBRANCH  11  13
ENDBRANCH  10  11
ENDBRANCH   1  10
BRANCH   2  17
ATOM     17  C1  M3S d          36.070  38.503  -5.314  0.00  0.00    -0.049 C 
ATOM     18  H1  M3S d          36.310  39.450  -5.821  0.00  0.00     0.033 H 
ATOM     19  H2  M3S d          35.007  38.265  -5.465  0.00  0.00     0.033 H 
ATOM     20  H3  M3S d          36.689  37.696  -5.732  0.00  0.00     0.033 H 
ENDBRANCH   2  17
BRANCH   6  21
ATOM     21  C8  M3S d          35.822  41.307  -1.029  0.00  0.00     0.212 C 
ATOM     22  O10 M3S d          36.814  41.982  -0.502  0.00  0.00    -0.644 OA
ATOM     23  O9  M3S d          34.558  41.575  -1.063  0.00  0.00    -0.644 OA
ENDBRANCH   6  21
TORSDOF 5
ENDMDL
MODEL 7
REMARK VINA RESULT:      -4.3      1.730      3.581
REMARK  5 active torsions:
REMARK  status: ('A' for Active; 'I' for Inactive)
REMARK    1  A    between atoms: C11_2  and  O1_3 
REMARK    2  A    between atoms: C11_2  and  C13_14 
REMARK    3  A    between atoms: O1_3  and  C2_4 
REMARK    4  A    between atoms: C7_5  and  C1_6 
REMARK    5  A    between atoms: C3_10  and  C8_11 
ROOT
ATOM      1  C2  M3S d          36.270  40.166  -4.303  0.00  0.00     0.102 A 
ATOM      2  C7  M3S d          36.078  41.559  -4.265  0.00  0.00    -0.027 A 
ATOM      3  C6  M3S d          35.316  42.165  -5.267  0.00  0.00    -0.074 A 
ATOM      4  C5  M3S d          34.748  41.395  -6.288  0.00  0.00    -0.081 A 
ATOM      5  C4  M3S d          34.940  40.002  -6.323  0.00  0.00    -0.064 A 
ATOM      6  C3  M3S d          35.708  39.402  -5.320  0.00  0.00     0.075 A 
ATOM      7  H4  M3S d          35.164  43.238  -5.253  0.00  0.00     0.084 H 
ATOM      8  H5  M3S d          34.155  41.875  -7.058  0.00  0.00     0.083 H 
ATOM      9  H6  M3S d          34.501  39.405  -7.114  0.00  0.00     0.085 H 
ENDROOT
BRANCH   1  10
ATOM     10  O1  M3S d          37.034  39.632  -3.287  0.00  0.00    -0.278 OA
BRANCH  10  11
ATOM     11  C11 M3S d          36.406  39.009  -2.272  0.00  0.00     0.260 C 
ATOM     12  O12 M3S d          35.282  39.413  -1.986  0.00  0.00    -0.265 OA
BRANCH  11  13
ATOM     13  C13 M3S d          37.119  37.851  -1.641  0.00  0.00     0.004 C 
ATOM     14  H7  M3S d          36.415  37.285  -1.014  0.00  0.00     0.041 H 
ATOM     15  H8  M3S d          37.946  38.224  -1.020  0.00  0.00     0.041 H 
ATOM     16  H9  M3S d          37.519  37.194  -2.428  0.00  0.00     0.041 H 
ENDBRANCH  11  13
ENDBRANCH  10  11
ENDBRANCH   1  10
BRANCH   2  17
ATOM     17  C1  M3S d          36.710  42.364  -3.130  0.00  0.00    -0.049 C 
ATOM     18  H1  M3S d          35.919  42.768  -2.482  0.00  0.00     0.033 H 
ATOM     19  H2  M3S d          37.298  43.193  -3.552  0.00  0.00     0.033 H 
ATOM     20  H3  M3S d          37.370  41.710  -2.541  0.00  0.00     0.033 H 
ENDBRANCH   2  17
BRANCH   6  21
ATOM     21  C8  M3S d          35.901  37.834  -5.390  0.00  0.00     0.212 C 
ATOM     22  O10 M3S d          34.807  37.136  -5.569  0.00  0.00    -0.644 OA
ATOM     23  O9  M3S d          37.132  37.447  -5.308  0.00  0.00    -0.644 OA
ENDBRANCH   6  21
TORSDOF 5
ENDMDL
MODEL 8
REMARK VINA RESULT:      -4.1      1.836      3.729
REMARK  5 active torsions:
REMARK  status: ('A' for Active; 'I' for Inactive)
REMARK    1  A    between atoms: C11_2  and  O1_3 
REMARK    2  A    between atoms: C11_2  and  C13_14 
REMARK    3  A    between atoms: O1_3  and  C2_4 
REMARK    4  A    between atoms: C7_5  and  C1_6 
REMARK    5  A    between atoms: C3_10  and  C8_11 
ROOT
ATOM      1  C2  M3S d          36.530  39.894  -3.222  0.00  0.00     0.102 A 
ATOM      2  C7  M3S d          36.656  38.501  -3.065  0.00  0.00    -0.027 A 
ATOM      3  C6  M3S d          36.296  37.665  -4.124  0.00  0.00    -0.074 A 
ATOM      4  C5  M3S d          35.824  38.207  -5.325  0.00  0.00    -0.081 A 
ATOM      5  C4  M3S d          35.699  39.599  -5.480  0.00  0.00    -0.064 A 
ATOM      6  C3  M3S d          36.057  40.431  -4.414  0.00  0.00     0.075 A 
ATOM      7  H4  M3S d          36.383  36.590  -4.016  0.00  0.00     0.084 H 
ATOM      8  H5  M3S d          35.551  37.549  -6.142  0.00  0.00     0.083 H 
ATOM      9  H6  M3S d          35.333  40.020  -6.409  0.00  0.00     0.085 H 
ENDROOT
BRANCH   1  10
ATOM     10  O1  M3S d          36.899  40.662  -2.138  0.00  0.00    -0.278 OA
BRANCH  10  11
ATOM     11  C11 M3S d          35.957  40.986  -1.231  0.00  0.00     0.260 C 
ATOM     12  O12 M3S d          34.798  40.690  -1.508  0.00  0.00    -0.265 OA
BRANCH  11  13
ATOM     13  C13 M3S d          36.432  41.616   0.044  0.00  0.00     0.004 C 
ATOM     14  H7  M3S d          37.344  42.199  -0.153  0.00  0.00     0.041 H 
ATOM     15  H8  M3S d          36.650  40.831   0.782  0.00  0.00     0.041 H 
ATOM     16  H9  M3S d          35.649  42.282   0.437  0.00  0.00     0.041 H 
ENDBRANCH  11  13
ENDBRANCH  10  11
ENDBRANCH   1  10
BRANCH   2  17
ATOM     17  C1  M3S d          37.181  37.949  -1.740  0.00  0.00    -0.049 C 
ATOM     18  H1  M3S d          37.997  37.238  -1.937  0.00  0.00     0.033 H 
ATOM     19  H2  M3S d          36.367  37.435  -1.208  0.00  0.00     0.033 H 
ATOM     20  H3  M3S d          37.557  38.777  -1.121  0.00  0.00     0.033 H 
ENDBRANCH   2  17
BRANCH   6  21
ATOM     21  C8  M3S d          35.907  41.991  -4.625  0.00  0.00     0.212 C 
ATOM     22  O10 M3S d          36.664  42.741  -3.863  0.00  0.00    -0.644 OA
ATOM     23  O9  M3S d          35.084  42.322  -5.566  0.00  0.00    -0.644 OA
ENDBRANCH   6  21
TORSDOF 5
ENDMDL
MODEL 9
REMARK VINA RESULT:      -3.3      1.611      3.354
REMARK  5 active torsions:
REMARK  status: ('A' for Active; 'I' for Inactive)
REMARK    1  A    between atoms: C11_2  and  O1_3 
REMARK    2  A    between atoms: C11_2  and  C13_14 
REMARK    3  A    between atoms: O1_3  and  C2_4 
REMARK    4  A    between atoms: C7_5  and  C1_6 
REMARK    5  A    between atoms: C3_10  and  C8_11 
ROOT
ATOM      1  C2  M3S d          35.802  40.163  -2.906  0.00  0.00     0.102 A 
ATOM      2  C7  M3S d          35.965  41.445  -2.349  0.00  0.00    -0.027 A 
ATOM      3  C6  M3S d          36.369  42.496  -3.176  0.00  0.00    -0.074 A 
ATOM      4  C5  M3S d          36.602  42.276  -4.538  0.00  0.00    -0.081 A 
ATOM      5  C4  M3S d          36.437  40.994  -5.093  0.00  0.00    -0.064 A 
ATOM      6  C3  M3S d          36.036  39.945  -4.259  0.00  0.00     0.075 A 
ATOM      7  H4  M3S d          36.504  43.487  -2.760  0.00  0.00     0.084 H 
ATOM      8  H5  M3S d          36.912  43.099  -5.171  0.00  0.00     0.083 H 
ATOM      9  H6  M3S d          36.618  40.822  -6.147  0.00  0.00     0.085 H 
ENDROOT
BRANCH   1  10
ATOM     10  O1  M3S d          35.404  39.171  -2.035  0.00  0.00    -0.278 OA
BRANCH  10  11
ATOM     11  C11 M3S d          36.338  38.580  -1.266  0.00  0.00     0.260 C 
ATOM     12  O12 M3S d          36.273  38.788  -0.058  0.00  0.00    -0.265 OA
BRANCH  11  13
ATOM     13  C13 M3S d          37.317  37.681  -1.960  0.00  0.00     0.004 C 
ATOM     14  H7  M3S d          37.952  37.184  -1.212  0.00  0.00     0.041 H 
ATOM     15  H8  M3S d          37.947  38.278  -2.636  0.00  0.00     0.041 H 
ATOM     16  H9  M3S d          36.772  36.923  -2.541  0.00  0.00     0.041 H 
ENDBRANCH  11  13
ENDBRANCH  10  11
ENDBRANCH   1  10
BRANCH   2  17
ATOM     17  C1  M3S d          35.695  41.645  -0.858  0.00  0.00    -0.049 C 
ATOM     18  H1  M3S d          36.027  40.755  -0.302  0.00  0.00     0.033 H 
ATOM     19  H2  M3S d          34.617  41.797  -0.697  0.00  0.00     0.033 H 
ATOM     20  H3  M3S d          36.247  42.528  -0.501  0.00  0.00     0.033 H 
ENDBRANCH   2  17
BRANCH   6  21
ATOM     21  C8  M3S d          35.858  38.518  -4.917  0.00  0.00     0.212 C 
ATOM     22  O10 M3S d          34.622  38.111  -5.062  0.00  0.00    -0.644 OA
ATOM     23  O9  M3S d          36.967  37.956  -5.274  0.00  0.00    -0.644 OA
ENDBRANCH   6  21
TORSDOF 5
ENDMDL
