REMARK  6 active torsions:
REMARK  status: ('A' for Active; 'I' for Inactive)
REMARK    1  A    between atoms: C2_2  and  O5_5 
REMARK    2  A    between atoms: O5_5  and  C6_6 
REMARK    3  A    between atoms: C11_9  and  N16_12 
REMARK    4  A    between atoms: N16_12  and  C18_13 
REMARK    5  A    between atoms: C23_17  and  C26_19 
REMARK    6  A    between atoms: C29_21  and  C36_25 
REMARK       I    between atoms: C36_25  and  N38_27 
ROOT
ATOM      1  C18 STJ d          20.916  43.819  53.980  0.00  0.00     0.131 A 
ATOM      2  N19 STJ d          22.011  43.368  53.307  0.00  0.00    -0.224 NA
ATOM      3  C20 STJ d          23.265  43.719  53.685  0.00  0.00     0.089 A 
ATOM      4  N22 STJ d          23.447  44.539  54.748  0.00  0.00    -0.241 NA
ATOM      5  C23 STJ d          22.393  45.022  55.455  0.00  0.00     0.072 A 
ATOM      6  C24 STJ d          21.087  44.667  55.073  0.00  0.00    -0.010 A 
ATOM      7  H6  STJ d          24.122  43.344  53.137  0.00  0.00     0.146 H 
ATOM      8  H7  STJ d          20.230  45.045  55.618  0.00  0.00     0.093 H 
ENDROOT
BRANCH   1   9
ATOM      9  N16 STJ d          19.644  43.488  53.635  0.00  0.00    -0.341 N 
ATOM     10  H5  STJ d          18.905  43.943  54.190  0.00  0.00     0.167 HD
BRANCH   9  11
ATOM     11  C11 STJ d          19.207  42.649  52.669  0.00  0.00     0.033 A 
ATOM     12  C9  STJ d          20.018  42.080  51.683  0.00  0.00    -0.055 A 
ATOM     13  C7  STJ d          19.474  41.232  50.714  0.00  0.00    -0.048 A 
ATOM     14  H2  STJ d          21.080  42.299  51.670  0.00  0.00     0.087 H 
ATOM     15  C6  STJ d          18.089  40.954  50.717  0.00  0.00     0.078 A 
ATOM     16  H1  STJ d          20.115  40.788  49.961  0.00  0.00     0.087 H 
ATOM     17  C14 STJ d          17.273  41.534  51.684  0.00  0.00    -0.048 A 
ATOM     18  C12 STJ d          17.824  42.379  52.655  0.00  0.00    -0.055 A 
ATOM     19  H4  STJ d          16.208  41.331  51.685  0.00  0.00     0.087 H 
ATOM     20  H3  STJ d          17.181  42.830  53.403  0.00  0.00     0.087 H 
BRANCH  15  21
ATOM     21  O5  STJ d          17.515  40.125  49.749  0.00  0.00    -0.255 OA
BRANCH  21  22
ATOM     22  C2  STJ d          17.327  38.750  50.025  0.00  0.00     0.530 C 
ATOM     23  F1  STJ d          16.769  38.212  48.913  0.00  0.00    -0.144 F 
ATOM     24  F3  STJ d          16.512  38.612  51.108  0.00  0.00    -0.144 F 
ATOM     25  F4  STJ d          18.532  38.173  50.275  0.00  0.00    -0.144 F 
ENDBRANCH  21  22
ENDBRANCH  15  21
ENDBRANCH   9  11
ENDBRANCH   1   9
BRANCH   5  26
ATOM     26  C26 STJ d          22.647  45.923  56.602  0.00  0.00    -0.006 A 
ATOM     27  C27 STJ d          23.862  46.616  56.618  0.00  0.00    -0.056 A 
ATOM     28  C29 STJ d          24.187  47.495  57.651  0.00  0.00     0.032 A 
ATOM     29  H8  STJ d          24.567  46.466  55.809  0.00  0.00     0.086 H 
ATOM     30  C30 STJ d          23.277  47.683  58.709  0.00  0.00    -0.068 A 
ATOM     31  C32 STJ d          22.052  46.990  58.705  0.00  0.00    -0.081 A 
ATOM     32  H9  STJ d          23.519  48.358  59.522  0.00  0.00     0.085 H 
ATOM     33  C34 STJ d          21.733  46.109  57.652  0.00  0.00    -0.071 A 
ATOM     34  H10 STJ d          21.349  47.135  59.517  0.00  0.00     0.083 H 
ATOM     35  H11 STJ d          20.788  45.578  57.653  0.00  0.00     0.084 H 
BRANCH  28  36
ATOM     36  C36 STJ d          25.538  48.171  57.525  0.00  0.00     0.249 C 
ATOM     37  O37 STJ d          25.635  49.064  56.699  0.00  0.00    -0.268 OA
ATOM     38  N38 STJ d          26.609  47.782  58.254  0.00  0.00    -0.366 N 
ATOM     39  H12 STJ d          27.485  48.251  58.145  0.00  0.00     0.159 HD
ATOM     40  H13 STJ d          26.524  47.025  58.902  0.00  0.00     0.159 HD
ENDBRANCH  28  36
ENDBRANCH   5  26
TORSDOF 6
