MODEL 1
REMARK VINA RESULT:      -9.4      0.000      0.000
REMARK  6 active torsions:
REMARK  status: ('A' for Active; 'I' for Inactive)
REMARK    1  A    between atoms: C2_2  and  O5_5 
REMARK    2  A    between atoms: O5_5  and  C6_6 
REMARK    3  A    between atoms: C11_9  and  N16_12 
REMARK    4  A    between atoms: N16_12  and  C18_13 
REMARK    5  A    between atoms: C23_17  and  C26_19 
REMARK    6  A    between atoms: C29_21  and  C36_25 
REMARK       I    between atoms: C36_25  and  N38_27 
ROOT
ATOM      1  C18 STJ d          20.952  44.368  54.726  0.00  0.00     0.131 A 
ATOM      2  N19 STJ d          21.022  44.429  56.085  0.00  0.00    -0.224 NA
ATOM      3  C20 STJ d          22.212  44.543  56.725  0.00  0.00     0.089 A 
ATOM      4  N22 STJ d          23.362  44.594  56.012  0.00  0.00    -0.241 NA
ATOM      5  C23 STJ d          23.354  44.536  54.655  0.00  0.00     0.072 A 
ATOM      6  C24 STJ d          22.127  44.415  53.979  0.00  0.00    -0.010 A 
ATOM      7  H6  STJ d          22.243  44.594  57.808  0.00  0.00     0.146 H 
ATOM      8  H7  STJ d          22.096  44.360  52.897  0.00  0.00     0.093 H 
ENDROOT
BRANCH   1   9
ATOM      9  N16 STJ d          19.780  44.257  54.047  0.00  0.00    -0.341 N 
ATOM     10  H5  STJ d          19.073  44.972  54.269  0.00  0.00     0.167 HD
BRANCH   9  11
ATOM     11  C11 STJ d          19.407  43.343  53.123  0.00  0.00     0.033 A 
ATOM     12  C9  STJ d          20.248  42.820  52.137  0.00  0.00    -0.055 A 
ATOM     13  C7  STJ d          19.769  41.887  51.213  0.00  0.00    -0.048 A 
ATOM     14  H2  STJ d          21.283  43.141  52.090  0.00  0.00     0.087 H 
ATOM     15  C6  STJ d          18.419  41.475  51.261  0.00  0.00     0.078 A 
ATOM     16  H1  STJ d          20.435  41.480  50.460  0.00  0.00     0.087 H 
ATOM     17  C14 STJ d          17.571  42.008  52.227  0.00  0.00    -0.048 A 
ATOM     18  C12 STJ d          18.057  42.939  53.154  0.00  0.00    -0.055 A 
ATOM     19  H4  STJ d          16.532  41.702  52.262  0.00  0.00     0.087 H 
ATOM     20  H3  STJ d          17.389  43.353  53.901  0.00  0.00     0.087 H 
BRANCH  15  21
ATOM     21  O5  STJ d          17.909  40.558  50.338  0.00  0.00    -0.255 OA
BRANCH  21  22
ATOM     22  C2  STJ d          17.698  39.214  50.727  0.00  0.00     0.530 C 
ATOM     23  F1  STJ d          18.023  38.453  49.653  0.00  0.00    -0.144 F 
ATOM     24  F3  STJ d          16.394  39.044  51.083  0.00  0.00    -0.144 F 
ATOM     25  F4  STJ d          18.508  38.918  51.777  0.00  0.00    -0.144 F 
ENDBRANCH  21  22
ENDBRANCH  15  21
ENDBRANCH   9  11
ENDBRANCH   1   9
BRANCH   5  26
ATOM     26  C26 STJ d          24.641  44.585  53.924  0.00  0.00    -0.006 A 
ATOM     27  C27 STJ d          24.626  45.123  52.633  0.00  0.00    -0.056 A 
ATOM     28  C29 STJ d          25.789  45.221  51.870  0.00  0.00     0.032 A 
ATOM     29  H8  STJ d          23.688  45.471  52.216  0.00  0.00     0.086 H 
ATOM     30  C30 STJ d          27.007  44.759  52.406  0.00  0.00    -0.068 A 
ATOM     31  C32 STJ d          27.034  44.215  53.703  0.00  0.00    -0.081 A 
ATOM     32  H9  STJ d          27.918  44.823  51.822  0.00  0.00     0.085 H 
ATOM     33  C34 STJ d          25.852  44.126  54.466  0.00  0.00    -0.071 A 
ATOM     34  H10 STJ d          27.970  43.861  54.119  0.00  0.00     0.083 H 
ATOM     35  H11 STJ d          25.878  43.707  55.465  0.00  0.00     0.084 H 
BRANCH  28  36
ATOM     36  C36 STJ d          25.611  45.827  50.492  0.00  0.00     0.249 C 
ATOM     37  O37 STJ d          26.149  45.252  49.561  0.00  0.00    -0.268 OA
ATOM     38  N38 STJ d          24.928  46.979  50.294  0.00  0.00    -0.366 N 
ATOM     39  H12 STJ d          24.831  47.350  49.371  0.00  0.00     0.159 HD
ATOM     40  H13 STJ d          24.522  47.458  51.072  0.00  0.00     0.159 HD
ENDBRANCH  28  36
ENDBRANCH   5  26
TORSDOF 6
ENDMDL
MODEL 2
REMARK VINA RESULT:      -8.5      2.868      4.701
REMARK  6 active torsions:
REMARK  status: ('A' for Active; 'I' for Inactive)
REMARK    1  A    between atoms: C2_2  and  O5_5 
REMARK    2  A    between atoms: O5_5  and  C6_6 
REMARK    3  A    between atoms: C11_9  and  N16_12 
REMARK    4  A    between atoms: N16_12  and  C18_13 
REMARK    5  A    between atoms: C23_17  and  C26_19 
REMARK    6  A    between atoms: C29_21  and  C36_25 
REMARK       I    between atoms: C36_25  and  N38_27 
ROOT
ATOM      1  C18 STJ d          21.006  43.969  53.571  0.00  0.00     0.131 A 
ATOM      2  N19 STJ d          22.244  43.622  53.122  0.00  0.00    -0.224 NA
ATOM      3  C20 STJ d          23.342  43.758  53.905  0.00  0.00     0.089 A 
ATOM      4  N22 STJ d          23.221  44.253  55.160  0.00  0.00    -0.241 NA
ATOM      5  C23 STJ d          22.013  44.618  55.661  0.00  0.00     0.072 A 
ATOM      6  C24 STJ d          20.866  44.484  54.859  0.00  0.00    -0.010 A 
ATOM      7  H6  STJ d          24.317  43.472  53.527  0.00  0.00     0.146 H 
ATOM      8  H7  STJ d          19.892  44.774  55.235  0.00  0.00     0.093 H 
ENDROOT
BRANCH   1   9
ATOM      9  N16 STJ d          19.881  43.845  52.819  0.00  0.00    -0.341 N 
ATOM     10  H5  STJ d          19.415  44.730  52.575  0.00  0.00     0.167 HD
BRANCH   9  11
ATOM     11  C11 STJ d          19.284  42.728  52.344  0.00  0.00     0.033 A 
ATOM     12  C9  STJ d          19.909  41.776  51.534  0.00  0.00    -0.055 A 
ATOM     13  C7  STJ d          19.207  40.656  51.078  0.00  0.00    -0.048 A 
ATOM     14  H2  STJ d          20.949  41.907  51.257  0.00  0.00     0.087 H 
ATOM     15  C6  STJ d          17.848  40.487  51.424  0.00  0.00     0.078 A 
ATOM     16  H1  STJ d          19.705  39.919  50.460  0.00  0.00     0.087 H 
ATOM     17  C14 STJ d          17.214  41.443  52.213  0.00  0.00    -0.048 A 
ATOM     18  C12 STJ d          17.924  42.560  52.671  0.00  0.00    -0.055 A 
ATOM     19  H4  STJ d          16.169  41.322  52.474  0.00  0.00     0.087 H 
ATOM     20  H3  STJ d          17.422  43.302  53.283  0.00  0.00     0.087 H 
BRANCH  15  21
ATOM     21  O5  STJ d          17.116  39.387  50.966  0.00  0.00    -0.255 OA
BRANCH  21  22
ATOM     22  C2  STJ d          16.948  39.186  49.576  0.00  0.00     0.530 C 
ATOM     23  F1  STJ d          16.986  40.415  49.006  0.00  0.00    -0.144 F 
ATOM     24  F3  STJ d          15.756  38.567  49.348  0.00  0.00    -0.144 F 
ATOM     25  F4  STJ d          17.967  38.417  49.107  0.00  0.00    -0.144 F 
ENDBRANCH  21  22
ENDBRANCH  15  21
ENDBRANCH   9  11
ENDBRANCH   1   9
BRANCH   5  26
ATOM     26  C26 STJ d          21.938  45.163  57.036  0.00  0.00    -0.006 A 
ATOM     27  C27 STJ d          22.626  46.353  57.294  0.00  0.00    -0.056 A 
ATOM     28  C29 STJ d          22.607  46.949  58.555  0.00  0.00     0.032 A 
ATOM     29  H8  STJ d          23.188  46.823  56.495  0.00  0.00     0.086 H 
ATOM     30  C30 STJ d          21.886  46.334  59.597  0.00  0.00    -0.068 A 
ATOM     31  C32 STJ d          21.191  45.136  59.350  0.00  0.00    -0.081 A 
ATOM     32  H9  STJ d          21.868  46.782  60.584  0.00  0.00     0.085 H 
ATOM     33  C34 STJ d          21.214  44.547  58.070  0.00  0.00    -0.071 A 
ATOM     34  H10 STJ d          20.634  44.662  60.150  0.00  0.00     0.083 H 
ATOM     35  H11 STJ d          20.676  43.624  57.884  0.00  0.00     0.084 H 
BRANCH  28  36
ATOM     36  C36 STJ d          23.400  48.235  58.676  0.00  0.00     0.249 C 
ATOM     37  O37 STJ d          24.505  48.254  58.159  0.00  0.00    -0.268 OA
ATOM     38  N38 STJ d          22.937  49.305  59.362  0.00  0.00    -0.366 N 
ATOM     39  H12 STJ d          23.487  50.137  59.421  0.00  0.00     0.159 HD
ATOM     40  H13 STJ d          22.044  49.262  59.811  0.00  0.00     0.159 HD
ENDBRANCH  28  36
ENDBRANCH   5  26
TORSDOF 6
ENDMDL
MODEL 3
REMARK VINA RESULT:      -8.2      2.878      4.375
REMARK  6 active torsions:
REMARK  status: ('A' for Active; 'I' for Inactive)
REMARK    1  A    between atoms: C2_2  and  O5_5 
REMARK    2  A    between atoms: O5_5  and  C6_6 
REMARK    3  A    between atoms: C11_9  and  N16_12 
REMARK    4  A    between atoms: N16_12  and  C18_13 
REMARK    5  A    between atoms: C23_17  and  C26_19 
REMARK    6  A    between atoms: C29_21  and  C36_25 
REMARK       I    between atoms: C36_25  and  N38_27 
ROOT
ATOM      1  C18 STJ d          21.131  44.008  53.932  0.00  0.00     0.131 A 
ATOM      2  N19 STJ d          22.210  43.632  53.191  0.00  0.00    -0.224 NA
ATOM      3  C20 STJ d          23.464  43.666  53.704  0.00  0.00     0.089 A 
ATOM      4  N22 STJ d          23.664  44.086  54.976  0.00  0.00    -0.241 NA
ATOM      5  C23 STJ d          22.627  44.476  55.761  0.00  0.00     0.072 A 
ATOM      6  C24 STJ d          21.321  44.447  55.241  0.00  0.00    -0.010 A 
ATOM      7  H6  STJ d          24.308  43.357  53.097  0.00  0.00     0.146 H 
ATOM      8  H7  STJ d          20.478  44.759  55.847  0.00  0.00     0.093 H 
ENDROOT
BRANCH   1   9
ATOM      9  N16 STJ d          19.858  43.985  53.456  0.00  0.00    -0.341 N 
ATOM     10  H5  STJ d          19.245  44.737  53.802  0.00  0.00     0.167 HD
BRANCH   9  11
ATOM     11  C11 STJ d          19.280  43.119  52.593  0.00  0.00     0.033 A 
ATOM     12  C9  STJ d          19.871  42.656  51.415  0.00  0.00    -0.055 A 
ATOM     13  C7  STJ d          19.190  41.770  50.575  0.00  0.00    -0.048 A 
ATOM     14  H2  STJ d          20.869  42.987  51.149  0.00  0.00     0.087 H 
ATOM     15  C6  STJ d          17.884  41.345  50.908  0.00  0.00     0.078 A 
ATOM     16  H1  STJ d          19.663  41.409  49.669  0.00  0.00     0.087 H 
ATOM     17  C14 STJ d          17.282  41.819  52.070  0.00  0.00    -0.048 A 
ATOM     18  C12 STJ d          17.971  42.703  52.910  0.00  0.00    -0.055 A 
ATOM     19  H4  STJ d          16.277  41.503  52.326  0.00  0.00     0.087 H 
ATOM     20  H3  STJ d          17.494  43.070  53.812  0.00  0.00     0.087 H 
BRANCH  15  21
ATOM     21  O5  STJ d          17.173  40.475  50.078  0.00  0.00    -0.255 OA
BRANCH  21  22
ATOM     22  C2  STJ d          17.113  39.096  50.393  0.00  0.00     0.530 C 
ATOM     23  F1  STJ d          16.282  38.986  51.459  0.00  0.00    -0.144 F 
ATOM     24  F3  STJ d          18.364  38.644  50.687  0.00  0.00    -0.144 F 
ATOM     25  F4  STJ d          16.611  38.414  49.330  0.00  0.00    -0.144 F 
ENDBRANCH  21  22
ENDBRANCH  15  21
ENDBRANCH   9  11
ENDBRANCH   1   9
BRANCH   5  26
ATOM     26  C26 STJ d          22.901  44.937  57.141  0.00  0.00    -0.006 A 
ATOM     27  C27 STJ d          23.873  45.930  57.306  0.00  0.00    -0.056 A 
ATOM     28  C29 STJ d          24.193  46.435  58.566  0.00  0.00     0.032 A 
ATOM     29  H8  STJ d          24.388  46.316  56.434  0.00  0.00     0.086 H 
ATOM     30  C30 STJ d          23.533  45.928  59.701  0.00  0.00    -0.068 A 
ATOM     31  C32 STJ d          22.555  44.927  59.548  0.00  0.00    -0.081 A 
ATOM     32  H9  STJ d          23.776  46.306  60.687  0.00  0.00     0.085 H 
ATOM     33  C34 STJ d          22.236  44.430  58.269  0.00  0.00    -0.071 A 
ATOM     34  H10 STJ d          22.044  44.537  60.421  0.00  0.00     0.083 H 
ATOM     35  H11 STJ d          21.482  43.659  58.156  0.00  0.00     0.084 H 
BRANCH  28  36
ATOM     36  C36 STJ d          25.264  47.508  58.580  0.00  0.00     0.249 C 
ATOM     37  O37 STJ d          25.867  47.675  59.628  0.00  0.00    -0.268 OA
ATOM     38  N38 STJ d          25.519  48.286  57.503  0.00  0.00    -0.366 N 
ATOM     39  H12 STJ d          26.233  48.984  57.548  0.00  0.00     0.159 HD
ATOM     40  H13 STJ d          24.993  48.162  56.662  0.00  0.00     0.159 HD
ENDBRANCH  28  36
ENDBRANCH   5  26
TORSDOF 6
ENDMDL
MODEL 4
REMARK VINA RESULT:      -8.1      2.112      2.430
REMARK  6 active torsions:
REMARK  status: ('A' for Active; 'I' for Inactive)
REMARK    1  A    between atoms: C2_2  and  O5_5 
REMARK    2  A    between atoms: O5_5  and  C6_6 
REMARK    3  A    between atoms: C11_9  and  N16_12 
REMARK    4  A    between atoms: N16_12  and  C18_13 
REMARK    5  A    between atoms: C23_17  and  C26_19 
REMARK    6  A    between atoms: C29_21  and  C36_25 
REMARK       I    between atoms: C36_25  and  N38_27 
ROOT
ATOM      1  C18 STJ d          21.861  45.017  56.237  0.00  0.00     0.131 A 
ATOM      2  N19 STJ d          22.288  44.563  57.448  0.00  0.00    -0.224 NA
ATOM      3  C20 STJ d          23.534  44.840  57.905  0.00  0.00     0.089 A 
ATOM      4  N22 STJ d          24.384  45.578  57.151  0.00  0.00    -0.241 NA
ATOM      5  C23 STJ d          24.014  46.055  55.934  0.00  0.00     0.072 A 
ATOM      6  C24 STJ d          22.725  45.773  55.447  0.00  0.00    -0.010 A 
ATOM      7  H6  STJ d          23.851  44.472  58.875  0.00  0.00     0.146 H 
ATOM      8  H7  STJ d          22.409  46.137  54.476  0.00  0.00     0.093 H 
ENDROOT
BRANCH   1   9
ATOM      9  N16 STJ d          20.620  44.763  55.745  0.00  0.00    -0.341 N 
ATOM     10  H5  STJ d          19.842  45.177  56.278  0.00  0.00     0.167 HD
BRANCH   9  11
ATOM     11  C11 STJ d          20.257  44.047  54.657  0.00  0.00     0.033 A 
ATOM     12  C9  STJ d          21.137  43.616  53.659  0.00  0.00    -0.055 A 
ATOM     13  C7  STJ d          20.668  42.890  52.561  0.00  0.00    -0.048 A 
ATOM     14  H2  STJ d          22.193  43.847  53.739  0.00  0.00     0.087 H 
ATOM     15  C6  STJ d          19.291  42.598  52.443  0.00  0.00     0.078 A 
ATOM     16  H1  STJ d          21.361  42.551  51.799  0.00  0.00     0.087 H 
ATOM     17  C14 STJ d          18.407  43.043  53.423  0.00  0.00    -0.048 A 
ATOM     18  C12 STJ d          18.883  43.765  54.524  0.00  0.00    -0.055 A 
ATOM     19  H4  STJ d          17.348  42.829  53.333  0.00  0.00     0.087 H 
ATOM     20  H3  STJ d          18.188  44.111  55.281  0.00  0.00     0.087 H 
BRANCH  15  21
ATOM     21  O5  STJ d          18.791  41.890  51.346  0.00  0.00    -0.255 OA
BRANCH  21  22
ATOM     22  C2  STJ d          18.467  40.520  51.484  0.00  0.00     0.530 C 
ATOM     23  F1  STJ d          17.114  40.446  51.468  0.00  0.00    -0.144 F 
ATOM     24  F3  STJ d          18.978  40.048  52.655  0.00  0.00    -0.144 F 
ATOM     25  F4  STJ d          18.990  39.827  50.438  0.00  0.00    -0.144 F 
ENDBRANCH  21  22
ENDBRANCH  15  21
ENDBRANCH   9  11
ENDBRANCH   1   9
BRANCH   5  26
ATOM     26  C26 STJ d          24.984  46.847  55.145  0.00  0.00    -0.006 A 
ATOM     27  C27 STJ d          24.749  46.968  53.771  0.00  0.00    -0.056 A 
ATOM     28  C29 STJ d          25.602  47.702  52.947  0.00  0.00     0.032 A 
ATOM     29  H8  STJ d          23.885  46.479  53.338  0.00  0.00     0.086 H 
ATOM     30  C30 STJ d          26.732  48.328  53.507  0.00  0.00    -0.068 A 
ATOM     31  C32 STJ d          26.980  48.212  54.887  0.00  0.00    -0.081 A 
ATOM     32  H9  STJ d          27.407  48.897  52.877  0.00  0.00     0.085 H 
ATOM     33  C34 STJ d          26.108  47.472  55.710  0.00  0.00    -0.071 A 
ATOM     34  H10 STJ d          27.848  48.696  55.321  0.00  0.00     0.083 H 
ATOM     35  H11 STJ d          26.302  47.386  56.773  0.00  0.00     0.084 H 
BRANCH  28  36
ATOM     36  C36 STJ d          25.212  47.741  51.483  0.00  0.00     0.249 C 
ATOM     37  O37 STJ d          24.746  48.787  51.062  0.00  0.00    -0.268 OA
ATOM     38  N38 STJ d          25.326  46.659  50.678  0.00  0.00    -0.366 N 
ATOM     39  H12 STJ d          25.060  46.721  49.717  0.00  0.00     0.159 HD
ATOM     40  H13 STJ d          25.677  45.798  51.046  0.00  0.00     0.159 HD
ENDBRANCH  28  36
ENDBRANCH   5  26
TORSDOF 6
ENDMDL
MODEL 5
REMARK VINA RESULT:      -7.8      3.122      4.192
REMARK  6 active torsions:
REMARK  status: ('A' for Active; 'I' for Inactive)
REMARK    1  A    between atoms: C2_2  and  O5_5 
REMARK    2  A    between atoms: O5_5  and  C6_6 
REMARK    3  A    between atoms: C11_9  and  N16_12 
REMARK    4  A    between atoms: N16_12  and  C18_13 
REMARK    5  A    between atoms: C23_17  and  C26_19 
REMARK    6  A    between atoms: C29_21  and  C36_25 
REMARK       I    between atoms: C36_25  and  N38_27 
ROOT
ATOM      1  C18 STJ d          21.991  44.136  53.971  0.00  0.00     0.131 A 
ATOM      2  N19 STJ d          22.847  43.312  53.304  0.00  0.00    -0.224 NA
ATOM      3  C20 STJ d          24.182  43.347  53.536  0.00  0.00     0.089 A 
ATOM      4  N22 STJ d          24.690  44.217  54.441  0.00  0.00    -0.241 NA
ATOM      5  C23 STJ d          23.885  45.065  55.133  0.00  0.00     0.072 A 
ATOM      6  C24 STJ d          22.499  45.040  54.902  0.00  0.00    -0.010 A 
ATOM      7  H6  STJ d          24.844  42.678  52.997  0.00  0.00     0.146 H 
ATOM      8  H7  STJ d          21.837  45.711  55.437  0.00  0.00     0.093 H 
ENDROOT
BRANCH   1   9
ATOM      9  N16 STJ d          20.647  44.130  53.770  0.00  0.00    -0.341 N 
ATOM     10  H5  STJ d          20.126  44.878  54.250  0.00  0.00     0.167 HD
BRANCH   9  11
ATOM     11  C11 STJ d          19.893  43.285  53.030  0.00  0.00     0.033 A 
ATOM     12  C9  STJ d          20.337  42.617  51.886  0.00  0.00    -0.055 A 
ATOM     13  C7  STJ d          19.480  41.771  51.176  0.00  0.00    -0.048 A 
ATOM     14  H2  STJ d          21.358  42.756  51.546  0.00  0.00     0.087 H 
ATOM     15  C6  STJ d          18.146  41.596  51.606  0.00  0.00     0.078 A 
ATOM     16  H1  STJ d          19.840  41.249  50.296  0.00  0.00     0.087 H 
ATOM     17  C14 STJ d          17.692  42.275  52.733  0.00  0.00    -0.048 A 
ATOM     18  C12 STJ d          18.556  43.118  53.443  0.00  0.00    -0.055 A 
ATOM     19  H4  STJ d          16.666  42.152  53.061  0.00  0.00     0.087 H 
ATOM     20  H3  STJ d          18.193  43.646  54.318  0.00  0.00     0.087 H 
BRANCH  15  21
ATOM     21  O5  STJ d          17.262  40.772  50.904  0.00  0.00    -0.255 OA
BRANCH  21  22
ATOM     22  C2  STJ d          17.032  39.449  51.351  0.00  0.00     0.530 C 
ATOM     23  F1  STJ d          16.911  38.687  50.237  0.00  0.00    -0.144 F 
ATOM     24  F3  STJ d          15.896  39.415  52.103  0.00  0.00    -0.144 F 
ATOM     25  F4  STJ d          18.092  39.035  52.094  0.00  0.00    -0.144 F 
ENDBRANCH  21  22
ENDBRANCH  15  21
ENDBRANCH   9  11
ENDBRANCH   1   9
BRANCH   5  26
ATOM     26  C26 STJ d          24.493  46.004  56.103  0.00  0.00    -0.006 A 
ATOM     27  C27 STJ d          23.634  46.643  57.003  0.00  0.00    -0.056 A 
ATOM     28  C29 STJ d          24.113  47.536  57.961  0.00  0.00     0.032 A 
ATOM     29  H8  STJ d          22.571  46.439  56.955  0.00  0.00     0.086 H 
ATOM     30  C30 STJ d          25.493  47.811  58.018  0.00  0.00    -0.068 A 
ATOM     31  C32 STJ d          26.368  47.176  57.116  0.00  0.00    -0.081 A 
ATOM     32  H9  STJ d          25.879  48.509  58.753  0.00  0.00     0.085 H 
ATOM     33  C34 STJ d          25.871  46.270  56.157  0.00  0.00    -0.071 A 
ATOM     34  H10 STJ d          27.430  47.384  57.160  0.00  0.00     0.083 H 
ATOM     35  H11 STJ d          26.548  45.783  55.466  0.00  0.00     0.084 H 
BRANCH  28  36
ATOM     36  C36 STJ d          23.059  48.145  58.864  0.00  0.00     0.249 C 
ATOM     37  O37 STJ d          22.108  47.440  59.158  0.00  0.00    -0.268 OA
ATOM     38  N38 STJ d          23.131  49.426  59.293  0.00  0.00    -0.366 N 
ATOM     39  H12 STJ d          22.417  49.794  59.888  0.00  0.00     0.159 HD
ATOM     40  H13 STJ d          23.898  50.004  59.015  0.00  0.00     0.159 HD
ENDBRANCH  28  36
ENDBRANCH   5  26
TORSDOF 6
ENDMDL
MODEL 6
REMARK VINA RESULT:      -6.9      3.736      5.001
REMARK  6 active torsions:
REMARK  status: ('A' for Active; 'I' for Inactive)
REMARK    1  A    between atoms: C2_2  and  O5_5 
REMARK    2  A    between atoms: O5_5  and  C6_6 
REMARK    3  A    between atoms: C11_9  and  N16_12 
REMARK    4  A    between atoms: N16_12  and  C18_13 
REMARK    5  A    between atoms: C23_17  and  C26_19 
REMARK    6  A    between atoms: C29_21  and  C36_25 
REMARK       I    between atoms: C36_25  and  N38_27 
ROOT
ATOM      1  C18 STJ d          23.854  44.418  54.044  0.00  0.00     0.131 A 
ATOM      2  N19 STJ d          24.469  44.511  52.832  0.00  0.00    -0.224 NA
ATOM      3  C20 STJ d          25.356  45.501  52.566  0.00  0.00     0.089 A 
ATOM      4  N22 STJ d          25.642  46.427  53.513  0.00  0.00    -0.241 NA
ATOM      5  C23 STJ d          25.057  46.386  54.738  0.00  0.00     0.072 A 
ATOM      6  C24 STJ d          24.134  45.366  55.027  0.00  0.00    -0.010 A 
ATOM      7  H6  STJ d          25.837  45.553  51.596  0.00  0.00     0.146 H 
ATOM      8  H7  STJ d          23.650  45.317  55.995  0.00  0.00     0.093 H 
ENDROOT
BRANCH   1   9
ATOM      9  N16 STJ d          22.962  43.440  54.351  0.00  0.00    -0.341 N 
ATOM     10  H5  STJ d          23.323  42.689  54.956  0.00  0.00     0.167 HD
BRANCH   9  11
ATOM     11  C11 STJ d          21.669  43.309  53.977  0.00  0.00     0.033 A 
ATOM     12  C9  STJ d          20.573  43.496  54.825  0.00  0.00    -0.055 A 
ATOM     13  C7  STJ d          19.269  43.325  54.352  0.00  0.00    -0.048 A 
ATOM     14  H2  STJ d          20.737  43.776  55.859  0.00  0.00     0.087 H 
ATOM     15  C6  STJ d          19.049  42.946  53.009  0.00  0.00     0.078 A 
ATOM     16  H1  STJ d          18.427  43.484  55.016  0.00  0.00     0.087 H 
ATOM     17  C14 STJ d          20.136  42.739  52.166  0.00  0.00    -0.048 A 
ATOM     18  C12 STJ d          21.441  42.916  52.643  0.00  0.00    -0.055 A 
ATOM     19  H4  STJ d          19.973  42.439  51.137  0.00  0.00     0.087 H 
ATOM     20  H3  STJ d          22.283  42.749  51.981  0.00  0.00     0.087 H 
BRANCH  15  21
ATOM     21  O5  STJ d          17.756  42.750  52.515  0.00  0.00    -0.255 OA
BRANCH  21  22
ATOM     22  C2  STJ d          17.444  41.557  51.820  0.00  0.00     0.530 C 
ATOM     23  F1  STJ d          18.239  40.593  52.345  0.00  0.00    -0.144 F 
ATOM     24  F3  STJ d          17.684  41.731  50.490  0.00  0.00    -0.144 F 
ATOM     25  F4  STJ d          16.135  41.250  52.019  0.00  0.00    -0.144 F 
ENDBRANCH  21  22
ENDBRANCH  15  21
ENDBRANCH   9  11
ENDBRANCH   1   9
BRANCH   5  26
ATOM     26  C26 STJ d          25.397  47.429  55.733  0.00  0.00    -0.006 A 
ATOM     27  C27 STJ d          24.710  47.402  56.951  0.00  0.00    -0.056 A 
ATOM     28  C29 STJ d          24.968  48.336  57.955  0.00  0.00     0.032 A 
ATOM     29  H8  STJ d          23.959  46.639  57.119  0.00  0.00     0.086 H 
ATOM     30  C30 STJ d          25.935  49.336  57.735  0.00  0.00    -0.068 A 
ATOM     31  C32 STJ d          26.632  49.374  56.513  0.00  0.00    -0.081 A 
ATOM     32  H9  STJ d          26.141  50.072  58.503  0.00  0.00     0.085 H 
ATOM     33  C34 STJ d          26.366  48.420  55.509  0.00  0.00    -0.071 A 
ATOM     34  H10 STJ d          27.378  50.141  56.342  0.00  0.00     0.083 H 
ATOM     35  H11 STJ d          26.906  48.453  54.570  0.00  0.00     0.084 H 
BRANCH  28  36
ATOM     36  C36 STJ d          24.143  48.175  59.216  0.00  0.00     0.249 C 
ATOM     37  O37 STJ d          24.335  47.168  59.879  0.00  0.00    -0.268 OA
ATOM     38  N38 STJ d          23.200  49.074  59.580  0.00  0.00    -0.366 N 
ATOM     39  H12 STJ d          22.675  48.936  60.419  0.00  0.00     0.159 HD
ATOM     40  H13 STJ d          23.028  49.877  59.009  0.00  0.00     0.159 HD
ENDBRANCH  28  36
ENDBRANCH   5  26
TORSDOF 6
ENDMDL
MODEL 7
REMARK VINA RESULT:      -6.8      5.565      9.229
REMARK  6 active torsions:
REMARK  status: ('A' for Active; 'I' for Inactive)
REMARK    1  A    between atoms: C2_2  and  O5_5 
REMARK    2  A    between atoms: O5_5  and  C6_6 
REMARK    3  A    between atoms: C11_9  and  N16_12 
REMARK    4  A    between atoms: N16_12  and  C18_13 
REMARK    5  A    between atoms: C23_17  and  C26_19 
REMARK    6  A    between atoms: C29_21  and  C36_25 
REMARK       I    between atoms: C36_25  and  N38_27 
ROOT
ATOM      1  C18 STJ d          21.171  44.151  55.460  0.00  0.00     0.131 A 
ATOM      2  N19 STJ d          22.341  44.190  54.763  0.00  0.00    -0.224 NA
ATOM      3  C20 STJ d          22.429  43.691  53.506  0.00  0.00     0.089 A 
ATOM      4  N22 STJ d          21.341  43.134  52.921  0.00  0.00    -0.241 NA
ATOM      5  C23 STJ d          20.150  43.065  53.568  0.00  0.00     0.072 A 
ATOM      6  C24 STJ d          20.045  43.577  54.873  0.00  0.00    -0.010 A 
ATOM      7  H6  STJ d          23.369  43.737  52.968  0.00  0.00     0.146 H 
ATOM      8  H7  STJ d          19.106  43.527  55.412  0.00  0.00     0.093 H 
ENDROOT
BRANCH   1   9
ATOM      9  N16 STJ d          21.041  44.643  56.721  0.00  0.00    -0.341 N 
ATOM     10  H5  STJ d          20.147  44.430  57.186  0.00  0.00     0.167 HD
BRANCH   9  11
ATOM     11  C11 STJ d          21.914  45.370  57.453  0.00  0.00     0.033 A 
ATOM     12  C9  STJ d          21.873  46.760  57.590  0.00  0.00    -0.055 A 
ATOM     13  C7  STJ d          22.829  47.430  58.359  0.00  0.00    -0.048 A 
ATOM     14  H2  STJ d          21.091  47.325  57.094  0.00  0.00     0.087 H 
ATOM     15  C6  STJ d          23.858  46.702  58.996  0.00  0.00     0.078 A 
ATOM     16  H1  STJ d          22.780  48.508  58.467  0.00  0.00     0.087 H 
ATOM     17  C14 STJ d          23.917  45.319  58.846  0.00  0.00    -0.048 A 
ATOM     18  C12 STJ d          22.954  44.653  58.079  0.00  0.00    -0.055 A 
ATOM     19  H4  STJ d          24.710  44.757  59.326  0.00  0.00     0.087 H 
ATOM     20  H3  STJ d          23.008  43.576  57.964  0.00  0.00     0.087 H 
BRANCH  15  21
ATOM     21  O5  STJ d          24.838  47.347  59.755  0.00  0.00    -0.255 OA
BRANCH  21  22
ATOM     22  C2  STJ d          26.164  47.428  59.267  0.00  0.00     0.530 C 
ATOM     23  F1  STJ d          26.660  48.609  59.709  0.00  0.00    -0.144 F 
ATOM     24  F3  STJ d          26.150  47.371  57.906  0.00  0.00    -0.144 F 
ATOM     25  F4  STJ d          26.891  46.394  59.767  0.00  0.00    -0.144 F 
ENDBRANCH  21  22
ENDBRANCH  15  21
ENDBRANCH   9  11
ENDBRANCH   1   9
BRANCH   5  26
ATOM     26  C26 STJ d          18.995  42.437  52.887  0.00  0.00    -0.006 A 
ATOM     27  C27 STJ d          19.267  41.412  51.973  0.00  0.00    -0.056 A 
ATOM     28  C29 STJ d          18.245  40.754  51.290  0.00  0.00     0.032 A 
ATOM     29  H8  STJ d          20.296  41.125  51.793  0.00  0.00     0.086 H 
ATOM     30  C30 STJ d          16.908  41.134  51.515  0.00  0.00    -0.068 A 
ATOM     31  C32 STJ d          16.622  42.164  52.431  0.00  0.00    -0.081 A 
ATOM     32  H9  STJ d          16.104  40.635  50.987  0.00  0.00     0.085 H 
ATOM     33  C34 STJ d          17.663  42.818  53.119  0.00  0.00    -0.071 A 
ATOM     34  H10 STJ d          15.593  42.457  52.607  0.00  0.00     0.083 H 
ATOM     35  H11 STJ d          17.438  43.610  53.824  0.00  0.00     0.084 H 
BRANCH  28  36
ATOM     36  C36 STJ d          18.699  39.667  50.336  0.00  0.00     0.249 C 
ATOM     37  O37 STJ d          19.668  39.914  49.637  0.00  0.00    -0.268 OA
ATOM     38  N38 STJ d          18.043  38.490  50.221  0.00  0.00    -0.366 N 
ATOM     39  H12 STJ d          18.372  37.795  49.581  0.00  0.00     0.159 HD
ATOM     40  H13 STJ d          17.230  38.314  50.775  0.00  0.00     0.159 HD
ENDBRANCH  28  36
ENDBRANCH   5  26
TORSDOF 6
ENDMDL
