MODEL 1
REMARK VINA RESULT:      -5.2      0.000      0.000
REMARK  13 active torsions:
REMARK  status: ('A' for Active; 'I' for Inactive)
REMARK    1  A    between atoms: C_1  and  CH3_3 
REMARK       I    between atoms: N_4  and  C_1 
REMARK    2  A    between atoms: CA_5  and  N_4 
REMARK    3  A    between atoms: C_6  and  CA_5 
REMARK    4  A    between atoms: CA_5  and  CB_8 
REMARK       I    between atoms: N_26  and  C_6 
REMARK    5  A    between atoms: CB_8  and  CG_9 
REMARK    6  A    between atoms: CZ_14  and  OH_15 
REMARK    7  A    between atoms: OH_15  and  P_16 
REMARK    8  A    between atoms: CA_28  and  N_26 
REMARK    9  A    between atoms: C_27  and  CA_28 
REMARK       I    between atoms: C_27  and  N_29 
REMARK   10  A    between atoms: N_29  and  CA_30 
REMARK   11  A    between atoms: CA_30  and  C_31 
REMARK   12  A    between atoms: CA_30  and  CB_33 
REMARK       I    between atoms: C_31  and  N_37 
REMARK   13  A    between atoms: CB_33  and  CG_34 
REMARK       I    between atoms: CG_34  and  ND2_36 
ROOT
ATOM      1  CD  ACE d           5.482  -7.964   4.598  0.00  0.00    -0.065 C 
ATOM      2  CG  ACE d           6.158  -6.586   4.367  0.00  0.00    -0.062 C 
ATOM      3  CE  ACE d           5.790  -8.887   3.403  0.00  0.00    -0.062 C 
ATOM      4  CB  ACE d           5.692  -5.900   3.040  0.00  0.00    -0.033 C 
ATOM      5  CH  ACE d           5.399  -8.216   2.073  0.00  0.00    -0.033 C 
ATOM      6  CA  ACE d           5.965  -6.804   1.824  0.00  0.00     0.114 C 
ATOM      7  H12 ACE d           4.394  -7.829   4.688  0.00  0.00     0.033 H 
ATOM      8  H13 ACE d           5.874  -8.416   5.521  0.00  0.00     0.033 H 
ATOM      9  H14 ACE d           7.247  -6.731   4.325  0.00  0.00     0.033 H 
ATOM     10  H15 ACE d           5.908  -5.926   5.211  0.00  0.00     0.033 H 
ATOM     11  H16 ACE d           5.222  -9.822   3.515  0.00  0.00     0.033 H 
ATOM     12  H17 ACE d           6.867  -9.111   3.390  0.00  0.00     0.033 H 
ATOM     13  H18 ACE d           6.239  -4.954   2.914  0.00  0.00     0.037 H 
ATOM     14  H19 ACE d           4.613  -5.695   3.101  0.00  0.00     0.037 H 
ATOM     15  H20 ACE d           4.302  -8.146   2.043  0.00  0.00     0.037 H 
ATOM     16  H21 ACE d           5.748  -8.865   1.256  0.00  0.00     0.037 H 
ENDROOT
BRANCH   6  17
ATOM     17  N   ACE d           7.407  -6.978   1.613  0.00  0.00    -0.341 N 
ATOM     18  C   ACE d           8.256  -5.966   1.492  0.00  0.00     0.241 C 
ATOM     19  O   ACE d           7.937  -4.789   1.577  0.00  0.00    -0.271 OA
ATOM     20  H22 ACE d           7.769  -7.909   1.557  0.00  0.00     0.163 HD
BRANCH  18  21
ATOM     21  CA  ACE d           9.704  -6.356   1.232  0.00  0.00     0.093 C 
ATOM     22  H5  ACE d          10.047  -5.915   0.285  0.00  0.00     0.088 H 
BRANCH  21  23
ATOM     23  N   ACE d          10.531  -5.853   2.362  0.00  0.00    -0.348 N 
ATOM     24  C   ACE d          11.643  -5.133   2.131  0.00  0.00     0.214 C 
ATOM     25  O   ACE d          12.031  -4.804   1.004  0.00  0.00    -0.274 OA
ATOM     26  H4  ACE d          10.256  -6.052   3.303  0.00  0.00     0.163 HD
BRANCH  24  27
ATOM     27  CH3 ACE d          12.446  -4.692   3.380  0.00  0.00    -0.003 C 
ATOM     28  H1  ACE d          12.983  -3.757   3.161  0.00  0.00     0.040 H 
ATOM     29  H2  ACE d          13.169  -5.476   3.647  0.00  0.00     0.040 H 
ATOM     30  H3  ACE d          11.756  -4.529   4.221  0.00  0.00     0.040 H 
ENDBRANCH  24  27
ENDBRANCH  21  23
BRANCH  21  31
ATOM     31  CB  ACE d           9.840  -7.919   1.170  0.00  0.00    -0.014 C 
ATOM     32  H6  ACE d           8.903  -8.378   1.520  0.00  0.00     0.043 H 
ATOM     33  H7  ACE d          10.669  -8.237   1.819  0.00  0.00     0.043 H 
BRANCH  31  34
ATOM     34  CG  ACE d          10.118  -8.372  -0.259  0.00  0.00    -0.056 A 
ATOM     35  CD1 ACE d           9.702  -9.636  -0.632  0.00  0.00    -0.074 A 
ATOM     36  CE1 ACE d          10.034 -10.094  -1.908  0.00  0.00    -0.050 A 
ATOM     37  H8  ACE d           9.132 -10.256   0.049  0.00  0.00     0.084 H 
ATOM     38  CZ  ACE d          10.746  -9.266  -2.803  0.00  0.00     0.082 A 
ATOM     39  H10 ACE d           9.744 -11.092  -2.214  0.00  0.00     0.087 H 
ATOM     40  CE2 ACE d          11.176  -7.999  -2.435  0.00  0.00    -0.050 A 
ATOM     41  CD2 ACE d          10.826  -7.517  -1.151  0.00  0.00    -0.074 A 
ATOM     42  H11 ACE d          11.765  -7.393  -3.114  0.00  0.00     0.087 H 
ATOM     43  H9  ACE d          11.094  -6.511  -0.850  0.00  0.00     0.084 H 
BRANCH  38  44
ATOM     44  OH  ACE d          10.986  -9.880  -4.012  0.00  0.00    -0.240 OA
BRANCH  44  45
ATOM     45  P   ACE d          11.513 -11.439  -4.159  0.00  0.00     0.427 P 
ATOM     46  O1P ACE d          12.516 -11.569  -2.947  0.00  0.00    -0.617 OA
ATOM     47  O2P ACE d          10.422 -12.411  -4.015  0.00  0.00    -0.617 OA
ATOM     48  O3P ACE d          12.286 -11.517  -5.418  0.00  0.00    -0.617 OA
ENDBRANCH  44  45
ENDBRANCH  38  44
ENDBRANCH  31  34
ENDBRANCH  21  31
ENDBRANCH  18  21
ENDBRANCH   6  17
BRANCH   6  49
ATOM     49  C   ACE d           5.362  -6.085   0.581  0.00  0.00     0.246 C 
ATOM     50  O   ACE d           4.868  -4.918   0.623  0.00  0.00    -0.271 OA
ATOM     51  N   ACE d           5.531  -6.759  -0.578  0.00  0.00    -0.345 N 
ATOM     52  H23 ACE d           5.969  -7.657  -0.565  0.00  0.00     0.163 HD
BRANCH  51  53
ATOM     53  CA  ACE d           5.080  -6.194  -1.859  0.00  0.00     0.097 C 
ATOM     54  H24 ACE d           4.506  -5.283  -1.634  0.00  0.00     0.088 H 
BRANCH  53  55
ATOM     55  C   ACE d           4.144  -7.127  -2.620  0.00  0.00     0.238 C 
ATOM     56  O   ACE d           3.929  -8.247  -2.193  0.00  0.00    -0.271 OA
ATOM     57  N   ACE d           3.693  -6.734  -3.794  0.00  0.00    -0.368 N 
ATOM     58  H29 ACE d           3.077  -7.324  -4.317  0.00  0.00     0.159 HD
ATOM     59  H30 ACE d           3.966  -5.845  -4.163  0.00  0.00     0.159 HD
ENDBRANCH  53  55
BRANCH  53  60
ATOM     60  CB  ACE d           6.320  -5.767  -2.694  0.00  0.00     0.036 C 
ATOM     61  H25 ACE d           6.959  -5.116  -2.079  0.00  0.00     0.051 H 
ATOM     62  H26 ACE d           5.980  -5.213  -3.582  0.00  0.00     0.051 H 
BRANCH  60  63
ATOM     63  CG  ACE d           7.152  -6.998  -3.155  0.00  0.00     0.217 C 
ATOM     64  OD1 ACE d           7.269  -7.989  -2.397  0.00  0.00    -0.274 OA
ATOM     65  ND2 ACE d           7.688  -6.896  -4.363  0.00  0.00    -0.370 N 
ATOM     66  H27 ACE d           8.237  -7.646  -4.731  0.00  0.00     0.159 HD
ATOM     67  H28 ACE d           7.543  -6.069  -4.905  0.00  0.00     0.159 HD
ENDBRANCH  60  63
ENDBRANCH  53  60
ENDBRANCH  51  53
ENDBRANCH   6  49
TORSDOF 13
ENDMDL
MODEL 2
REMARK VINA RESULT:      -5.2      2.211      2.718
REMARK  13 active torsions:
REMARK  status: ('A' for Active; 'I' for Inactive)
REMARK    1  A    between atoms: C_1  and  CH3_3 
REMARK       I    between atoms: N_4  and  C_1 
REMARK    2  A    between atoms: CA_5  and  N_4 
REMARK    3  A    between atoms: C_6  and  CA_5 
REMARK    4  A    between atoms: CA_5  and  CB_8 
REMARK       I    between atoms: N_26  and  C_6 
REMARK    5  A    between atoms: CB_8  and  CG_9 
REMARK    6  A    between atoms: CZ_14  and  OH_15 
REMARK    7  A    between atoms: OH_15  and  P_16 
REMARK    8  A    between atoms: CA_28  and  N_26 
REMARK    9  A    between atoms: C_27  and  CA_28 
REMARK       I    between atoms: C_27  and  N_29 
REMARK   10  A    between atoms: N_29  and  CA_30 
REMARK   11  A    between atoms: CA_30  and  C_31 
REMARK   12  A    between atoms: CA_30  and  CB_33 
REMARK       I    between atoms: C_31  and  N_37 
REMARK   13  A    between atoms: CB_33  and  CG_34 
REMARK       I    between atoms: CG_34  and  ND2_36 
ROOT
ATOM      1  CD  ACE d           5.425  -6.826   6.153  0.00  0.00    -0.065 C 
ATOM      2  CG  ACE d           6.389  -5.869   5.403  0.00  0.00    -0.062 C 
ATOM      3  CE  ACE d           5.464  -8.213   5.485  0.00  0.00    -0.062 C 
ATOM      4  CB  ACE d           6.043  -5.731   3.884  0.00  0.00    -0.033 C 
ATOM      5  CH  ACE d           5.186  -8.106   3.974  0.00  0.00    -0.033 C 
ATOM      6  CA  ACE d           6.051  -7.103   3.187  0.00  0.00     0.114 C 
ATOM      7  H12 ACE d           4.401  -6.425   6.109  0.00  0.00     0.033 H 
ATOM      8  H13 ACE d           5.738  -6.915   7.204  0.00  0.00     0.033 H 
ATOM      9  H14 ACE d           7.414  -6.259   5.497  0.00  0.00     0.033 H 
ATOM     10  H15 ACE d           6.332  -4.875   5.870  0.00  0.00     0.033 H 
ATOM     11  H16 ACE d           4.701  -8.857   5.947  0.00  0.00     0.033 H 
ATOM     12  H17 ACE d           6.459  -8.658   5.637  0.00  0.00     0.033 H 
ATOM     13  H18 ACE d           6.787  -5.078   3.404  0.00  0.00     0.037 H 
ATOM     14  H19 ACE d           5.042  -5.283   3.784  0.00  0.00     0.037 H 
ATOM     15  H20 ACE d           4.134  -7.811   3.847  0.00  0.00     0.037 H 
ATOM     16  H21 ACE d           5.343  -9.102   3.533  0.00  0.00     0.037 H 
ENDROOT
BRANCH   6  17
ATOM     17  N   ACE d           7.405  -7.670   3.161  0.00  0.00    -0.341 N 
ATOM     18  C   ACE d           8.478  -6.984   2.789  0.00  0.00     0.241 C 
ATOM     19  O   ACE d           8.461  -5.807   2.463  0.00  0.00    -0.271 OA
ATOM     20  H22 ACE d           7.525  -8.623   3.439  0.00  0.00     0.163 HD
BRANCH  18  21
ATOM     21  CA  ACE d           9.784  -7.766   2.789  0.00  0.00     0.093 C 
ATOM     22  H5  ACE d          10.615  -7.107   2.499  0.00  0.00     0.088 H 
BRANCH  21  23
ATOM     23  N   ACE d          10.006  -8.301   4.159  0.00  0.00    -0.348 N 
ATOM     24  C   ACE d          11.065  -9.086   4.426  0.00  0.00     0.214 C 
ATOM     25  O   ACE d          11.932  -9.381   3.596  0.00  0.00    -0.274 OA
ATOM     26  H4  ACE d           9.361  -8.073   4.889  0.00  0.00     0.163 HD
BRANCH  24  27
ATOM     27  CH3 ACE d          11.177  -9.616   5.878  0.00  0.00    -0.003 C 
ATOM     28  H1  ACE d          11.184  -8.768   6.578  0.00  0.00     0.040 H 
ATOM     29  H2  ACE d          12.108 -10.190   5.987  0.00  0.00     0.040 H 
ATOM     30  H3  ACE d          10.317 -10.266   6.098  0.00  0.00     0.040 H 
ENDBRANCH  24  27
ENDBRANCH  21  23
BRANCH  21  31
ATOM     31  CB  ACE d           9.690  -8.974   1.790  0.00  0.00    -0.014 C 
ATOM     32  H6  ACE d           8.659  -9.359   1.782  0.00  0.00     0.043 H 
ATOM     33  H7  ACE d          10.376  -9.769   2.117  0.00  0.00     0.043 H 
BRANCH  31  34
ATOM     34  CG  ACE d          10.070  -8.529   0.381  0.00  0.00    -0.056 A 
ATOM     35  CD1 ACE d           9.958  -9.451  -0.643  0.00  0.00    -0.074 A 
ATOM     36  CE1 ACE d          10.392  -9.083  -1.917  0.00  0.00    -0.050 A 
ATOM     37  H8  ACE d           9.544 -10.436  -0.461  0.00  0.00     0.084 H 
ATOM     38  CZ  ACE d          10.897  -7.786  -2.153  0.00  0.00     0.082 A 
ATOM     39  H10 ACE d          10.340  -9.797  -2.730  0.00  0.00     0.087 H 
ATOM     40  CE2 ACE d          11.022  -6.857  -1.131  0.00  0.00    -0.050 A 
ATOM     41  CD2 ACE d          10.566  -7.213   0.161  0.00  0.00    -0.074 A 
ATOM     42  H11 ACE d          11.458  -5.881  -1.317  0.00  0.00     0.087 H 
ATOM     43  H9  ACE d          10.593  -6.494   0.971  0.00  0.00     0.084 H 
BRANCH  38  44
ATOM     44  OH  ACE d          11.276  -7.599  -3.465  0.00  0.00    -0.240 OA
BRANCH  44  45
ATOM     45  P   ACE d          10.380  -8.105  -4.758  0.00  0.00     0.427 P 
ATOM     46  O1P ACE d          10.611  -6.944  -5.800  0.00  0.00    -0.617 OA
ATOM     47  O2P ACE d          10.866  -9.377  -5.306  0.00  0.00    -0.617 OA
ATOM     48  O3P ACE d           8.962  -8.083  -4.335  0.00  0.00    -0.617 OA
ENDBRANCH  44  45
ENDBRANCH  38  44
ENDBRANCH  31  34
ENDBRANCH  21  31
ENDBRANCH  18  21
ENDBRANCH   6  17
BRANCH   6  49
ATOM     49  C   ACE d           5.582  -6.868   1.721  0.00  0.00     0.246 C 
ATOM     50  O   ACE d           4.668  -6.047   1.405  0.00  0.00    -0.271 OA
ATOM     51  N   ACE d           6.322  -7.519   0.796  0.00  0.00    -0.345 N 
ATOM     52  H23 ACE d           7.063  -8.120   1.094  0.00  0.00     0.163 HD
BRANCH  51  53
ATOM     53  CA  ACE d           6.058  -7.357  -0.642  0.00  0.00     0.097 C 
ATOM     54  H24 ACE d           5.139  -6.761  -0.744  0.00  0.00     0.088 H 
BRANCH  53  55
ATOM     55  C   ACE d           5.801  -8.684  -1.348  0.00  0.00     0.238 C 
ATOM     56  O   ACE d           6.668  -9.174  -2.048  0.00  0.00    -0.271 OA
ATOM     57  N   ACE d           4.590  -9.200  -1.281  0.00  0.00    -0.368 N 
ATOM     58  H29 ACE d           4.391 -10.069  -1.734  0.00  0.00     0.159 HD
ATOM     59  H30 ACE d           3.870  -8.722  -0.777  0.00  0.00     0.159 HD
ENDBRANCH  53  55
BRANCH  53  60
ATOM     60  CB  ACE d           7.215  -6.542  -1.286  0.00  0.00     0.036 C 
ATOM     61  H25 ACE d           8.028  -7.230  -1.558  0.00  0.00     0.051 H 
ATOM     62  H26 ACE d           7.585  -5.807  -0.556  0.00  0.00     0.051 H 
BRANCH  60  63
ATOM     63  CG  ACE d           6.743  -5.790  -2.563  0.00  0.00     0.217 C 
ATOM     64  OD1 ACE d           5.541  -5.455  -2.680  0.00  0.00    -0.274 OA
ATOM     65  ND2 ACE d           7.689  -5.551  -3.459  0.00  0.00    -0.370 N 
ATOM     66  H27 ACE d           7.465  -5.072  -4.308  0.00  0.00     0.159 HD
ATOM     67  H28 ACE d           8.628  -5.851  -3.287  0.00  0.00     0.159 HD
ENDBRANCH  60  63
ENDBRANCH  53  60
ENDBRANCH  51  53
ENDBRANCH   6  49
TORSDOF 13
ENDMDL
MODEL 3
REMARK VINA RESULT:      -4.5      2.103      4.758
REMARK  13 active torsions:
REMARK  status: ('A' for Active; 'I' for Inactive)
REMARK    1  A    between atoms: C_1  and  CH3_3 
REMARK       I    between atoms: N_4  and  C_1 
REMARK    2  A    between atoms: CA_5  and  N_4 
REMARK    3  A    between atoms: C_6  and  CA_5 
REMARK    4  A    between atoms: CA_5  and  CB_8 
REMARK       I    between atoms: N_26  and  C_6 
REMARK    5  A    between atoms: CB_8  and  CG_9 
REMARK    6  A    between atoms: CZ_14  and  OH_15 
REMARK    7  A    between atoms: OH_15  and  P_16 
REMARK    8  A    between atoms: CA_28  and  N_26 
REMARK    9  A    between atoms: C_27  and  CA_28 
REMARK       I    between atoms: C_27  and  N_29 
REMARK   10  A    between atoms: N_29  and  CA_30 
REMARK   11  A    between atoms: CA_30  and  C_31 
REMARK   12  A    between atoms: CA_30  and  CB_33 
REMARK       I    between atoms: C_31  and  N_37 
REMARK   13  A    between atoms: CB_33  and  CG_34 
REMARK       I    between atoms: CG_34  and  ND2_36 
ROOT
ATOM      1  CD  ACE d           5.024  -7.558  -2.036  0.00  0.00    -0.065 C 
ATOM      2  CG  ACE d           5.720  -8.411  -0.943  0.00  0.00    -0.062 C 
ATOM      3  CE  ACE d           5.310  -6.067  -1.775  0.00  0.00    -0.062 C 
ATOM      4  CB  ACE d           5.258  -8.033   0.503  0.00  0.00    -0.033 C 
ATOM      5  CH  ACE d           4.922  -5.674  -0.337  0.00  0.00    -0.033 C 
ATOM      6  CA  ACE d           5.510  -6.542   0.793  0.00  0.00     0.114 C 
ATOM      7  H12 ACE d           3.938  -7.735  -2.005  0.00  0.00     0.033 H 
ATOM      8  H13 ACE d           5.413  -7.839  -3.026  0.00  0.00     0.033 H 
ATOM      9  H14 ACE d           6.807  -8.259  -1.017  0.00  0.00     0.033 H 
ATOM     10  H15 ACE d           5.486  -9.471  -1.122  0.00  0.00     0.033 H 
ATOM     11  H16 ACE d           4.727  -5.459  -2.483  0.00  0.00     0.033 H 
ATOM     12  H17 ACE d           6.383  -5.875  -1.923  0.00  0.00     0.033 H 
ATOM     13  H18 ACE d           5.819  -8.640   1.230  0.00  0.00     0.037 H 
ATOM     14  H19 ACE d           4.183  -8.243   0.603  0.00  0.00     0.037 H 
ATOM     15  H20 ACE d           3.826  -5.723  -0.260  0.00  0.00     0.037 H 
ATOM     16  H21 ACE d           5.255  -4.639  -0.171  0.00  0.00     0.037 H 
ENDROOT
BRANCH   6  17
ATOM     17  N   ACE d           6.947  -6.248   0.823  0.00  0.00    -0.341 N 
ATOM     18  C   ACE d           7.807  -6.882   1.610  0.00  0.00     0.241 C 
ATOM     19  O   ACE d           7.503  -7.795   2.363  0.00  0.00    -0.271 OA
ATOM     20  H22 ACE d           7.297  -5.533   0.219  0.00  0.00     0.163 HD
BRANCH  18  21
ATOM     21  CA  ACE d           9.248  -6.399   1.525  0.00  0.00     0.093 C 
ATOM     22  H5  ACE d           9.373  -5.746   0.649  0.00  0.00     0.088 H 
BRANCH  21  23
ATOM     23  N   ACE d           9.561  -5.650   2.772  0.00  0.00    -0.348 N 
ATOM     24  C   ACE d          10.703  -4.949   2.882  0.00  0.00     0.214 C 
ATOM     25  O   ACE d          11.535  -4.836   1.974  0.00  0.00    -0.274 OA
ATOM     26  H4  ACE d           8.915  -5.670   3.536  0.00  0.00     0.163 HD
BRANCH  24  27
ATOM     27  CH3 ACE d          10.943  -4.239   4.239  0.00  0.00    -0.003 C 
ATOM     28  H1  ACE d          10.881  -4.974   5.054  0.00  0.00     0.040 H 
ATOM     29  H2  ACE d          10.178  -3.463   4.386  0.00  0.00     0.040 H 
ATOM     30  H3  ACE d          11.940  -3.775   4.238  0.00  0.00     0.040 H 
ENDBRANCH  24  27
ENDBRANCH  21  23
BRANCH  21  31
ATOM     31  CB  ACE d          10.224  -7.624   1.418  0.00  0.00    -0.014 C 
ATOM     32  H6  ACE d           9.884  -8.418   2.099  0.00  0.00     0.043 H 
ATOM     33  H7  ACE d          11.238  -7.306   1.703  0.00  0.00     0.043 H 
BRANCH  31  34
ATOM     34  CG  ACE d          10.247  -8.162  -0.009  0.00  0.00    -0.056 A 
ATOM     35  CD1 ACE d           9.651  -9.385  -0.251  0.00  0.00    -0.074 A 
ATOM     36  CE1 ACE d           9.749  -9.927  -1.533  0.00  0.00    -0.050 A 
ATOM     37  H8  ACE d           9.121  -9.910   0.535  0.00  0.00     0.084 H 
ATOM     38  CZ  ACE d          10.410  -9.221  -2.561  0.00  0.00     0.082 A 
ATOM     39  H10 ACE d           9.314 -10.898  -1.741  0.00  0.00     0.087 H 
ATOM     40  CE2 ACE d          11.019  -7.997  -2.326  0.00  0.00    -0.050 A 
ATOM     41  CD2 ACE d          10.908  -7.428  -1.034  0.00  0.00    -0.074 A 
ATOM     42  H11 ACE d          11.566  -7.488  -3.112  0.00  0.00     0.087 H 
ATOM     43  H9  ACE d          11.321  -6.447  -0.829  0.00  0.00     0.084 H 
BRANCH  38  44
ATOM     44  OH  ACE d          10.409  -9.905  -3.756  0.00  0.00    -0.240 OA
BRANCH  44  45
ATOM     45  P   ACE d          11.295 -11.274  -4.029  0.00  0.00     0.427 P 
ATOM     46  O1P ACE d          10.211 -12.411  -3.872  0.00  0.00    -0.617 OA
ATOM     47  O2P ACE d          11.865 -11.307  -5.381  0.00  0.00    -0.617 OA
ATOM     48  O3P ACE d          12.262 -11.390  -2.915  0.00  0.00    -0.617 OA
ENDBRANCH  44  45
ENDBRANCH  38  44
ENDBRANCH  31  34
ENDBRANCH  21  31
ENDBRANCH  18  21
ENDBRANCH   6  17
BRANCH   6  49
ATOM     49  C   ACE d           4.911  -6.248   2.201  0.00  0.00     0.246 C 
ATOM     50  O   ACE d           3.851  -6.792   2.634  0.00  0.00    -0.271 OA
ATOM     51  N   ACE d           5.692  -5.462   2.975  0.00  0.00    -0.345 N 
ATOM     52  H23 ACE d           6.543  -5.095   2.602  0.00  0.00     0.163 HD
BRANCH  51  53
ATOM     53  CA  ACE d           5.310  -5.138   4.358  0.00  0.00     0.097 C 
ATOM     54  H24 ACE d           4.636  -4.269   4.320  0.00  0.00     0.088 H 
BRANCH  53  55
ATOM     55  C   ACE d           6.501  -4.730   5.220  0.00  0.00     0.238 C 
ATOM     56  O   ACE d           7.628  -5.034   4.875  0.00  0.00    -0.271 OA
ATOM     57  N   ACE d           6.260  -4.170   6.388  0.00  0.00    -0.368 N 
ATOM     58  H29 ACE d           7.021  -3.892   6.976  0.00  0.00     0.159 HD
ATOM     59  H30 ACE d           5.317  -4.022   6.687  0.00  0.00     0.159 HD
ENDBRANCH  53  55
BRANCH  53  60
ATOM     60  CB  ACE d           4.505  -6.325   4.959  0.00  0.00     0.036 C 
ATOM     61  H25 ACE d           4.067  -6.911   4.137  0.00  0.00     0.051 H 
ATOM     62  H26 ACE d           3.700  -5.926   5.594  0.00  0.00     0.051 H 
BRANCH  60  63
ATOM     63  CG  ACE d           5.410  -7.255   5.815  0.00  0.00     0.217 C 
ATOM     64  OD1 ACE d           5.284  -7.272   7.062  0.00  0.00    -0.274 OA
ATOM     65  ND2 ACE d           6.276  -7.987   5.129  0.00  0.00    -0.370 N 
ATOM     66  H27 ACE d           6.894  -8.611   5.608  0.00  0.00     0.159 HD
ATOM     67  H28 ACE d           6.311  -7.915   4.132  0.00  0.00     0.159 HD
ENDBRANCH  60  63
ENDBRANCH  53  60
ENDBRANCH  51  53
ENDBRANCH   6  49
TORSDOF 13
ENDMDL
MODEL 4
REMARK VINA RESULT:      -4.4      3.427      6.650
REMARK  13 active torsions:
REMARK  status: ('A' for Active; 'I' for Inactive)
REMARK    1  A    between atoms: C_1  and  CH3_3 
REMARK       I    between atoms: N_4  and  C_1 
REMARK    2  A    between atoms: CA_5  and  N_4 
REMARK    3  A    between atoms: C_6  and  CA_5 
REMARK    4  A    between atoms: CA_5  and  CB_8 
REMARK       I    between atoms: N_26  and  C_6 
REMARK    5  A    between atoms: CB_8  and  CG_9 
REMARK    6  A    between atoms: CZ_14  and  OH_15 
REMARK    7  A    between atoms: OH_15  and  P_16 
REMARK    8  A    between atoms: CA_28  and  N_26 
REMARK    9  A    between atoms: C_27  and  CA_28 
REMARK       I    between atoms: C_27  and  N_29 
REMARK   10  A    between atoms: N_29  and  CA_30 
REMARK   11  A    between atoms: CA_30  and  C_31 
REMARK   12  A    between atoms: CA_30  and  CB_33 
REMARK       I    between atoms: C_31  and  N_37 
REMARK   13  A    between atoms: CB_33  and  CG_34 
REMARK       I    between atoms: CG_34  and  ND2_36 
ROOT
ATOM      1  CD  ACE d          11.793  -8.815  -3.469  0.00  0.00    -0.065 C 
ATOM      2  CG  ACE d          10.652  -9.398  -2.594  0.00  0.00    -0.062 C 
ATOM      3  CE  ACE d          12.248  -7.467  -2.879  0.00  0.00    -0.062 C 
ATOM      4  CB  ACE d           9.425  -8.434  -2.482  0.00  0.00    -0.033 C 
ATOM      5  CH  ACE d          11.052  -6.513  -2.698  0.00  0.00    -0.033 C 
ATOM      6  CA  ACE d           9.846  -7.066  -1.915  0.00  0.00     0.114 C 
ATOM      7  H12 ACE d          11.429  -8.664  -4.496  0.00  0.00     0.033 H 
ATOM      8  H13 ACE d          12.642  -9.516  -3.481  0.00  0.00     0.033 H 
ATOM      9  H14 ACE d          11.044  -9.587  -1.584  0.00  0.00     0.033 H 
ATOM     10  H15 ACE d          10.316 -10.346  -3.039  0.00  0.00     0.033 H 
ATOM     11  H16 ACE d          12.978  -7.004  -3.559  0.00  0.00     0.033 H 
ATOM     12  H17 ACE d          12.719  -7.642  -1.900  0.00  0.00     0.033 H 
ATOM     13  H18 ACE d           8.674  -8.883  -1.815  0.00  0.00     0.037 H 
ATOM     14  H19 ACE d           8.989  -8.290  -3.482  0.00  0.00     0.037 H 
ATOM     15  H20 ACE d          10.698  -6.227  -3.699  0.00  0.00     0.037 H 
ATOM     16  H21 ACE d          11.414  -5.619  -2.169  0.00  0.00     0.037 H 
ENDROOT
BRANCH   6  17
ATOM     17  N   ACE d          10.291  -7.189  -0.522  0.00  0.00    -0.341 N 
ATOM     18  C   ACE d          10.476  -6.150   0.282  0.00  0.00     0.241 C 
ATOM     19  O   ACE d          10.266  -4.990  -0.038  0.00  0.00    -0.271 OA
ATOM     20  H22 ACE d          10.463  -8.105  -0.159  0.00  0.00     0.163 HD
BRANCH  18  21
ATOM     21  CA  ACE d          10.984  -6.487   1.677  0.00  0.00     0.093 C 
ATOM     22  H5  ACE d          12.075  -6.357   1.720  0.00  0.00     0.088 H 
BRANCH  21  23
ATOM     23  N   ACE d          10.320  -5.574   2.646  0.00  0.00    -0.348 N 
ATOM     24  C   ACE d          10.986  -5.109   3.718  0.00  0.00     0.214 C 
ATOM     25  O   ACE d          12.174  -5.358   3.954  0.00  0.00    -0.274 OA
ATOM     26  H4  ACE d           9.368  -5.303   2.498  0.00  0.00     0.163 HD
BRANCH  24  27
ATOM     27  CH3 ACE d          10.185  -4.195   4.679  0.00  0.00    -0.003 C 
ATOM     28  H1  ACE d           9.969  -3.239   4.182  0.00  0.00     0.040 H 
ATOM     29  H2  ACE d          10.777  -4.011   5.587  0.00  0.00     0.040 H 
ATOM     30  H3  ACE d           9.241  -4.689   4.951  0.00  0.00     0.040 H 
ENDBRANCH  24  27
ENDBRANCH  21  23
BRANCH  21  31
ATOM     31  CB  ACE d          10.609  -7.966   2.046  0.00  0.00    -0.014 C 
ATOM     32  H6  ACE d          11.371  -8.374   2.726  0.00  0.00     0.043 H 
ATOM     33  H7  ACE d          10.575  -8.571   1.128  0.00  0.00     0.043 H 
BRANCH  31  34
ATOM     34  CG  ACE d           9.247  -8.014   2.731  0.00  0.00    -0.056 A 
ATOM     35  CD1 ACE d           8.127  -7.756   1.964  0.00  0.00    -0.074 A 
ATOM     36  CE1 ACE d           6.886  -7.705   2.600  0.00  0.00    -0.050 A 
ATOM     37  H8  ACE d           8.209  -7.597   0.895  0.00  0.00     0.084 H 
ATOM     38  CZ  ACE d           6.782  -7.949   3.987  0.00  0.00     0.082 A 
ATOM     39  H10 ACE d           5.995  -7.476   2.025  0.00  0.00     0.087 H 
ATOM     40  CE2 ACE d           7.901  -8.200   4.766  0.00  0.00    -0.050 A 
ATOM     41  CD2 ACE d           9.162  -8.274   4.127  0.00  0.00    -0.074 A 
ATOM     42  H11 ACE d           7.812  -8.337   5.838  0.00  0.00     0.087 H 
ATOM     43  H9  ACE d          10.051  -8.526   4.694  0.00  0.00     0.084 H 
BRANCH  38  44
ATOM     44  OH  ACE d           5.485  -7.857   4.442  0.00  0.00    -0.240 OA
BRANCH  44  45
ATOM     45  P   ACE d           5.065  -7.145   5.873  0.00  0.00     0.427 P 
ATOM     46  O1P ACE d           3.691  -6.456   5.513  0.00  0.00    -0.617 OA
ATOM     47  O2P ACE d           4.869  -8.128   6.946  0.00  0.00    -0.617 OA
ATOM     48  O3P ACE d           6.065  -6.088   6.139  0.00  0.00    -0.617 OA
ENDBRANCH  44  45
ENDBRANCH  38  44
ENDBRANCH  31  34
ENDBRANCH  21  31
ENDBRANCH  18  21
ENDBRANCH   6  17
BRANCH   6  49
ATOM     49  C   ACE d           8.585  -6.152  -1.956  0.00  0.00     0.246 C 
ATOM     50  O   ACE d           8.534  -5.065  -2.608  0.00  0.00    -0.271 OA
ATOM     51  N   ACE d           7.503  -6.682  -1.345  0.00  0.00    -0.345 N 
ATOM     52  H23 ACE d           7.583  -7.565  -0.883  0.00  0.00     0.163 HD
BRANCH  51  53
ATOM     53  CA  ACE d           6.209  -5.981  -1.346  0.00  0.00     0.097 C 
ATOM     54  H24 ACE d           6.219  -5.270  -2.185  0.00  0.00     0.088 H 
BRANCH  53  55
ATOM     55  C   ACE d           5.980  -5.162  -0.080  0.00  0.00     0.238 C 
ATOM     56  O   ACE d           6.932  -4.802   0.588  0.00  0.00    -0.271 OA
ATOM     57  N   ACE d           4.740  -4.978   0.325  0.00  0.00    -0.368 N 
ATOM     58  H29 ACE d           4.557  -4.445   1.152  0.00  0.00     0.159 HD
ATOM     59  H30 ACE d           3.980  -5.371  -0.194  0.00  0.00     0.159 HD
ENDBRANCH  53  55
BRANCH  53  60
ATOM     60  CB  ACE d           5.073  -7.007  -1.619  0.00  0.00     0.036 C 
ATOM     61  H25 ACE d           4.813  -6.976  -2.687  0.00  0.00     0.051 H 
ATOM     62  H26 ACE d           4.192  -6.732  -1.019  0.00  0.00     0.051 H 
BRANCH  60  63
ATOM     63  CG  ACE d           5.506  -8.454  -1.247  0.00  0.00     0.217 C 
ATOM     64  OD1 ACE d           6.242  -9.103  -2.026  0.00  0.00    -0.274 OA
ATOM     65  ND2 ACE d           5.044  -8.900  -0.088  0.00  0.00    -0.370 N 
ATOM     66  H27 ACE d           5.278  -9.822   0.222  0.00  0.00     0.159 HD
ATOM     67  H28 ACE d           4.462  -8.315   0.476  0.00  0.00     0.159 HD
ENDBRANCH  60  63
ENDBRANCH  53  60
ENDBRANCH  51  53
ENDBRANCH   6  49
TORSDOF 13
ENDMDL
MODEL 5
REMARK VINA RESULT:      -4.3      3.755      6.868
REMARK  13 active torsions:
REMARK  status: ('A' for Active; 'I' for Inactive)
REMARK    1  A    between atoms: C_1  and  CH3_3 
REMARK       I    between atoms: N_4  and  C_1 
REMARK    2  A    between atoms: CA_5  and  N_4 
REMARK    3  A    between atoms: C_6  and  CA_5 
REMARK    4  A    between atoms: CA_5  and  CB_8 
REMARK       I    between atoms: N_26  and  C_6 
REMARK    5  A    between atoms: CB_8  and  CG_9 
REMARK    6  A    between atoms: CZ_14  and  OH_15 
REMARK    7  A    between atoms: OH_15  and  P_16 
REMARK    8  A    between atoms: CA_28  and  N_26 
REMARK    9  A    between atoms: C_27  and  CA_28 
REMARK       I    between atoms: C_27  and  N_29 
REMARK   10  A    between atoms: N_29  and  CA_30 
REMARK   11  A    between atoms: CA_30  and  C_31 
REMARK   12  A    between atoms: CA_30  and  CB_33 
REMARK       I    between atoms: C_31  and  N_37 
REMARK   13  A    between atoms: CB_33  and  CG_34 
REMARK       I    between atoms: CG_34  and  ND2_36 
ROOT
ATOM      1  CD  ACE d          10.989  -9.497  -2.777  0.00  0.00    -0.065 C 
ATOM      2  CG  ACE d          10.018 -10.340  -1.908  0.00  0.00    -0.062 C 
ATOM      3  CE  ACE d          11.418  -8.245  -1.989  0.00  0.00    -0.062 C 
ATOM      4  CB  ACE d           8.750  -9.537  -1.467  0.00  0.00    -0.033 C 
ATOM      5  CH  ACE d          10.191  -7.462  -1.487  0.00  0.00    -0.033 C 
ATOM      6  CA  ACE d           9.142  -8.265  -0.694  0.00  0.00     0.114 C 
ATOM      7  H12 ACE d          10.482  -9.192  -3.705  0.00  0.00     0.033 H 
ATOM      8  H13 ACE d          11.877 -10.098  -3.025  0.00  0.00     0.033 H 
ATOM      9  H14 ACE d          10.553 -10.676  -1.008  0.00  0.00     0.033 H 
ATOM     10  H15 ACE d           9.695 -11.216  -2.491  0.00  0.00     0.033 H 
ATOM     11  H16 ACE d          12.017  -7.595  -2.644  0.00  0.00     0.033 H 
ATOM     12  H17 ACE d          12.026  -8.554  -1.125  0.00  0.00     0.033 H 
ATOM     13  H18 ACE d           8.129 -10.174  -0.821  0.00  0.00     0.037 H 
ATOM     14  H19 ACE d           8.177  -9.252  -2.362  0.00  0.00     0.037 H 
ATOM     15  H20 ACE d           9.688  -7.029  -2.364  0.00  0.00     0.037 H 
ATOM     16  H21 ACE d          10.554  -6.652  -0.837  0.00  0.00     0.037 H 
ENDROOT
BRANCH   6  17
ATOM     17  N   ACE d           9.775  -8.604   0.587  0.00  0.00    -0.341 N 
ATOM     18  C   ACE d          10.461  -7.733   1.316  0.00  0.00     0.241 C 
ATOM     19  O   ACE d          10.610  -6.557   1.020  0.00  0.00    -0.271 OA
ATOM     20  H22 ACE d           9.684  -9.539   0.927  0.00  0.00     0.163 HD
BRANCH  18  21
ATOM     21  CA  ACE d          11.078  -8.293   2.590  0.00  0.00     0.093 C 
ATOM     22  H5  ACE d          11.882  -8.999   2.338  0.00  0.00     0.088 H 
BRANCH  21  23
ATOM     23  N   ACE d          11.622  -7.156   3.381  0.00  0.00    -0.348 N 
ATOM     24  C   ACE d          12.618  -7.349   4.264  0.00  0.00     0.214 C 
ATOM     25  O   ACE d          13.173  -8.438   4.452  0.00  0.00    -0.274 OA
ATOM     26  H4  ACE d          11.243  -6.239   3.254  0.00  0.00     0.163 HD
BRANCH  24  27
ATOM     27  CH3 ACE d          13.081  -6.102   5.058  0.00  0.00    -0.003 C 
ATOM     28  H1  ACE d          12.222  -5.665   5.588  0.00  0.00     0.040 H 
ATOM     29  H2  ACE d          13.499  -5.360   4.364  0.00  0.00     0.040 H 
ATOM     30  H3  ACE d          13.850  -6.397   5.787  0.00  0.00     0.040 H 
ENDBRANCH  24  27
ENDBRANCH  21  23
BRANCH  21  31
ATOM     31  CB  ACE d           9.981  -9.020   3.447  0.00  0.00    -0.014 C 
ATOM     32  H6  ACE d          10.418  -9.330   4.407  0.00  0.00     0.043 H 
ATOM     33  H7  ACE d           9.624  -9.906   2.902  0.00  0.00     0.043 H 
BRANCH  31  34
ATOM     34  CG  ACE d           8.806  -8.083   3.709  0.00  0.00    -0.056 A 
ATOM     35  CD1 ACE d           9.084  -6.777   4.066  0.00  0.00    -0.074 A 
ATOM     36  CE1 ACE d           8.019  -5.940   4.398  0.00  0.00    -0.050 A 
ATOM     37  H8  ACE d          10.105  -6.413   4.087  0.00  0.00     0.084 H 
ATOM     38  CZ  ACE d           6.690  -6.411   4.332  0.00  0.00     0.082 A 
ATOM     39  H10 ACE d           8.213  -4.919   4.708  0.00  0.00     0.087 H 
ATOM     40  CE2 ACE d           6.401  -7.723   3.984  0.00  0.00    -0.050 A 
ATOM     41  CD2 ACE d           7.473  -8.575   3.625  0.00  0.00    -0.074 A 
ATOM     42  H11 ACE d           5.379  -8.085   3.986  0.00  0.00     0.087 H 
ATOM     43  H9  ACE d           7.281  -9.588   3.292  0.00  0.00     0.084 H 
BRANCH  38  44
ATOM     44  OH  ACE d           5.771  -5.450   4.693  0.00  0.00    -0.240 OA
BRANCH  44  45
ATOM     45  P   ACE d           5.239  -5.228   6.242  0.00  0.00     0.427 P 
ATOM     46  O1P ACE d           4.564  -6.618   6.566  0.00  0.00    -0.617 OA
ATOM     47  O2P ACE d           6.341  -4.974   7.178  0.00  0.00    -0.617 OA
ATOM     48  O3P ACE d           4.182  -4.194   6.191  0.00  0.00    -0.617 OA
ENDBRANCH  44  45
ENDBRANCH  38  44
ENDBRANCH  31  34
ENDBRANCH  21  31
ENDBRANCH  18  21
ENDBRANCH   6  17
BRANCH   6  49
ATOM     49  C   ACE d           7.824  -7.486  -0.408  0.00  0.00     0.246 C 
ATOM     50  O   ACE d           7.794  -6.251  -0.116  0.00  0.00    -0.271 OA
ATOM     51  N   ACE d           6.702  -8.206  -0.627  0.00  0.00    -0.345 N 
ATOM     52  H23 ACE d           6.779  -9.164  -0.900  0.00  0.00     0.163 HD
BRANCH  51  53
ATOM     53  CA  ACE d           5.369  -7.604  -0.469  0.00  0.00     0.097 C 
ATOM     54  H24 ACE d           5.509  -6.523  -0.326  0.00  0.00     0.088 H 
BRANCH  53  55
ATOM     55  C   ACE d           4.632  -8.117   0.764  0.00  0.00     0.238 C 
ATOM     56  O   ACE d           4.748  -9.283   1.096  0.00  0.00    -0.271 OA
ATOM     57  N   ACE d           3.782  -7.307   1.362  0.00  0.00    -0.368 N 
ATOM     58  H29 ACE d           3.283  -7.615   2.173  0.00  0.00     0.159 HD
ATOM     59  H30 ACE d           3.635  -6.384   1.006  0.00  0.00     0.159 HD
ENDBRANCH  53  55
BRANCH  53  60
ATOM     60  CB  ACE d           4.561  -7.799  -1.783  0.00  0.00     0.036 C 
ATOM     61  H25 ACE d           3.504  -7.970  -1.530  0.00  0.00     0.051 H 
ATOM     62  H26 ACE d           4.956  -8.675  -2.319  0.00  0.00     0.051 H 
BRANCH  60  63
ATOM     63  CG  ACE d           4.663  -6.553  -2.708  0.00  0.00     0.217 C 
ATOM     64  OD1 ACE d           4.486  -6.678  -3.943  0.00  0.00    -0.274 OA
ATOM     65  ND2 ACE d           4.938  -5.413  -2.090  0.00  0.00    -0.370 N 
ATOM     66  H27 ACE d           5.020  -4.567  -2.616  0.00  0.00     0.159 HD
ATOM     67  H28 ACE d           5.063  -5.400  -1.098  0.00  0.00     0.159 HD
ENDBRANCH  60  63
ENDBRANCH  53  60
ENDBRANCH  51  53
ENDBRANCH   6  49
TORSDOF 13
ENDMDL
MODEL 6
REMARK VINA RESULT:      -4.1      3.090      5.902
REMARK  13 active torsions:
REMARK  status: ('A' for Active; 'I' for Inactive)
REMARK    1  A    between atoms: C_1  and  CH3_3 
REMARK       I    between atoms: N_4  and  C_1 
REMARK    2  A    between atoms: CA_5  and  N_4 
REMARK    3  A    between atoms: C_6  and  CA_5 
REMARK    4  A    between atoms: CA_5  and  CB_8 
REMARK       I    between atoms: N_26  and  C_6 
REMARK    5  A    between atoms: CB_8  and  CG_9 
REMARK    6  A    between atoms: CZ_14  and  OH_15 
REMARK    7  A    between atoms: OH_15  and  P_16 
REMARK    8  A    between atoms: CA_28  and  N_26 
REMARK    9  A    between atoms: C_27  and  CA_28 
REMARK       I    between atoms: C_27  and  N_29 
REMARK   10  A    between atoms: N_29  and  CA_30 
REMARK   11  A    between atoms: CA_30  and  C_31 
REMARK   12  A    between atoms: CA_30  and  CB_33 
REMARK       I    between atoms: C_31  and  N_37 
REMARK   13  A    between atoms: CB_33  and  CG_34 
REMARK       I    between atoms: CG_34  and  ND2_36 
ROOT
ATOM      1  CD  ACE d           4.122  -8.527   1.008  0.00  0.00    -0.065 C 
ATOM      2  CG  ACE d           5.200  -7.524   1.499  0.00  0.00    -0.062 C 
ATOM      3  CE  ACE d           4.632  -9.239  -0.259  0.00  0.00    -0.062 C 
ATOM      4  CB  ACE d           5.573  -6.461   0.414  0.00  0.00    -0.033 C 
ATOM      5  CH  ACE d           5.066  -8.219  -1.328  0.00  0.00    -0.033 C 
ATOM      6  CA  ACE d           6.068  -7.137  -0.877  0.00  0.00     0.114 C 
ATOM      7  H12 ACE d           3.193  -7.986   0.778  0.00  0.00     0.033 H 
ATOM      8  H13 ACE d           3.927  -9.272   1.795  0.00  0.00     0.033 H 
ATOM      9  H14 ACE d           6.106  -8.085   1.769  0.00  0.00     0.033 H 
ATOM     10  H15 ACE d           4.814  -7.001   2.387  0.00  0.00     0.033 H 
ATOM     11  H16 ACE d           3.826  -9.867  -0.668  0.00  0.00     0.033 H 
ATOM     12  H17 ACE d           5.492  -9.872   0.005  0.00  0.00     0.033 H 
ATOM     13  H18 ACE d           6.370  -5.811   0.807  0.00  0.00     0.037 H 
ATOM     14  H19 ACE d           4.685  -5.854   0.185  0.00  0.00     0.037 H 
ATOM     15  H20 ACE d           4.162  -7.708  -1.690  0.00  0.00     0.037 H 
ATOM     16  H21 ACE d           5.527  -8.777  -2.156  0.00  0.00     0.037 H 
ENDROOT
BRANCH   6  17
ATOM     17  N   ACE d           7.340  -7.833  -0.651  0.00  0.00    -0.341 N 
ATOM     18  C   ACE d           8.042  -8.406  -1.620  0.00  0.00     0.241 C 
ATOM     19  O   ACE d           7.726  -8.387  -2.800  0.00  0.00    -0.271 OA
ATOM     20  H22 ACE d           7.696  -7.878   0.282  0.00  0.00     0.163 HD
BRANCH  18  21
ATOM     21  CA  ACE d           9.312  -9.117  -1.172  0.00  0.00     0.093 C 
ATOM     22  H5  ACE d           9.081  -9.821  -0.360  0.00  0.00     0.088 H 
BRANCH  21  23
ATOM     23  N   ACE d           9.872  -9.846  -2.341  0.00  0.00    -0.348 N 
ATOM     24  C   ACE d          10.262 -11.129  -2.227  0.00  0.00     0.214 C 
ATOM     25  O   ACE d          10.150 -11.795  -1.191  0.00  0.00    -0.274 OA
ATOM     26  H4  ACE d           9.960  -9.379  -3.221  0.00  0.00     0.163 HD
BRANCH  24  27
ATOM     27  CH3 ACE d          10.864 -11.778  -3.498  0.00  0.00    -0.003 C 
ATOM     28  H1  ACE d          10.786 -11.077  -4.341  0.00  0.00     0.040 H 
ATOM     29  H2  ACE d          10.312 -12.699  -3.735  0.00  0.00     0.040 H 
ATOM     30  H3  ACE d          11.922 -12.021  -3.319  0.00  0.00     0.040 H 
ENDBRANCH  24  27
ENDBRANCH  21  23
BRANCH  21  31
ATOM     31  CB  ACE d          10.373  -8.068  -0.682  0.00  0.00    -0.014 C 
ATOM     32  H6  ACE d          10.434  -7.246  -1.410  0.00  0.00     0.043 H 
ATOM     33  H7  ACE d          11.355  -8.558  -0.598  0.00  0.00     0.043 H 
BRANCH  31  34
ATOM     34  CG  ACE d           9.974  -7.506   0.679  0.00  0.00    -0.056 A 
ATOM     35  CD1 ACE d           9.703  -8.402   1.696  0.00  0.00    -0.074 A 
ATOM     36  CE1 ACE d           9.247  -7.901   2.916  0.00  0.00    -0.050 A 
ATOM     37  H8  ACE d           9.841  -9.467   1.550  0.00  0.00     0.084 H 
ATOM     38  CZ  ACE d           9.105  -6.510   3.111  0.00  0.00     0.082 A 
ATOM     39  H10 ACE d           9.001  -8.585   3.720  0.00  0.00     0.087 H 
ATOM     40  CE2 ACE d           9.367  -5.604   2.094  0.00  0.00    -0.050 A 
ATOM     41  CD2 ACE d           9.849  -6.100   0.859  0.00  0.00    -0.074 A 
ATOM     42  H11 ACE d           9.205  -4.542   2.241  0.00  0.00     0.087 H 
ATOM     43  H9  ACE d          10.119  -5.418   0.061  0.00  0.00     0.084 H 
BRANCH  38  44
ATOM     44  OH  ACE d           8.646  -6.199   4.372  0.00  0.00    -0.240 OA
BRANCH  44  45
ATOM     45  P   ACE d           7.182  -5.491   4.664  0.00  0.00     0.427 P 
ATOM     46  O1P ACE d           7.557  -4.359   5.698  0.00  0.00    -0.617 OA
ATOM     47  O2P ACE d           6.601  -4.894   3.455  0.00  0.00    -0.617 OA
ATOM     48  O3P ACE d           6.345  -6.498   5.354  0.00  0.00    -0.617 OA
ENDBRANCH  44  45
ENDBRANCH  38  44
ENDBRANCH  31  34
ENDBRANCH  21  31
ENDBRANCH  18  21
ENDBRANCH   6  17
BRANCH   6  49
ATOM     49  C   ACE d           6.297  -6.006  -1.922  0.00  0.00     0.246 C 
ATOM     50  O   ACE d           7.141  -5.071  -1.763  0.00  0.00    -0.271 OA
ATOM     51  N   ACE d           5.615  -6.177  -3.076  0.00  0.00    -0.345 N 
ATOM     52  H23 ACE d           4.997  -6.957  -3.170  0.00  0.00     0.163 HD
BRANCH  51  53
ATOM     53  CA  ACE d           5.767  -5.236  -4.196  0.00  0.00     0.097 C 
ATOM     54  H24 ACE d           6.499  -4.474  -3.891  0.00  0.00     0.088 H 
BRANCH  53  55
ATOM     55  C   ACE d           4.474  -4.496  -4.525  0.00  0.00     0.238 C 
ATOM     56  O   ACE d           3.690  -4.223  -3.633  0.00  0.00    -0.271 OA
ATOM     57  N   ACE d           4.183  -4.286  -5.793  0.00  0.00    -0.368 N 
ATOM     58  H29 ACE d           3.342  -3.804  -6.040  0.00  0.00     0.159 HD
ATOM     59  H30 ACE d           4.802  -4.609  -6.508  0.00  0.00     0.159 HD
ENDBRANCH  53  55
BRANCH  53  60
ATOM     60  CB  ACE d           6.362  -5.989  -5.420  0.00  0.00     0.036 C 
ATOM     61  H25 ACE d           6.092  -5.447  -6.338  0.00  0.00     0.051 H 
ATOM     62  H26 ACE d           5.939  -7.004  -5.455  0.00  0.00     0.051 H 
BRANCH  60  63
ATOM     63  CG  ACE d           7.911  -6.091  -5.331  0.00  0.00     0.217 C 
ATOM     64  OD1 ACE d           8.587  -5.075  -5.044  0.00  0.00    -0.274 OA
ATOM     65  ND2 ACE d           8.412  -7.294  -5.573  0.00  0.00    -0.370 N 
ATOM     66  H27 ACE d           9.400  -7.440  -5.535  0.00  0.00     0.159 HD
ATOM     67  H28 ACE d           7.801  -8.054  -5.793  0.00  0.00     0.159 HD
ENDBRANCH  60  63
ENDBRANCH  53  60
ENDBRANCH  51  53
ENDBRANCH   6  49
TORSDOF 13
ENDMDL
MODEL 7
REMARK VINA RESULT:      -3.7      3.716      6.889
REMARK  13 active torsions:
REMARK  status: ('A' for Active; 'I' for Inactive)
REMARK    1  A    between atoms: C_1  and  CH3_3 
REMARK       I    between atoms: N_4  and  C_1 
REMARK    2  A    between atoms: CA_5  and  N_4 
REMARK    3  A    between atoms: C_6  and  CA_5 
REMARK    4  A    between atoms: CA_5  and  CB_8 
REMARK       I    between atoms: N_26  and  C_6 
REMARK    5  A    between atoms: CB_8  and  CG_9 
REMARK    6  A    between atoms: CZ_14  and  OH_15 
REMARK    7  A    between atoms: OH_15  and  P_16 
REMARK    8  A    between atoms: CA_28  and  N_26 
REMARK    9  A    between atoms: C_27  and  CA_28 
REMARK       I    between atoms: C_27  and  N_29 
REMARK   10  A    between atoms: N_29  and  CA_30 
REMARK   11  A    between atoms: CA_30  and  C_31 
REMARK   12  A    between atoms: CA_30  and  CB_33 
REMARK       I    between atoms: C_31  and  N_37 
REMARK   13  A    between atoms: CB_33  and  CG_34 
REMARK       I    between atoms: CG_34  and  ND2_36 
ROOT
ATOM      1  CD  ACE d          13.099  -6.296  -3.293  0.00  0.00    -0.065 C 
ATOM      2  CG  ACE d          12.252  -7.595  -3.243  0.00  0.00    -0.062 C 
ATOM      3  CE  ACE d          12.773  -5.429  -2.062  0.00  0.00    -0.062 C 
ATOM      4  CB  ACE d          10.715  -7.312  -3.194  0.00  0.00    -0.033 C 
ATOM      5  CH  ACE d          11.257  -5.181  -1.949  0.00  0.00    -0.033 C 
ATOM      6  CA  ACE d          10.353  -6.429  -1.986  0.00  0.00     0.114 C 
ATOM      7  H12 ACE d          12.862  -5.737  -4.210  0.00  0.00     0.033 H 
ATOM      8  H13 ACE d          14.169  -6.554  -3.288  0.00  0.00     0.033 H 
ATOM      9  H14 ACE d          12.535  -8.165  -2.346  0.00  0.00     0.033 H 
ATOM     10  H15 ACE d          12.472  -8.193  -4.140  0.00  0.00     0.033 H 
ATOM     11  H16 ACE d          13.289  -4.463  -2.155  0.00  0.00     0.033 H 
ATOM     12  H17 ACE d          13.121  -5.946  -1.155  0.00  0.00     0.033 H 
ATOM     13  H18 ACE d          10.176  -8.268  -3.115  0.00  0.00     0.037 H 
ATOM     14  H19 ACE d          10.415  -6.797  -4.119  0.00  0.00     0.037 H 
ATOM     15  H20 ACE d          10.961  -4.529  -2.784  0.00  0.00     0.037 H 
ATOM     16  H21 ACE d          11.073  -4.663  -0.997  0.00  0.00     0.037 H 
ENDROOT
BRANCH   6  17
ATOM     17  N   ACE d          10.593  -7.140  -0.725  0.00  0.00    -0.341 N 
ATOM     18  C   ACE d          10.584  -6.548   0.462  0.00  0.00     0.241 C 
ATOM     19  O   ACE d          10.342  -5.363   0.636  0.00  0.00    -0.271 OA
ATOM     20  H22 ACE d          10.774  -8.123  -0.763  0.00  0.00     0.163 HD
BRANCH  18  21
ATOM     21  CA  ACE d          10.902  -7.452   1.645  0.00  0.00     0.093 C 
ATOM     22  H5  ACE d          11.847  -7.984   1.467  0.00  0.00     0.088 H 
BRANCH  21  23
ATOM     23  N   ACE d          11.011  -6.604   2.862  0.00  0.00    -0.348 N 
ATOM     24  C   ACE d          11.767  -6.993   3.904  0.00  0.00     0.214 C 
ATOM     25  O   ACE d          12.444  -8.027   3.918  0.00  0.00    -0.274 OA
ATOM     26  H4  ACE d          10.516  -5.735   2.906  0.00  0.00     0.163 HD
BRANCH  24  27
ATOM     27  CH3 ACE d          11.779  -6.049   5.133  0.00  0.00    -0.003 C 
ATOM     28  H1  ACE d          12.237  -6.566   5.988  0.00  0.00     0.040 H 
ATOM     29  H2  ACE d          10.747  -5.765   5.386  0.00  0.00     0.040 H 
ATOM     30  H3  ACE d          12.360  -5.146   4.896  0.00  0.00     0.040 H 
ENDBRANCH  24  27
ENDBRANCH  21  23
BRANCH  21  31
ATOM     31  CB  ACE d           9.741  -8.488   1.860  0.00  0.00    -0.014 C 
ATOM     32  H6  ACE d          10.167  -9.443   2.200  0.00  0.00     0.043 H 
ATOM     33  H7  ACE d           9.211  -8.640   0.908  0.00  0.00     0.043 H 
BRANCH  31  34
ATOM     34  CG  ACE d           8.758  -7.974   2.906  0.00  0.00    -0.056 A 
ATOM     35  CD1 ACE d           8.745  -8.592   4.143  0.00  0.00    -0.074 A 
ATOM     36  CE1 ACE d           7.787  -8.191   5.074  0.00  0.00    -0.050 A 
ATOM     37  H8  ACE d           9.463  -9.368   4.383  0.00  0.00     0.084 H 
ATOM     38  CZ  ACE d           6.880  -7.154   4.767  0.00  0.00     0.082 A 
ATOM     39  H10 ACE d           7.739  -8.680   6.041  0.00  0.00     0.087 H 
ATOM     40  CE2 ACE d           6.879  -6.534   3.526  0.00  0.00    -0.050 A 
ATOM     41  CD2 ACE d           7.860  -6.919   2.581  0.00  0.00    -0.074 A 
ATOM     42  H11 ACE d           6.144  -5.774   3.286  0.00  0.00     0.087 H 
ATOM     43  H9  ACE d           7.927  -6.417   1.623  0.00  0.00     0.084 H 
BRANCH  38  44
ATOM     44  OH  ACE d           6.008  -6.892   5.801  0.00  0.00    -0.240 OA
BRANCH  44  45
ATOM     45  P   ACE d           4.435  -7.397   5.823  0.00  0.00     0.427 P 
ATOM     46  O1P ACE d           3.694  -6.215   5.086  0.00  0.00    -0.617 OA
ATOM     47  O2P ACE d           4.243  -8.650   5.082  0.00  0.00    -0.617 OA
ATOM     48  O3P ACE d           4.005  -7.411   7.239  0.00  0.00    -0.617 OA
ENDBRANCH  44  45
ENDBRANCH  38  44
ENDBRANCH  31  34
ENDBRANCH  21  31
ENDBRANCH  18  21
ENDBRANCH   6  17
BRANCH   6  49
ATOM     49  C   ACE d           8.832  -6.112  -2.097  0.00  0.00     0.246 C 
ATOM     50  O   ACE d           8.375  -5.090  -2.694  0.00  0.00    -0.271 OA
ATOM     51  N   ACE d           8.031  -7.089  -1.617  0.00  0.00    -0.345 N 
ATOM     52  H23 ACE d           8.441  -7.898  -1.197  0.00  0.00     0.163 HD
BRANCH  51  53
ATOM     53  CA  ACE d           6.566  -6.982  -1.703  0.00  0.00     0.097 C 
ATOM     54  H24 ACE d           6.271  -6.062  -1.177  0.00  0.00     0.088 H 
BRANCH  53  55
ATOM     55  C   ACE d           5.849  -8.135  -1.006  0.00  0.00     0.238 C 
ATOM     56  O   ACE d           5.270  -8.975  -1.671  0.00  0.00    -0.271 OA
ATOM     57  N   ACE d           5.768  -8.113   0.308  0.00  0.00    -0.368 N 
ATOM     58  H29 ACE d           5.304  -8.854   0.793  0.00  0.00     0.159 HD
ATOM     59  H30 ACE d           6.171  -7.355   0.822  0.00  0.00     0.159 HD
ENDBRANCH  53  55
BRANCH  53  60
ATOM     60  CB  ACE d           6.151  -6.821  -3.192  0.00  0.00     0.036 C 
ATOM     61  H25 ACE d           5.670  -7.750  -3.531  0.00  0.00     0.051 H 
ATOM     62  H26 ACE d           7.052  -6.634  -3.796  0.00  0.00     0.051 H 
BRANCH  60  63
ATOM     63  CG  ACE d           5.158  -5.640  -3.385  0.00  0.00     0.217 C 
ATOM     64  OD1 ACE d           4.199  -5.757  -4.183  0.00  0.00    -0.274 OA
ATOM     65  ND2 ACE d           5.416  -4.562  -2.660  0.00  0.00    -0.370 N 
ATOM     66  H27 ACE d           4.824  -3.759  -2.728  0.00  0.00     0.159 HD
ATOM     67  H28 ACE d           6.204  -4.551  -2.044  0.00  0.00     0.159 HD
ENDBRANCH  60  63
ENDBRANCH  53  60
ENDBRANCH  51  53
ENDBRANCH   6  49
TORSDOF 13
ENDMDL
MODEL 8
REMARK VINA RESULT:      -3.4      2.771      4.481
REMARK  13 active torsions:
REMARK  status: ('A' for Active; 'I' for Inactive)
REMARK    1  A    between atoms: C_1  and  CH3_3 
REMARK       I    between atoms: N_4  and  C_1 
REMARK    2  A    between atoms: CA_5  and  N_4 
REMARK    3  A    between atoms: C_6  and  CA_5 
REMARK    4  A    between atoms: CA_5  and  CB_8 
REMARK       I    between atoms: N_26  and  C_6 
REMARK    5  A    between atoms: CB_8  and  CG_9 
REMARK    6  A    between atoms: CZ_14  and  OH_15 
REMARK    7  A    between atoms: OH_15  and  P_16 
REMARK    8  A    between atoms: CA_28  and  N_26 
REMARK    9  A    between atoms: C_27  and  CA_28 
REMARK       I    between atoms: C_27  and  N_29 
REMARK   10  A    between atoms: N_29  and  CA_30 
REMARK   11  A    between atoms: CA_30  and  C_31 
REMARK   12  A    between atoms: CA_30  and  CB_33 
REMARK       I    between atoms: C_31  and  N_37 
REMARK   13  A    between atoms: CB_33  and  CG_34 
REMARK       I    between atoms: CG_34  and  ND2_36 
ROOT
ATOM      1  CD  ACE d          11.320  -9.781   4.280  0.00  0.00    -0.065 C 
ATOM      2  CG  ACE d          10.943  -8.746   5.373  0.00  0.00    -0.062 C 
ATOM      3  CE  ACE d          11.027  -9.182   2.891  0.00  0.00    -0.062 C 
ATOM      4  CB  ACE d           9.444  -8.306   5.296  0.00  0.00    -0.033 C 
ATOM      5  CH  ACE d           9.573  -8.683   2.801  0.00  0.00    -0.033 C 
ATOM      6  CA  ACE d           9.108  -7.721   3.912  0.00  0.00     0.114 C 
ATOM      7  H12 ACE d          10.726 -10.696   4.419  0.00  0.00     0.033 H 
ATOM      8  H13 ACE d          12.390 -10.024   4.357  0.00  0.00     0.033 H 
ATOM      9  H14 ACE d          11.577  -7.856   5.249  0.00  0.00     0.033 H 
ATOM     10  H15 ACE d          11.129  -9.193   6.361  0.00  0.00     0.033 H 
ATOM     11  H16 ACE d          11.190  -9.954   2.124  0.00  0.00     0.033 H 
ATOM     12  H17 ACE d          11.709  -8.337   2.712  0.00  0.00     0.033 H 
ATOM     13  H18 ACE d           9.253  -7.542   6.065  0.00  0.00     0.037 H 
ATOM     14  H19 ACE d           8.803  -9.181   5.482  0.00  0.00     0.037 H 
ATOM     15  H20 ACE d           8.915  -9.564   2.824  0.00  0.00     0.037 H 
ATOM     16  H21 ACE d           9.456  -8.164   1.838  0.00  0.00     0.037 H 
ENDROOT
BRANCH   6  17
ATOM     17  N   ACE d           9.828  -6.463   3.685  0.00  0.00    -0.341 N 
ATOM     18  C   ACE d           9.529  -5.614   2.710  0.00  0.00     0.241 C 
ATOM     19  O   ACE d           8.607  -5.771   1.924  0.00  0.00    -0.271 OA
ATOM     20  H22 ACE d          10.585  -6.233   4.298  0.00  0.00     0.163 HD
BRANCH  18  21
ATOM     21  CA  ACE d          10.425  -4.387   2.616  0.00  0.00     0.093 C 
ATOM     22  H5  ACE d           9.830  -3.511   2.322  0.00  0.00     0.088 H 
BRANCH  21  23
ATOM     23  N   ACE d          11.046  -4.162   3.949  0.00  0.00    -0.348 N 
ATOM     24  C   ACE d          12.070  -4.927   4.365  0.00  0.00     0.214 C 
ATOM     25  O   ACE d          12.589  -5.819   3.683  0.00  0.00    -0.274 OA
ATOM     26  H4  ACE d          10.698  -3.434   4.540  0.00  0.00     0.163 HD
BRANCH  24  27
ATOM     27  CH3 ACE d          12.616  -4.629   5.785  0.00  0.00    -0.003 C 
ATOM     28  H1  ACE d          13.587  -4.119   5.705  0.00  0.00     0.040 H 
ATOM     29  H2  ACE d          12.742  -5.573   6.335  0.00  0.00     0.040 H 
ATOM     30  H3  ACE d          11.906  -3.984   6.322  0.00  0.00     0.040 H 
ENDBRANCH  24  27
ENDBRANCH  21  23
BRANCH  21  31
ATOM     31  CB  ACE d          11.567  -4.632   1.566  0.00  0.00    -0.014 C 
ATOM     32  H6  ACE d          12.244  -5.412   1.943  0.00  0.00     0.043 H 
ATOM     33  H7  ACE d          12.128  -3.698   1.418  0.00  0.00     0.043 H 
BRANCH  31  34
ATOM     34  CG  ACE d          10.975  -5.080   0.234  0.00  0.00    -0.056 A 
ATOM     35  CD1 ACE d          11.250  -6.364  -0.199  0.00  0.00    -0.074 A 
ATOM     36  CE1 ACE d          10.792  -6.752  -1.458  0.00  0.00    -0.050 A 
ATOM     37  H8  ACE d          11.808  -7.053   0.425  0.00  0.00     0.084 H 
ATOM     38  CZ  ACE d          10.035  -5.861  -2.250  0.00  0.00     0.082 A 
ATOM     39  H10 ACE d          11.019  -7.744  -1.832  0.00  0.00     0.087 H 
ATOM     40  CE2 ACE d           9.761  -4.568  -1.828  0.00  0.00    -0.050 A 
ATOM     41  CD2 ACE d          10.204  -4.172  -0.544  0.00  0.00    -0.074 A 
ATOM     42  H11 ACE d           9.221  -3.878  -2.468  0.00  0.00     0.087 H 
ATOM     43  H9  ACE d           9.959  -3.189  -0.157  0.00  0.00     0.084 H 
BRANCH  38  44
ATOM     44  OH  ACE d           9.668  -6.411  -3.458  0.00  0.00    -0.240 OA
BRANCH  44  45
ATOM     45  P   ACE d           8.224  -7.173  -3.717  0.00  0.00     0.427 P 
ATOM     46  O1P ACE d           8.193  -8.235  -2.550  0.00  0.00    -0.617 OA
ATOM     47  O2P ACE d           7.083  -6.258  -3.595  0.00  0.00    -0.617 OA
ATOM     48  O3P ACE d           8.341  -7.894  -5.004  0.00  0.00    -0.617 OA
ENDBRANCH  44  45
ENDBRANCH  38  44
ENDBRANCH  31  34
ENDBRANCH  21  31
ENDBRANCH  18  21
ENDBRANCH   6  17
BRANCH   6  49
ATOM     49  C   ACE d           7.578  -7.429   3.903  0.00  0.00     0.246 C 
ATOM     50  O   ACE d           7.017  -6.628   4.711  0.00  0.00    -0.271 OA
ATOM     51  N   ACE d           6.916  -8.000   2.873  0.00  0.00    -0.345 N 
ATOM     52  H23 ACE d           7.413  -8.587   2.235  0.00  0.00     0.163 HD
BRANCH  51  53
ATOM     53  CA  ACE d           5.476  -7.774   2.675  0.00  0.00     0.097 C 
ATOM     54  H24 ACE d           5.295  -6.693   2.772  0.00  0.00     0.088 H 
BRANCH  53  55
ATOM     55  C   ACE d           4.619  -8.459   3.734  0.00  0.00     0.238 C 
ATOM     56  O   ACE d           4.372  -9.648   3.635  0.00  0.00    -0.271 OA
ATOM     57  N   ACE d           4.061  -7.710   4.663  0.00  0.00    -0.368 N 
ATOM     58  H29 ACE d           3.493  -8.130   5.371  0.00  0.00     0.159 HD
ATOM     59  H30 ACE d           4.205  -6.720   4.660  0.00  0.00     0.159 HD
ENDBRANCH  53  55
BRANCH  53  60
ATOM     60  CB  ACE d           5.089  -8.181   1.225  0.00  0.00     0.036 C 
ATOM     61  H25 ACE d           4.033  -8.488   1.210  0.00  0.00     0.051 H 
ATOM     62  H26 ACE d           5.721  -9.025   0.910  0.00  0.00     0.051 H 
BRANCH  60  63
ATOM     63  CG  ACE d           5.286  -7.004   0.227  0.00  0.00     0.217 C 
ATOM     64  OD1 ACE d           5.200  -5.822   0.635  0.00  0.00    -0.274 OA
ATOM     65  ND2 ACE d           5.540  -7.361  -1.023  0.00  0.00    -0.370 N 
ATOM     66  H27 ACE d           5.679  -6.662  -1.724  0.00  0.00     0.159 HD
ATOM     67  H28 ACE d           5.594  -8.330  -1.265  0.00  0.00     0.159 HD
ENDBRANCH  60  63
ENDBRANCH  53  60
ENDBRANCH  51  53
ENDBRANCH   6  49
TORSDOF 13
ENDMDL
MODEL 9
REMARK VINA RESULT:      -3.3      3.086      5.419
REMARK  13 active torsions:
REMARK  status: ('A' for Active; 'I' for Inactive)
REMARK    1  A    between atoms: C_1  and  CH3_3 
REMARK       I    between atoms: N_4  and  C_1 
REMARK    2  A    between atoms: CA_5  and  N_4 
REMARK    3  A    between atoms: C_6  and  CA_5 
REMARK    4  A    between atoms: CA_5  and  CB_8 
REMARK       I    between atoms: N_26  and  C_6 
REMARK    5  A    between atoms: CB_8  and  CG_9 
REMARK    6  A    between atoms: CZ_14  and  OH_15 
REMARK    7  A    between atoms: OH_15  and  P_16 
REMARK    8  A    between atoms: CA_28  and  N_26 
REMARK    9  A    between atoms: C_27  and  CA_28 
REMARK       I    between atoms: C_27  and  N_29 
REMARK   10  A    between atoms: N_29  and  CA_30 
REMARK   11  A    between atoms: CA_30  and  C_31 
REMARK   12  A    between atoms: CA_30  and  CB_33 
REMARK       I    between atoms: C_31  and  N_37 
REMARK   13  A    between atoms: CB_33  and  CG_34 
REMARK       I    between atoms: CG_34  and  ND2_36 
ROOT
ATOM      1  CD  ACE d           4.138  -8.934   0.588  0.00  0.00    -0.065 C 
ATOM      2  CG  ACE d           4.836  -7.671   1.158  0.00  0.00    -0.062 C 
ATOM      3  CE  ACE d           4.858  -9.373  -0.702  0.00  0.00    -0.062 C 
ATOM      4  CB  ACE d           4.860  -6.483   0.140  0.00  0.00    -0.033 C 
ATOM      5  CH  ACE d           4.953  -8.208  -1.704  0.00  0.00    -0.033 C 
ATOM      6  CA  ACE d           5.555  -6.892  -1.172  0.00  0.00     0.114 C 
ATOM      7  H12 ACE d           3.086  -8.703   0.362  0.00  0.00     0.033 H 
ATOM      8  H13 ACE d           4.184  -9.746   1.329  0.00  0.00     0.033 H 
ATOM      9  H14 ACE d           5.872  -7.930   1.422  0.00  0.00     0.033 H 
ATOM     10  H15 ACE d           4.297  -7.349   2.062  0.00  0.00     0.033 H 
ATOM     11  H16 ACE d           4.297 -10.199  -1.164  0.00  0.00     0.033 H 
ATOM     12  H17 ACE d           5.873  -9.714  -0.449  0.00  0.00     0.033 H 
ATOM     13  H18 ACE d           5.405  -5.638   0.587  0.00  0.00     0.037 H 
ATOM     14  H19 ACE d           3.826  -6.177  -0.080  0.00  0.00     0.037 H 
ATOM     15  H20 ACE d           3.936  -7.990  -2.062  0.00  0.00     0.037 H 
ATOM     16  H21 ACE d           5.574  -8.542  -2.548  0.00  0.00     0.037 H 
ENDROOT
BRANCH   6  17
ATOM     17  N   ACE d           6.980  -7.160  -0.950  0.00  0.00    -0.341 N 
ATOM     18  C   ACE d           7.709  -7.941  -1.737  0.00  0.00     0.241 C 
ATOM     19  O   ACE d           7.284  -8.489  -2.743  0.00  0.00    -0.271 OA
ATOM     20  H22 ACE d           7.426  -6.732  -0.164  0.00  0.00     0.163 HD
BRANCH  18  21
ATOM     21  CA  ACE d           9.158  -8.128  -1.309  0.00  0.00     0.093 C 
ATOM     22  H5  ACE d           9.203  -8.733  -0.392  0.00  0.00     0.088 H 
BRANCH  21  23
ATOM     23  N   ACE d           9.883  -8.814  -2.413  0.00  0.00    -0.348 N 
ATOM     24  C   ACE d          10.382 -10.051  -2.240  0.00  0.00     0.214 C 
ATOM     25  O   ACE d          10.247 -10.712  -1.204  0.00  0.00    -0.274 OA
ATOM     26  H4  ACE d          10.000  -8.350  -3.291  0.00  0.00     0.163 HD
BRANCH  24  27
ATOM     27  CH3 ACE d          11.150 -10.654  -3.443  0.00  0.00    -0.003 C 
ATOM     28  H1  ACE d          12.000 -10.005  -3.699  0.00  0.00     0.040 H 
ATOM     29  H2  ACE d          10.475 -10.730  -4.308  0.00  0.00     0.040 H 
ATOM     30  H3  ACE d          11.519 -11.655  -3.178  0.00  0.00     0.040 H 
ENDBRANCH  24  27
ENDBRANCH  21  23
BRANCH  21  31
ATOM     31  CB  ACE d           9.832  -6.732  -1.060  0.00  0.00    -0.014 C 
ATOM     32  H6  ACE d           9.097  -5.936  -1.250  0.00  0.00     0.043 H 
ATOM     33  H7  ACE d          10.686  -6.614  -1.743  0.00  0.00     0.043 H 
BRANCH  31  34
ATOM     34  CG  ACE d          10.323  -6.629   0.381  0.00  0.00    -0.056 A 
ATOM     35  CD1 ACE d           9.871  -7.568   1.288  0.00  0.00    -0.074 A 
ATOM     36  CE1 ACE d          10.240  -7.428   2.627  0.00  0.00    -0.050 A 
ATOM     37  H8  ACE d           9.245  -8.393   0.969  0.00  0.00     0.084 H 
ATOM     38  CZ  ACE d          11.086  -6.371   3.029  0.00  0.00     0.082 A 
ATOM     39  H10 ACE d           9.875  -8.135   3.363  0.00  0.00     0.087 H 
ATOM     40  CE2 ACE d          11.538  -5.419   2.127  0.00  0.00    -0.050 A 
ATOM     41  CD2 ACE d          11.186  -5.564   0.764  0.00  0.00    -0.074 A 
ATOM     42  H11 ACE d          12.146  -4.585   2.459  0.00  0.00     0.087 H 
ATOM     43  H9  ACE d          11.568  -4.873   0.022  0.00  0.00     0.084 H 
BRANCH  38  44
ATOM     44  OH  ACE d          11.344  -6.389   4.382  0.00  0.00    -0.240 OA
BRANCH  44  45
ATOM     45  P   ACE d          12.096  -7.643   5.154  0.00  0.00     0.427 P 
ATOM     46  O1P ACE d          12.713  -8.455   3.950  0.00  0.00    -0.617 OA
ATOM     47  O2P ACE d          13.164  -7.183   6.050  0.00  0.00    -0.617 OA
ATOM     48  O3P ACE d          11.035  -8.463   5.780  0.00  0.00    -0.617 OA
ENDBRANCH  44  45
ENDBRANCH  38  44
ENDBRANCH  31  34
ENDBRANCH  21  31
ENDBRANCH  18  21
ENDBRANCH   6  17
BRANCH   6  49
ATOM     49  C   ACE d           5.420  -5.688  -2.150  0.00  0.00     0.246 C 
ATOM     50  O   ACE d           5.312  -4.485  -1.762  0.00  0.00    -0.271 OA
ATOM     51  N   ACE d           5.563  -6.019  -3.452  0.00  0.00    -0.345 N 
ATOM     52  H23 ACE d           5.692  -6.978  -3.704  0.00  0.00     0.163 HD
BRANCH  51  53
ATOM     53  CA  ACE d           5.530  -4.994  -4.506  0.00  0.00     0.097 C 
ATOM     54  H24 ACE d           5.417  -4.017  -4.014  0.00  0.00     0.088 H 
BRANCH  53  55
ATOM     55  C   ACE d           4.339  -5.152  -5.447  0.00  0.00     0.238 C 
ATOM     56  O   ACE d           3.690  -4.173  -5.769  0.00  0.00    -0.271 OA
ATOM     57  N   ACE d           3.969  -6.371  -5.782  0.00  0.00    -0.368 N 
ATOM     58  H29 ACE d           3.191  -6.507  -6.397  0.00  0.00     0.159 HD
ATOM     59  H30 ACE d           4.465  -7.161  -5.422  0.00  0.00     0.159 HD
ENDBRANCH  53  55
BRANCH  53  60
ATOM     60  CB  ACE d           6.894  -4.984  -5.252  0.00  0.00     0.036 C 
ATOM     61  H25 ACE d           7.194  -3.941  -5.434  0.00  0.00     0.051 H 
ATOM     62  H26 ACE d           6.779  -5.505  -6.214  0.00  0.00     0.051 H 
BRANCH  60  63
ATOM     63  CG  ACE d           8.005  -5.690  -4.424  0.00  0.00     0.217 C 
ATOM     64  OD1 ACE d           8.262  -5.295  -3.263  0.00  0.00    -0.274 OA
ATOM     65  ND2 ACE d           8.612  -6.696  -5.037  0.00  0.00    -0.370 N 
ATOM     66  H27 ACE d           9.338  -7.200  -4.571  0.00  0.00     0.159 HD
ATOM     67  H28 ACE d           8.344  -6.949  -5.967  0.00  0.00     0.159 HD
ENDBRANCH  60  63
ENDBRANCH  53  60
ENDBRANCH  51  53
ENDBRANCH   6  49
TORSDOF 13
ENDMDL
MODEL 10
REMARK VINA RESULT:      -2.3      2.893      4.711
REMARK  13 active torsions:
REMARK  status: ('A' for Active; 'I' for Inactive)
REMARK    1  A    between atoms: C_1  and  CH3_3 
REMARK       I    between atoms: N_4  and  C_1 
REMARK    2  A    between atoms: CA_5  and  N_4 
REMARK    3  A    between atoms: C_6  and  CA_5 
REMARK    4  A    between atoms: CA_5  and  CB_8 
REMARK       I    between atoms: N_26  and  C_6 
REMARK    5  A    between atoms: CB_8  and  CG_9 
REMARK    6  A    between atoms: CZ_14  and  OH_15 
REMARK    7  A    between atoms: OH_15  and  P_16 
REMARK    8  A    between atoms: CA_28  and  N_26 
REMARK    9  A    between atoms: C_27  and  CA_28 
REMARK       I    between atoms: C_27  and  N_29 
REMARK   10  A    between atoms: N_29  and  CA_30 
REMARK   11  A    between atoms: CA_30  and  C_31 
REMARK   12  A    between atoms: CA_30  and  CB_33 
REMARK       I    between atoms: C_31  and  N_37 
REMARK   13  A    between atoms: CB_33  and  CG_34 
REMARK       I    between atoms: CG_34  and  ND2_36 
ROOT
ATOM      1  CD  ACE d          11.697  -9.320   4.641  0.00  0.00    -0.065 C 
ATOM      2  CG  ACE d          10.838  -8.320   5.459  0.00  0.00    -0.062 C 
ATOM      3  CE  ACE d          11.590  -8.975   3.144  0.00  0.00    -0.062 C 
ATOM      4  CB  ACE d           9.335  -8.321   5.026  0.00  0.00    -0.033 C 
ATOM      5  CH  ACE d          10.118  -8.909   2.697  0.00  0.00    -0.033 C 
ATOM      6  CA  ACE d           9.190  -8.001   3.527  0.00  0.00     0.114 C 
ATOM      7  H12 ACE d          11.331 -10.343   4.811  0.00  0.00     0.033 H 
ATOM      8  H13 ACE d          12.748  -9.249   4.961  0.00  0.00     0.033 H 
ATOM      9  H14 ACE d          11.245  -7.308   5.317  0.00  0.00     0.033 H 
ATOM     10  H15 ACE d          10.898  -8.592   6.524  0.00  0.00     0.033 H 
ATOM     11  H16 ACE d          12.109  -9.749   2.558  0.00  0.00     0.033 H 
ATOM     12  H17 ACE d          12.066  -7.999   2.964  0.00  0.00     0.033 H 
ATOM     13  H18 ACE d           8.792  -7.563   5.610  0.00  0.00     0.037 H 
ATOM     14  H19 ACE d           8.904  -9.314   5.225  0.00  0.00     0.037 H 
ATOM     15  H20 ACE d           9.710  -9.929   2.735  0.00  0.00     0.037 H 
ATOM     16  H21 ACE d          10.099  -8.546   1.659  0.00  0.00     0.037 H 
ENDROOT
BRANCH   6  17
ATOM     17  N   ACE d           9.610  -6.624   3.242  0.00  0.00    -0.341 N 
ATOM     18  C   ACE d           9.969  -6.203   2.036  0.00  0.00     0.241 C 
ATOM     19  O   ACE d           9.956  -6.903   1.034  0.00  0.00    -0.271 OA
ATOM     20  H22 ACE d           9.626  -5.968   3.996  0.00  0.00     0.163 HD
BRANCH  18  21
ATOM     21  CA  ACE d          10.415  -4.750   1.957  0.00  0.00     0.093 C 
ATOM     22  H5  ACE d           9.566  -4.113   1.671  0.00  0.00     0.088 H 
BRANCH  21  23
ATOM     23  N   ACE d          10.930  -4.350   3.294  0.00  0.00    -0.348 N 
ATOM     24  C   ACE d          12.031  -4.929   3.806  0.00  0.00     0.214 C 
ATOM     25  O   ACE d          12.705  -5.778   3.212  0.00  0.00    -0.274 OA
ATOM     26  H4  ACE d          10.453  -3.643   3.817  0.00  0.00     0.163 HD
BRANCH  24  27
ATOM     27  CH3 ACE d          12.456  -4.461   5.221  0.00  0.00    -0.003 C 
ATOM     28  H1  ACE d          13.488  -4.081   5.187  0.00  0.00     0.040 H 
ATOM     29  H2  ACE d          12.400  -5.309   5.919  0.00  0.00     0.040 H 
ATOM     30  H3  ACE d          11.782  -3.662   5.561  0.00  0.00     0.040 H 
ENDBRANCH  24  27
ENDBRANCH  21  23
BRANCH  21  31
ATOM     31  CB  ACE d          11.573  -4.597   0.908  0.00  0.00    -0.014 C 
ATOM     32  H6  ACE d          12.373  -5.315   1.143  0.00  0.00     0.043 H 
ATOM     33  H7  ACE d          11.973  -3.573   0.957  0.00  0.00     0.043 H 
BRANCH  31  34
ATOM     34  CG  ACE d          11.053  -4.867  -0.500  0.00  0.00    -0.056 A 
ATOM     35  CD1 ACE d           9.901  -4.218  -0.901  0.00  0.00    -0.074 A 
ATOM     36  CE1 ACE d           9.366  -4.529  -2.151  0.00  0.00    -0.050 A 
ATOM     37  H8  ACE d           9.424  -3.485  -0.260  0.00  0.00     0.084 H 
ATOM     38  CZ  ACE d          10.012  -5.458  -2.996  0.00  0.00     0.082 A 
ATOM     39  H10 ACE d           8.447  -4.054  -2.477  0.00  0.00     0.087 H 
ATOM     40  CE2 ACE d          11.165  -6.121  -2.599  0.00  0.00    -0.050 A 
ATOM     41  CD2 ACE d          11.727  -5.797  -1.341  0.00  0.00    -0.074 A 
ATOM     42  H11 ACE d          11.623  -6.868  -3.237  0.00  0.00     0.087 H 
ATOM     43  H9  ACE d          12.657  -6.252  -1.022  0.00  0.00     0.084 H 
BRANCH  38  44
ATOM     44  OH  ACE d           9.345  -5.641  -4.187  0.00  0.00    -0.240 OA
BRANCH  44  45
ATOM     45  P   ACE d           8.255  -6.855  -4.449  0.00  0.00     0.427 P 
ATOM     46  O1P ACE d           7.161  -6.565  -3.349  0.00  0.00    -0.617 OA
ATOM     47  O2P ACE d           7.654  -6.784  -5.786  0.00  0.00    -0.617 OA
ATOM     48  O3P ACE d           8.934  -8.126  -4.111  0.00  0.00    -0.617 OA
ENDBRANCH  44  45
ENDBRANCH  38  44
ENDBRANCH  31  34
ENDBRANCH  21  31
ENDBRANCH  18  21
ENDBRANCH   6  17
BRANCH   6  49
ATOM     49  C   ACE d           7.679  -8.144   3.178  0.00  0.00     0.246 C 
ATOM     50  O   ACE d           6.922  -9.017   3.702  0.00  0.00    -0.271 OA
ATOM     51  N   ACE d           7.209  -7.171   2.366  0.00  0.00    -0.345 N 
ATOM     52  H23 ACE d           7.837  -6.477   2.016  0.00  0.00     0.163 HD
BRANCH  51  53
ATOM     53  CA  ACE d           5.788  -7.115   1.988  0.00  0.00     0.097 C 
ATOM     54  H24 ACE d           5.262  -7.889   2.567  0.00  0.00     0.088 H 
BRANCH  53  55
ATOM     55  C   ACE d           5.556  -7.436   0.515  0.00  0.00     0.238 C 
ATOM     56  O   ACE d           4.898  -8.412   0.205  0.00  0.00    -0.271 OA
ATOM     57  N   ACE d           6.188  -6.711  -0.386  0.00  0.00    -0.368 N 
ATOM     58  H29 ACE d           6.056  -6.897  -1.360  0.00  0.00     0.159 HD
ATOM     59  H30 ACE d           6.800  -5.975  -0.096  0.00  0.00     0.159 HD
ENDBRANCH  53  55
BRANCH  53  60
ATOM     60  CB  ACE d           5.200  -5.739   2.409  0.00  0.00     0.036 C 
ATOM     61  H25 ACE d           4.126  -5.723   2.174  0.00  0.00     0.051 H 
ATOM     62  H26 ACE d           5.711  -4.945   1.846  0.00  0.00     0.051 H 
BRANCH  60  63
ATOM     63  CG  ACE d           5.387  -5.478   3.931  0.00  0.00     0.217 C 
ATOM     64  OD1 ACE d           5.080  -6.369   4.758  0.00  0.00    -0.274 OA
ATOM     65  ND2 ACE d           5.878  -4.288   4.243  0.00  0.00    -0.370 N 
ATOM     66  H27 ACE d           6.027  -4.044   5.202  0.00  0.00     0.159 HD
ATOM     67  H28 ACE d           6.100  -3.633   3.520  0.00  0.00     0.159 HD
ENDBRANCH  60  63
ENDBRANCH  53  60
ENDBRANCH  51  53
ENDBRANCH   6  49
TORSDOF 13
ENDMDL
