REMARK  3 active torsions:
REMARK  status: ('A' for Active; 'I' for Inactive)
REMARK    1  A    between atoms: C13_2  and  C15_3 
REMARK       I    between atoms: C13_2  and  N12_12 
REMARK    2  A    between atoms: N12_12  and  C8_13 
REMARK    3  A    between atoms: C6_18  and  C2_19 
ROOT
ATOM      1  O14 MOL d          -9.212  55.432  13.803  0.00  0.00    -0.267 OA
ATOM      2  C13 MOL d          -8.888  55.596  12.616  0.00  0.00     0.256 C 
ATOM      3  N12 MOL d          -7.804  54.999  12.103  0.00  0.00    -0.323 N 
ATOM      4  H6  MOL d          -7.594  55.163  11.139  0.00  0.00     0.169 HD
ENDROOT
BRANCH   3   5
ATOM      5  C8  MOL d          -6.944  54.161  12.824  0.00  0.00     0.035 A 
ATOM      6  C7  MOL d          -5.602  54.149  12.458  0.00  0.00    -0.043 A 
ATOM      7  C6  MOL d          -4.714  53.344  13.177  0.00  0.00     0.014 A 
ATOM      8  H7  MOL d          -5.251  54.754  11.630  0.00  0.00     0.088 H 
ATOM      9  C11 MOL d          -5.116  52.558  14.243  0.00  0.00    -0.069 A 
ATOM     10  C10 MOL d          -6.471  52.569  14.568  0.00  0.00    -0.080 A 
ATOM     11  H10 MOL d          -4.406  51.959  14.802  0.00  0.00     0.085 H 
ATOM     12  C9  MOL d          -7.400  53.329  13.861  0.00  0.00    -0.057 A 
ATOM     13  H9  MOL d          -6.814  51.965  15.400  0.00  0.00     0.083 H 
ATOM     14  H8  MOL d          -8.455  53.280  14.106  0.00  0.00     0.086 H 
BRANCH   7  15
ATOM     15  C2  MOL d          -3.293  53.344  12.809  0.00  0.00     0.168 A 
ATOM     16  N3  MOL d          -2.808  53.628  11.588  0.00  0.00    -0.268 N 
ATOM     17  N4  MOL d          -1.442  53.452  11.662  0.00  0.00    -0.005 NA
ATOM     18  H11 MOL d          -3.349  53.919  10.761  0.00  0.00     0.185 HD
ATOM     19  N5  MOL d          -1.129  53.062  12.922  0.00  0.00     0.018 NA
ATOM     20  N1  MOL d          -2.278  53.018  13.630  0.00  0.00    -0.142 NA
ENDBRANCH   7  15
ENDBRANCH   3   5
BRANCH   2  21
ATOM     21  C15 MOL d          -9.693  56.510  11.742  0.00  0.00     0.033 A 
ATOM     22  C20 MOL d         -10.716  57.250  12.348  0.00  0.00    -0.054 A 
ATOM     23  C19 MOL d         -11.427  58.159  11.583  0.00  0.00     0.012 A 
ATOM     24  H1  MOL d         -10.947  57.113  13.398  0.00  0.00     0.086 H 
ATOM     25  C23 MOL d         -12.521  59.022  11.941  0.00  0.00     0.008 A 
ATOM     26  C18 MOL d         -11.131  58.320  10.238  0.00  0.00     0.088 A 
ATOM     27  N22 MOL d         -12.835  59.684  10.807  0.00  0.00    -0.288 N 
ATOM     28  H2  MOL d         -12.994  59.120  12.917  0.00  0.00     0.115 H 
ATOM     29  N21 MOL d         -11.997  59.260   9.773  0.00  0.00    -0.175 NA
ATOM     30  H3  MOL d         -13.578  60.392  10.718  0.00  0.00     0.188 HD
ATOM     31  C17 MOL d         -10.119  57.596   9.618  0.00  0.00    -0.052 A 
ATOM     32  C16 MOL d          -9.378  56.700  10.377  0.00  0.00    -0.065 A 
ATOM     33  H4  MOL d          -9.912  57.728   8.562  0.00  0.00     0.087 H 
ATOM     34  H5  MOL d          -8.562  56.149   9.925  0.00  0.00     0.085 H 
ENDBRANCH   2  21
TORSDOF 3
