MODEL 1
REMARK VINA RESULT:      -8.4      0.000      0.000
REMARK  3 active torsions:
REMARK  status: ('A' for Active; 'I' for Inactive)
REMARK    1  A    between atoms: C13_2  and  C15_3 
REMARK       I    between atoms: C13_2  and  N12_12 
REMARK    2  A    between atoms: N12_12  and  C8_13 
REMARK    3  A    between atoms: C6_18  and  C2_19 
ROOT
ATOM      1  O14 MOL d          -8.852  55.104  13.355  0.00  0.00    -0.267 OA
ATOM      2  C13 MOL d          -8.841  55.307  12.131  0.00  0.00     0.256 C 
ATOM      3  N12 MOL d          -8.097  54.555  11.309  0.00  0.00    -0.323 N 
ATOM      4  H6  MOL d          -8.131  54.761  10.330  0.00  0.00     0.169 HD
ENDROOT
BRANCH   3   5
ATOM      5  C8  MOL d          -7.274  53.501  11.725  0.00  0.00     0.035 A 
ATOM      6  C7  MOL d          -5.920  53.771  11.895  0.00  0.00    -0.043 A 
ATOM      7  C6  MOL d          -5.079  52.746  12.337  0.00  0.00     0.014 A 
ATOM      8  H7  MOL d          -5.525  54.759  11.690  0.00  0.00     0.088 H 
ATOM      9  C11 MOL d          -5.539  51.470  12.615  0.00  0.00    -0.069 A 
ATOM     10  C10 MOL d          -6.895  51.223  12.407  0.00  0.00    -0.080 A 
ATOM     11  H10 MOL d          -4.873  50.696  12.979  0.00  0.00     0.085 H 
ATOM     12  C9  MOL d          -7.767  52.202  11.937  0.00  0.00    -0.057 A 
ATOM     13  H9  MOL d          -7.284  50.234  12.619  0.00  0.00     0.083 H 
ATOM     14  H8  MOL d          -8.807  51.967  11.740  0.00  0.00     0.086 H 
BRANCH   7  15
ATOM     15  C2  MOL d          -3.653  53.030  12.539  0.00  0.00     0.168 A 
ATOM     16  N3  MOL d          -2.703  52.948  11.591  0.00  0.00    -0.268 N 
ATOM     17  N4  MOL d          -1.507  53.235  12.214  0.00  0.00    -0.005 NA
ATOM     18  H11 MOL d          -2.842  52.716  10.597  0.00  0.00     0.185 HD
ATOM     19  N5  MOL d          -1.755  53.481  13.524  0.00  0.00     0.018 NA
ATOM     20  N1  MOL d          -3.088  53.372  13.711  0.00  0.00    -0.142 NA
ENDBRANCH   7  15
ENDBRANCH   3   5
BRANCH   2  21
ATOM     21  C15 MOL d          -9.637  56.439  11.555  0.00  0.00     0.033 A 
ATOM     22  C20 MOL d         -10.781  56.847  12.253  0.00  0.00    -0.054 A 
ATOM     23  C19 MOL d         -11.495  57.938  11.788  0.00  0.00     0.012 A 
ATOM     24  H1  MOL d         -11.101  56.317  13.143  0.00  0.00     0.086 H 
ATOM     25  C23 MOL d         -12.695  58.548  12.293  0.00  0.00     0.008 A 
ATOM     26  C18 MOL d         -11.083  58.603  10.643  0.00  0.00     0.088 A 
ATOM     27  N22 MOL d         -12.956  59.568  11.448  0.00  0.00    -0.288 N 
ATOM     28  H2  MOL d         -13.270  58.251  13.169  0.00  0.00     0.115 H 
ATOM     29  N21 MOL d         -11.984  59.603  10.446  0.00  0.00    -0.175 NA
ATOM     30  H3  MOL d         -13.750  60.219  11.529  0.00  0.00     0.188 HD
ATOM     31  C17 MOL d          -9.951  58.214   9.936  0.00  0.00    -0.052 A 
ATOM     32  C16 MOL d          -9.208  57.139  10.404  0.00  0.00    -0.065 A 
ATOM     33  H4  MOL d          -9.654  58.740   9.036  0.00  0.00     0.087 H 
ATOM     34  H5  MOL d          -8.303  56.838   9.890  0.00  0.00     0.085 H 
ENDBRANCH   2  21
TORSDOF 3
ENDMDL
MODEL 2
REMARK VINA RESULT:      -7.2      1.579      8.316
REMARK  3 active torsions:
REMARK  status: ('A' for Active; 'I' for Inactive)
REMARK    1  A    between atoms: C13_2  and  C15_3 
REMARK       I    between atoms: C13_2  and  N12_12 
REMARK    2  A    between atoms: N12_12  and  C8_13 
REMARK    3  A    between atoms: C6_18  and  C2_19 
ROOT
ATOM      1  O14 MOL d          -8.706  53.660  13.392  0.00  0.00    -0.267 OA
ATOM      2  C13 MOL d          -7.943  53.583  12.417  0.00  0.00     0.256 C 
ATOM      3  N12 MOL d          -8.341  53.951  11.192  0.00  0.00    -0.323 N 
ATOM      4  H6  MOL d          -7.682  53.872  10.444  0.00  0.00     0.169 HD
ENDROOT
BRANCH   3   5
ATOM      5  C8  MOL d          -9.618  54.438  10.886  0.00  0.00     0.035 A 
ATOM      6  C7  MOL d          -9.848  55.798  11.070  0.00  0.00    -0.043 A 
ATOM      7  C6  MOL d         -11.105  56.319  10.747  0.00  0.00     0.014 A 
ATOM      8  H7  MOL d          -9.067  56.442  11.457  0.00  0.00     0.088 H 
ATOM      9  C11 MOL d         -12.131  55.536  10.248  0.00  0.00    -0.069 A 
ATOM     10  C10 MOL d         -11.880  54.173  10.102  0.00  0.00    -0.080 A 
ATOM     11  H10 MOL d         -13.090  55.965   9.982  0.00  0.00     0.085 H 
ATOM     12  C9  MOL d         -10.656  53.601  10.440  0.00  0.00    -0.057 A 
ATOM     13  H9  MOL d         -12.665  53.536   9.710  0.00  0.00     0.083 H 
ATOM     14  H8  MOL d         -10.506  52.530  10.361  0.00  0.00     0.086 H 
BRANCH   7  15
ATOM     15  C2  MOL d         -11.346  57.757  10.919  0.00  0.00     0.168 A 
ATOM     16  N3  MOL d         -11.115  58.453  12.046  0.00  0.00    -0.268 N 
ATOM     17  N4  MOL d         -11.533  59.743  11.797  0.00  0.00    -0.005 NA
ATOM     18  H11 MOL d         -10.706  58.094  12.920  0.00  0.00     0.185 HD
ATOM     19  N5  MOL d         -12.012  59.801  10.530  0.00  0.00     0.018 NA
ATOM     20  N1  MOL d         -11.873  58.573   9.988  0.00  0.00    -0.142 NA
ENDBRANCH   7  15
ENDBRANCH   3   5
BRANCH   2  21
ATOM     21  C15 MOL d          -6.561  53.029  12.593  0.00  0.00     0.033 A 
ATOM     22  C20 MOL d          -5.506  53.944  12.695  0.00  0.00    -0.054 A 
ATOM     23  C19 MOL d          -4.228  53.467  12.934  0.00  0.00     0.012 A 
ATOM     24  H1  MOL d          -5.686  55.008  12.589  0.00  0.00     0.086 H 
ATOM     25  C23 MOL d          -2.981  54.172  13.064  0.00  0.00     0.008 A 
ATOM     26  C18 MOL d          -4.005  52.105  13.058  0.00  0.00     0.088 A 
ATOM     27  N22 MOL d          -2.054  53.215  13.279  0.00  0.00    -0.288 N 
ATOM     28  H2  MOL d          -2.819  55.248  13.003  0.00  0.00     0.115 H 
ATOM     29  N21 MOL d          -2.670  51.961  13.274  0.00  0.00    -0.175 NA
ATOM     30  H3  MOL d          -1.048  53.382  13.424  0.00  0.00     0.188 HD
ATOM     31  C17 MOL d          -5.039  51.180  12.961  0.00  0.00    -0.052 A 
ATOM     32  C16 MOL d          -6.330  51.643  12.749  0.00  0.00    -0.065 A 
ATOM     33  H4  MOL d          -4.841  50.118  13.049  0.00  0.00     0.087 H 
ATOM     34  H5  MOL d          -7.158  50.946  12.703  0.00  0.00     0.085 H 
ENDBRANCH   2  21
TORSDOF 3
ENDMDL
MODEL 3
REMARK VINA RESULT:      -6.7      1.793      1.980
REMARK  3 active torsions:
REMARK  status: ('A' for Active; 'I' for Inactive)
REMARK    1  A    between atoms: C13_2  and  C15_3 
REMARK       I    between atoms: C13_2  and  N12_12 
REMARK    2  A    between atoms: N12_12  and  C8_13 
REMARK    3  A    between atoms: C6_18  and  C2_19 
ROOT
ATOM      1  O14 MOL d          -8.882  55.674  13.503  0.00  0.00    -0.267 OA
ATOM      2  C13 MOL d          -8.870  55.364  12.301  0.00  0.00     0.256 C 
ATOM      3  N12 MOL d          -8.015  54.449  11.827  0.00  0.00    -0.323 N 
ATOM      4  H6  MOL d          -8.054  54.235  10.851  0.00  0.00     0.169 HD
ENDROOT
BRANCH   3   5
ATOM      5  C8  MOL d          -7.068  53.770  12.606  0.00  0.00     0.035 A 
ATOM      6  C7  MOL d          -5.804  53.577  12.058  0.00  0.00    -0.043 A 
ATOM      7  C6  MOL d          -4.830  52.928  12.821  0.00  0.00     0.014 A 
ATOM      8  H7  MOL d          -5.579  53.925  11.056  0.00  0.00     0.088 H 
ATOM      9  C11 MOL d          -5.071  52.470  14.105  0.00  0.00    -0.069 A 
ATOM     10  C10 MOL d          -6.355  52.653  14.616  0.00  0.00    -0.080 A 
ATOM     11  H10 MOL d          -4.294  51.990  14.689  0.00  0.00     0.085 H 
ATOM     12  C9  MOL d          -7.369  53.264  13.882  0.00  0.00    -0.057 A 
ATOM     13  H9  MOL d          -6.572  52.306  15.620  0.00  0.00     0.083 H 
ATOM     14  H8  MOL d          -8.371  53.348  14.288  0.00  0.00     0.086 H 
BRANCH   7  15
ATOM     15  C2  MOL d          -3.488  52.741  12.256  0.00  0.00     0.168 A 
ATOM     16  N3  MOL d          -2.959  51.562  11.887  0.00  0.00    -0.268 N 
ATOM     17  N4  MOL d          -1.671  51.827  11.472  0.00  0.00    -0.005 NA
ATOM     18  H11 MOL d          -3.424  50.643  11.910  0.00  0.00     0.185 HD
ATOM     19  N5  MOL d          -1.445  53.157  11.602  0.00  0.00     0.018 NA
ATOM     20  N1  MOL d          -2.582  53.718  12.068  0.00  0.00    -0.142 NA
ENDBRANCH   7  15
ENDBRANCH   3   5
BRANCH   2  21
ATOM     21  C15 MOL d          -9.798  56.051  11.344  0.00  0.00     0.033 A 
ATOM     22  C20 MOL d         -10.846  55.296  10.803  0.00  0.00    -0.054 A 
ATOM     23  C19 MOL d         -11.763  55.921   9.976  0.00  0.00     0.012 A 
ATOM     24  H1  MOL d         -10.936  54.240  11.028  0.00  0.00     0.086 H 
ATOM     25  C23 MOL d         -12.906  55.389   9.284  0.00  0.00     0.008 A 
ATOM     26  C18 MOL d         -11.633  57.271   9.686  0.00  0.00     0.088 A 
ATOM     27  N22 MOL d         -13.435  56.436   8.616  0.00  0.00    -0.288 N 
ATOM     28  H2  MOL d         -13.268  54.362   9.296  0.00  0.00     0.115 H 
ATOM     29  N21 MOL d         -12.665  57.577   8.855  0.00  0.00    -0.175 NA
ATOM     30  H3  MOL d         -14.275  56.399   8.021  0.00  0.00     0.188 HD
ATOM     31  C17 MOL d         -10.601  58.039  10.214  0.00  0.00    -0.052 A 
ATOM     32  C16 MOL d          -9.688  57.433  11.067  0.00  0.00    -0.065 A 
ATOM     33  H4  MOL d         -10.510  59.090   9.964  0.00  0.00     0.087 H 
ATOM     34  H5  MOL d          -8.895  58.018  11.517  0.00  0.00     0.085 H 
ENDBRANCH   2  21
TORSDOF 3
ENDMDL
MODEL 4
REMARK VINA RESULT:      -6.4      2.035      2.254
REMARK  3 active torsions:
REMARK  status: ('A' for Active; 'I' for Inactive)
REMARK    1  A    between atoms: C13_2  and  C15_3 
REMARK       I    between atoms: C13_2  and  N12_12 
REMARK    2  A    between atoms: N12_12  and  C8_13 
REMARK    3  A    between atoms: C6_18  and  C2_19 
ROOT
ATOM      1  O14 MOL d          -9.181  52.419  11.501  0.00  0.00    -0.267 OA
ATOM      2  C13 MOL d          -9.069  53.655  11.458  0.00  0.00     0.256 C 
ATOM      3  N12 MOL d          -8.087  54.287  12.113  0.00  0.00    -0.323 N 
ATOM      4  H6  MOL d          -8.043  55.283  12.038  0.00  0.00     0.169 HD
ENDROOT
BRANCH   3   5
ATOM      5  C8  MOL d          -7.117  53.649  12.896  0.00  0.00     0.035 A 
ATOM      6  C7  MOL d          -5.835  53.538  12.368  0.00  0.00    -0.043 A 
ATOM      7  C6  MOL d          -4.838  52.931  13.138  0.00  0.00     0.014 A 
ATOM      8  H7  MOL d          -5.612  53.917  11.378  0.00  0.00     0.088 H 
ATOM      9  C11 MOL d          -5.075  52.436  14.409  0.00  0.00    -0.069 A 
ATOM     10  C10 MOL d          -6.376  52.535  14.899  0.00  0.00    -0.080 A 
ATOM     11  H10 MOL d          -4.282  51.990  14.998  0.00  0.00     0.085 H 
ATOM     12  C9  MOL d          -7.410  53.102  14.158  0.00  0.00    -0.057 A 
ATOM     13  H9  MOL d          -6.590  52.158  15.893  0.00  0.00     0.083 H 
ATOM     14  H8  MOL d          -8.422  53.122  14.546  0.00  0.00     0.086 H 
BRANCH   7  15
ATOM     15  C2  MOL d          -3.478  52.832  12.594  0.00  0.00     0.168 A 
ATOM     16  N3  MOL d          -3.040  53.448  11.483  0.00  0.00    -0.268 N 
ATOM     17  N4  MOL d          -1.736  53.039  11.300  0.00  0.00    -0.005 NA
ATOM     18  H11 MOL d          -3.573  54.098  10.886  0.00  0.00     0.185 HD
ATOM     19  N5  MOL d          -1.413  52.182  12.300  0.00  0.00     0.018 NA
ATOM     20  N1  MOL d          -2.490  52.076  13.107  0.00  0.00    -0.142 NA
ENDBRANCH   7  15
ENDBRANCH   3   5
BRANCH   2  21
ATOM     21  C15 MOL d         -10.072  54.468  10.696  0.00  0.00     0.033 A 
ATOM     22  C20 MOL d         -10.126  55.842  10.961  0.00  0.00    -0.054 A 
ATOM     23  C19 MOL d         -10.988  56.633  10.220  0.00  0.00     0.012 A 
ATOM     24  H1  MOL d          -9.503  56.279  11.733  0.00  0.00     0.086 H 
ATOM     25  C23 MOL d         -11.251  58.045  10.294  0.00  0.00     0.008 A 
ATOM     26  C18 MOL d         -11.788  56.063   9.241  0.00  0.00     0.088 A 
ATOM     27  N22 MOL d         -12.186  58.281   9.349  0.00  0.00    -0.288 N 
ATOM     28  H2  MOL d         -10.795  58.769  10.968  0.00  0.00     0.115 H 
ATOM     29  N21 MOL d         -12.515  57.083   8.710  0.00  0.00    -0.175 NA
ATOM     30  H3  MOL d         -12.594  59.202   9.132  0.00  0.00     0.188 HD
ATOM     31  C17 MOL d         -11.748  54.702   8.962  0.00  0.00    -0.052 A 
ATOM     32  C16 MOL d         -10.870  53.899   9.677  0.00  0.00    -0.065 A 
ATOM     33  H4  MOL d         -12.391  54.275   8.201  0.00  0.00     0.087 H 
ATOM     34  H5  MOL d         -10.796  52.841   9.455  0.00  0.00     0.085 H 
ENDBRANCH   2  21
TORSDOF 3
ENDMDL
MODEL 5
REMARK VINA RESULT:      -6.0      1.708      8.543
REMARK  3 active torsions:
REMARK  status: ('A' for Active; 'I' for Inactive)
REMARK    1  A    between atoms: C13_2  and  C15_3 
REMARK       I    between atoms: C13_2  and  N12_12 
REMARK    2  A    between atoms: N12_12  and  C8_13 
REMARK    3  A    between atoms: C6_18  and  C2_19 
ROOT
ATOM      1  O14 MOL d          -9.681  53.170  11.912  0.00  0.00    -0.267 OA
ATOM      2  C13 MOL d          -8.758  53.999  11.969  0.00  0.00     0.256 C 
ATOM      3  N12 MOL d          -8.855  55.189  11.363  0.00  0.00    -0.323 N 
ATOM      4  H6  MOL d          -8.083  55.819  11.446  0.00  0.00     0.169 HD
ENDROOT
BRANCH   3   5
ATOM      5  C8  MOL d          -9.965  55.613  10.620  0.00  0.00     0.035 A 
ATOM      6  C7  MOL d         -10.779  56.590  11.183  0.00  0.00    -0.043 A 
ATOM      7  C6  MOL d         -11.878  57.054  10.454  0.00  0.00     0.014 A 
ATOM      8  H7  MOL d         -10.565  56.986  12.169  0.00  0.00     0.088 H 
ATOM      9  C11 MOL d         -12.188  56.581   9.190  0.00  0.00    -0.069 A 
ATOM     10  C10 MOL d         -11.370  55.582   8.665  0.00  0.00    -0.080 A 
ATOM     11  H10 MOL d         -13.032  56.972   8.633  0.00  0.00     0.085 H 
ATOM     12  C9  MOL d         -10.283  55.065   9.366  0.00  0.00    -0.057 A 
ATOM     13  H9  MOL d         -11.588  55.195   7.676  0.00  0.00     0.083 H 
ATOM     14  H8  MOL d          -9.694  54.254   8.952  0.00  0.00     0.086 H 
BRANCH   7  15
ATOM     15  C2  MOL d         -12.729  58.100  11.033  0.00  0.00     0.168 A 
ATOM     16  N3  MOL d         -13.638  58.824  10.357  0.00  0.00    -0.268 N 
ATOM     17  N4  MOL d         -14.163  59.727  11.257  0.00  0.00    -0.005 NA
ATOM     18  H11 MOL d         -13.892  58.724   9.364  0.00  0.00     0.185 HD
ATOM     19  N5  MOL d         -13.560  59.536  12.456  0.00  0.00     0.018 NA
ATOM     20  N1  MOL d         -12.689  58.513  12.313  0.00  0.00    -0.142 NA
ENDBRANCH   7  15
ENDBRANCH   3   5
BRANCH   2  21
ATOM     21  C15 MOL d          -7.489  53.655  12.690  0.00  0.00     0.033 A 
ATOM     22  C20 MOL d          -6.290  54.146  12.160  0.00  0.00    -0.054 A 
ATOM     23  C19 MOL d          -5.110  53.910  12.844  0.00  0.00     0.012 A 
ATOM     24  H1  MOL d          -6.286  54.702  11.229  0.00  0.00     0.086 H 
ATOM     25  C23 MOL d          -3.757  54.279  12.522  0.00  0.00     0.008 A 
ATOM     26  C18 MOL d          -5.123  53.189  14.028  0.00  0.00     0.088 A 
ATOM     27  N22 MOL d          -3.006  53.784  13.528  0.00  0.00    -0.288 N 
ATOM     28  H2  MOL d          -3.413  54.838  11.653  0.00  0.00     0.115 H 
ATOM     29  N21 MOL d          -3.829  53.122  14.442  0.00  0.00    -0.175 NA
ATOM     30  H3  MOL d          -1.984  53.880  13.610  0.00  0.00     0.188 HD
ATOM     31  C17 MOL d          -6.303  52.693  14.572  0.00  0.00    -0.052 A 
ATOM     32  C16 MOL d          -7.499  52.945  13.912  0.00  0.00    -0.065 A 
ATOM     33  H4  MOL d          -6.290  52.121  15.492  0.00  0.00     0.087 H 
ATOM     34  H5  MOL d          -8.435  52.599  14.333  0.00  0.00     0.085 H 
ENDBRANCH   2  21
TORSDOF 3
ENDMDL
MODEL 6
REMARK VINA RESULT:      -5.9      1.711      2.291
REMARK  3 active torsions:
REMARK  status: ('A' for Active; 'I' for Inactive)
REMARK    1  A    between atoms: C13_2  and  C15_3 
REMARK       I    between atoms: C13_2  and  N12_12 
REMARK    2  A    between atoms: N12_12  and  C8_13 
REMARK    3  A    between atoms: C6_18  and  C2_19 
ROOT
ATOM      1  O14 MOL d          -9.637  56.356  13.349  0.00  0.00    -0.267 OA
ATOM      2  C13 MOL d          -9.666  56.080  12.139  0.00  0.00     0.256 C 
ATOM      3  N12 MOL d          -8.714  55.324  11.576  0.00  0.00    -0.323 N 
ATOM      4  H6  MOL d          -8.791  55.129  10.598  0.00  0.00     0.169 HD
ENDROOT
BRANCH   3   5
ATOM      5  C8  MOL d          -7.618  54.787  12.263  0.00  0.00     0.035 A 
ATOM      6  C7  MOL d          -6.695  54.051  11.526  0.00  0.00    -0.043 A 
ATOM      7  C6  MOL d          -5.576  53.526  12.179  0.00  0.00     0.014 A 
ATOM      8  H7  MOL d          -6.841  53.888  10.465  0.00  0.00     0.088 H 
ATOM      9  C11 MOL d          -5.346  53.712  13.531  0.00  0.00    -0.069 A 
ATOM     10  C10 MOL d          -6.302  54.428  14.248  0.00  0.00    -0.080 A 
ATOM     11  H10 MOL d          -4.459  53.316  14.012  0.00  0.00     0.085 H 
ATOM     12  C9  MOL d          -7.450  54.943  13.650  0.00  0.00    -0.057 A 
ATOM     13  H9  MOL d          -6.147  54.591  15.308  0.00  0.00     0.083 H 
ATOM     14  H8  MOL d          -8.200  55.455  14.242  0.00  0.00     0.086 H 
BRANCH   7  15
ATOM     15  C2  MOL d          -4.588  52.768  11.402  0.00  0.00     0.168 A 
ATOM     16  N3  MOL d          -3.262  52.767  11.624  0.00  0.00    -0.268 N 
ATOM     17  N4  MOL d          -2.704  51.979  10.638  0.00  0.00    -0.005 NA
ATOM     18  H11 MOL d          -2.762  53.257  12.379  0.00  0.00     0.185 HD
ATOM     19  N5  MOL d          -3.701  51.524   9.839  0.00  0.00     0.018 NA
ATOM     20  N1  MOL d          -4.864  52.000  10.332  0.00  0.00    -0.142 NA
ENDBRANCH   7  15
ENDBRANCH   3   5
BRANCH   2  21
ATOM     21  C15 MOL d         -10.758  56.632  11.273  0.00  0.00     0.033 A 
ATOM     22  C20 MOL d         -11.211  57.928  11.551  0.00  0.00    -0.054 A 
ATOM     23  C19 MOL d         -12.165  58.495  10.722  0.00  0.00     0.012 A 
ATOM     24  H1  MOL d         -10.821  58.478  12.399  0.00  0.00     0.086 H 
ATOM     25  C23 MOL d         -12.807  59.780  10.786  0.00  0.00     0.008 A 
ATOM     26  C18 MOL d         -12.665  57.780   9.644  0.00  0.00     0.088 A 
ATOM     27  N22 MOL d         -13.658  59.803   9.737  0.00  0.00    -0.288 N 
ATOM     28  H2  MOL d         -12.643  60.566  11.521  0.00  0.00     0.115 H 
ATOM     29  N21 MOL d         -13.576  58.592   9.045  0.00  0.00    -0.175 NA
ATOM     30  H3  MOL d         -14.272  60.591   9.487  0.00  0.00     0.188 HD
ATOM     31  C17 MOL d         -12.228  56.493   9.352  0.00  0.00    -0.052 A 
ATOM     32  C16 MOL d         -11.252  55.920  10.156  0.00  0.00    -0.065 A 
ATOM     33  H4  MOL d         -12.641  55.946   8.511  0.00  0.00     0.087 H 
ATOM     34  H5  MOL d         -10.870  54.932   9.928  0.00  0.00     0.085 H 
ENDBRANCH   2  21
TORSDOF 3
ENDMDL
MODEL 7
REMARK VINA RESULT:      -5.6      2.008      8.487
REMARK  3 active torsions:
REMARK  status: ('A' for Active; 'I' for Inactive)
REMARK    1  A    between atoms: C13_2  and  C15_3 
REMARK       I    between atoms: C13_2  and  N12_12 
REMARK    2  A    between atoms: N12_12  and  C8_13 
REMARK    3  A    between atoms: C6_18  and  C2_19 
ROOT
ATOM      1  O14 MOL d          -7.938  54.810   9.678  0.00  0.00    -0.267 OA
ATOM      2  C13 MOL d          -8.228  54.089  10.646  0.00  0.00     0.256 C 
ATOM      3  N12 MOL d          -9.500  53.922  11.030  0.00  0.00    -0.323 N 
ATOM      4  H6  MOL d          -9.675  53.325  11.814  0.00  0.00     0.169 HD
ENDROOT
BRANCH   3   5
ATOM      5  C8  MOL d         -10.602  54.525  10.411  0.00  0.00     0.035 A 
ATOM      6  C7  MOL d         -10.957  55.802  10.832  0.00  0.00    -0.043 A 
ATOM      7  C6  MOL d         -12.035  56.442  10.214  0.00  0.00     0.014 A 
ATOM      8  H7  MOL d         -10.406  56.294  11.626  0.00  0.00     0.088 H 
ATOM      9  C11 MOL d         -12.765  55.855   9.195  0.00  0.00    -0.069 A 
ATOM     10  C10 MOL d         -12.404  54.564   8.814  0.00  0.00    -0.080 A 
ATOM     11  H10 MOL d         -13.583  56.378   8.713  0.00  0.00     0.085 H 
ATOM     12  C9  MOL d         -11.359  53.873   9.422  0.00  0.00    -0.057 A 
ATOM     13  H9  MOL d         -12.957  54.080   8.017  0.00  0.00     0.083 H 
ATOM     14  H8  MOL d         -11.132  52.851   9.138  0.00  0.00     0.086 H 
BRANCH   7  15
ATOM     15  C2  MOL d         -12.400  57.798  10.639  0.00  0.00     0.168 A 
ATOM     16  N3  MOL d         -12.176  58.315  11.860  0.00  0.00    -0.268 N 
ATOM     17  N4  MOL d         -12.725  59.580  11.853  0.00  0.00    -0.005 NA
ATOM     18  H11 MOL d         -11.691  57.857  12.645  0.00  0.00     0.185 HD
ATOM     19  N5  MOL d         -13.272  59.802  10.633  0.00  0.00     0.018 NA
ATOM     20  N1  MOL d         -13.048  58.702   9.882  0.00  0.00    -0.142 NA
ENDBRANCH   7  15
ENDBRANCH   3   5
BRANCH   2  21
ATOM     21  C15 MOL d          -7.140  53.422  11.432  0.00  0.00     0.033 A 
ATOM     22  C20 MOL d          -6.019  54.192  11.767  0.00  0.00    -0.054 A 
ATOM     23  C19 MOL d          -5.032  53.627  12.557  0.00  0.00     0.012 A 
ATOM     24  H1  MOL d          -5.925  55.212  11.413  0.00  0.00     0.086 H 
ATOM     25  C23 MOL d          -3.789  54.177  13.028  0.00  0.00     0.008 A 
ATOM     26  C18 MOL d          -5.155  52.318  12.996  0.00  0.00     0.088 A 
ATOM     27  N22 MOL d          -3.215  53.188  13.747  0.00  0.00    -0.288 N 
ATOM     28  H2  MOL d          -3.395  55.175  12.844  0.00  0.00     0.115 H 
ATOM     29  N21 MOL d          -4.038  52.060  13.728  0.00  0.00    -0.175 NA
ATOM     30  H3  MOL d          -2.309  53.256  14.234  0.00  0.00     0.188 HD
ATOM     31  C17 MOL d          -6.261  51.538  12.676  0.00  0.00    -0.052 A 
ATOM     32  C16 MOL d          -7.272  52.097  11.907  0.00  0.00    -0.065 A 
ATOM     33  H4  MOL d          -6.332  50.512  13.019  0.00  0.00     0.087 H 
ATOM     34  H5  MOL d          -8.159  51.521  11.672  0.00  0.00     0.085 H 
ENDBRANCH   2  21
TORSDOF 3
ENDMDL
MODEL 8
REMARK VINA RESULT:      -5.6      1.832      2.367
REMARK  3 active torsions:
REMARK  status: ('A' for Active; 'I' for Inactive)
REMARK    1  A    between atoms: C13_2  and  C15_3 
REMARK       I    between atoms: C13_2  and  N12_12 
REMARK    2  A    between atoms: N12_12  and  C8_13 
REMARK    3  A    between atoms: C6_18  and  C2_19 
ROOT
ATOM      1  O14 MOL d          -8.819  56.304  11.565  0.00  0.00    -0.267 OA
ATOM      2  C13 MOL d          -9.729  55.849  10.853  0.00  0.00     0.256 C 
ATOM      3  N12 MOL d          -9.614  54.654  10.259  0.00  0.00    -0.323 N 
ATOM      4  H6  MOL d         -10.381  54.336   9.701  0.00  0.00     0.169 HD
ENDROOT
BRANCH   3   5
ATOM      5  C8  MOL d          -8.495  53.820  10.365  0.00  0.00     0.035 A 
ATOM      6  C7  MOL d          -7.724  53.921  11.519  0.00  0.00    -0.043 A 
ATOM      7  C6  MOL d          -6.617  53.082  11.666  0.00  0.00     0.014 A 
ATOM      8  H7  MOL d          -7.979  54.639  12.290  0.00  0.00     0.088 H 
ATOM      9  C11 MOL d          -6.255  52.149  10.710  0.00  0.00    -0.069 A 
ATOM     10  C10 MOL d          -7.029  52.090   9.553  0.00  0.00    -0.080 A 
ATOM     11  H10 MOL d          -5.406  51.491  10.855  0.00  0.00     0.085 H 
ATOM     12  C9  MOL d          -8.123  52.928   9.345  0.00  0.00    -0.057 A 
ATOM     13  H9  MOL d          -6.771  51.367   8.787  0.00  0.00     0.083 H 
ATOM     14  H8  MOL d          -8.677  52.892   8.413  0.00  0.00     0.086 H 
BRANCH   7  15
ATOM     15  C2  MOL d          -5.813  53.170  12.892  0.00  0.00     0.168 A 
ATOM     16  N3  MOL d          -6.286  53.026  14.142  0.00  0.00    -0.268 N 
ATOM     17  N4  MOL d          -5.219  53.243  14.988  0.00  0.00    -0.005 NA
ATOM     18  H11 MOL d          -7.253  52.799  14.413  0.00  0.00     0.185 HD
ATOM     19  N5  MOL d          -4.125  53.517  14.235  0.00  0.00     0.018 NA
ATOM     20  N1  MOL d          -4.497  53.449  12.939  0.00  0.00    -0.142 NA
ENDBRANCH   7  15
ENDBRANCH   3   5
BRANCH   2  21
ATOM     21  C15 MOL d         -10.965  56.662  10.612  0.00  0.00     0.033 A 
ATOM     22  C20 MOL d         -11.381  57.526  11.633  0.00  0.00    -0.054 A 
ATOM     23  C19 MOL d         -12.475  58.345  11.412  0.00  0.00     0.012 A 
ATOM     24  H1  MOL d         -10.855  57.552  12.581  0.00  0.00     0.086 H 
ATOM     25  C23 MOL d         -13.115  59.298  12.280  0.00  0.00     0.008 A 
ATOM     26  C18 MOL d         -13.147  58.298  10.200  0.00  0.00     0.088 A 
ATOM     27  N22 MOL d         -14.138  59.803  11.557  0.00  0.00    -0.288 N 
ATOM     28  H2  MOL d         -12.834  59.556  13.300  0.00  0.00     0.115 H 
ATOM     29  N21 MOL d         -14.162  59.198  10.298  0.00  0.00    -0.175 NA
ATOM     30  H3  MOL d         -14.798  60.522  11.884  0.00  0.00     0.188 HD
ATOM     31  C17 MOL d         -12.750  57.449   9.174  0.00  0.00    -0.052 A 
ATOM     32  C16 MOL d         -11.638  56.640   9.369  0.00  0.00    -0.065 A 
ATOM     33  H4  MOL d         -13.297  57.418   8.238  0.00  0.00     0.087 H 
ATOM     34  H5  MOL d         -11.288  55.994   8.573  0.00  0.00     0.085 H 
ENDBRANCH   2  21
TORSDOF 3
ENDMDL
MODEL 9
REMARK VINA RESULT:      -5.6      2.148      8.468
REMARK  3 active torsions:
REMARK  status: ('A' for Active; 'I' for Inactive)
REMARK    1  A    between atoms: C13_2  and  C15_3 
REMARK       I    between atoms: C13_2  and  N12_12 
REMARK    2  A    between atoms: N12_12  and  C8_13 
REMARK    3  A    between atoms: C6_18  and  C2_19 
ROOT
ATOM      1  O14 MOL d          -6.669  53.971  10.059  0.00  0.00    -0.267 OA
ATOM      2  C13 MOL d          -6.890  53.233  11.032  0.00  0.00     0.256 C 
ATOM      3  N12 MOL d          -8.138  53.007  11.463  0.00  0.00    -0.323 N 
ATOM      4  H6  MOL d          -8.257  52.399  12.248  0.00  0.00     0.169 HD
ENDROOT
BRANCH   3   5
ATOM      5  C8  MOL d          -9.288  53.564  10.890  0.00  0.00     0.035 A 
ATOM      6  C7  MOL d          -9.505  54.925  11.078  0.00  0.00    -0.043 A 
ATOM      7  C6  MOL d         -10.630  55.515  10.495  0.00  0.00     0.014 A 
ATOM      8  H7  MOL d          -8.814  55.517  11.666  0.00  0.00     0.088 H 
ATOM      9  C11 MOL d         -11.538  54.799   9.733  0.00  0.00    -0.069 A 
ATOM     10  C10 MOL d         -11.309  53.432   9.586  0.00  0.00    -0.080 A 
ATOM     11  H10 MOL d         -12.391  55.282   9.270  0.00  0.00     0.085 H 
ATOM     12  C9  MOL d         -10.221  52.792  10.175  0.00  0.00    -0.057 A 
ATOM     13  H9  MOL d         -12.002  52.847   8.993  0.00  0.00     0.083 H 
ATOM     14  H8  MOL d         -10.095  51.719  10.084  0.00  0.00     0.086 H 
BRANCH   7  15
ATOM     15  C2  MOL d         -10.853  56.955  10.672  0.00  0.00     0.168 A 
ATOM     16  N3  MOL d         -10.636  57.894   9.735  0.00  0.00    -0.268 N 
ATOM     17  N4  MOL d         -10.910  59.108  10.330  0.00  0.00    -0.005 NA
ATOM     18  H11 MOL d         -10.326  57.739   8.765  0.00  0.00     0.185 HD
ATOM     19  N5  MOL d         -11.283  58.879  11.614  0.00  0.00     0.018 NA
ATOM     20  N1  MOL d         -11.264  57.543  11.810  0.00  0.00    -0.142 NA
ENDBRANCH   7  15
ENDBRANCH   3   5
BRANCH   2  21
ATOM     21  C15 MOL d          -5.744  52.610  11.772  0.00  0.00     0.033 A 
ATOM     22  C20 MOL d          -4.506  52.556  11.120  0.00  0.00    -0.054 A 
ATOM     23  C19 MOL d          -3.411  52.056  11.806  0.00  0.00     0.012 A 
ATOM     24  H1  MOL d          -4.407  52.898  10.097  0.00  0.00     0.086 H 
ATOM     25  C23 MOL d          -2.050  51.873  11.378  0.00  0.00     0.008 A 
ATOM     26  C18 MOL d          -3.550  51.611  13.111  0.00  0.00     0.088 A 
ATOM     27  N22 MOL d          -1.413  51.341  12.443  0.00  0.00    -0.288 N 
ATOM     28  H2  MOL d          -1.625  52.113  10.404  0.00  0.00     0.115 H 
ATOM     29  N21 MOL d          -2.319  51.179  13.494  0.00  0.00    -0.175 NA
ATOM     30  H3  MOL d          -0.414  51.093  12.475  0.00  0.00     0.188 HD
ATOM     31  C17 MOL d          -4.770  51.657  13.776  0.00  0.00    -0.052 A 
ATOM     32  C16 MOL d          -5.872  52.181  13.113  0.00  0.00    -0.065 A 
ATOM     33  H4  MOL d          -4.860  51.292  14.793  0.00  0.00     0.087 H 
ATOM     34  H5  MOL d          -6.826  52.259  13.621  0.00  0.00     0.085 H 
ENDBRANCH   2  21
TORSDOF 3
ENDMDL
