MODEL 1
REMARK VINA RESULT:      -7.8      0.000      0.000
REMARK  20 active torsions:
REMARK  status: ('A' for Active; 'I' for Inactive)
REMARK    1  A    between atoms: C3_3  and  C7_7 
REMARK    2  A    between atoms: C4_4  and  C27_27 
REMARK    3  A    between atoms: C7_7  and  C8_8 
REMARK    4  A    between atoms: C8_8  and  C9_9 
REMARK    5  A    between atoms: C9_9  and  C10_10 
REMARK    6  A    between atoms: C10_10  and  C11_11 
REMARK    7  A    between atoms: C11_11  and  C12_12 
REMARK    8  A    between atoms: C12_12  and  C13_13 
REMARK    9  A    between atoms: C13_13  and  C14_14 
REMARK   10  A    between atoms: C14_14  and  C15_15 
REMARK   11  A    between atoms: C15_15  and  C16_16 
REMARK       I    between atoms: C16_16  and  N17_17 
REMARK   12  A    between atoms: N17_17  and  C18_18 
REMARK   13  A    between atoms: C18_18  and  C20_20 
REMARK   14  A    between atoms: C18_18  and  C21_21 
REMARK   15  A    between atoms: C20_20  and  C23_23 
REMARK       I    between atoms: C21_21  and  N22_22 
REMARK   16  A    between atoms: N22_22  and  O32_32 
REMARK   17  A    between atoms: C23_23  and  C24_24 
REMARK   18  A    between atoms: C24_24  and  C25_25 
REMARK   19  A    between atoms: C25_25  and  N26_26 
REMARK   20  A    between atoms: C27_27  and  N28_28 
REMARK       I    between atoms: N28_28  and  C29_29 
REMARK       I    between atoms: C29_29  and  N30_30 
ROOT
ATOM      1  C12 FA4 d          28.842   6.082  15.992  0.00  0.00    -0.065 C 
ATOM      2  H15 FA4 d          28.619   5.639  16.974  0.00  0.00     0.033 H 
ATOM      3  H16 FA4 d          27.923   6.512  15.567  0.00  0.00     0.033 H 
ENDROOT
BRANCH   1   4
ATOM      4  C11 FA4 d          29.337   4.974  15.058  0.00  0.00    -0.065 C 
ATOM      5  H13 FA4 d          30.075   5.401  14.362  0.00  0.00     0.033 H 
ATOM      6  H14 FA4 d          29.815   4.189  15.663  0.00  0.00     0.033 H 
BRANCH   4   7
ATOM      7  C10 FA4 d          28.200   4.347  14.247  0.00  0.00    -0.065 C 
ATOM      8  H11 FA4 d          27.432   5.115  14.072  0.00  0.00     0.033 H 
ATOM      9  H12 FA4 d          28.605   4.007  13.283  0.00  0.00     0.033 H 
BRANCH   7  10
ATOM     10  C9  FA4 d          27.545   3.153  14.948  0.00  0.00    -0.065 C 
ATOM     11  H9  FA4 d          28.292   2.352  15.051  0.00  0.00     0.033 H 
ATOM     12  H10 FA4 d          27.208   3.472  15.945  0.00  0.00     0.033 H 
BRANCH  10  13
ATOM     13  C8  FA4 d          26.343   2.603  14.178  0.00  0.00    -0.061 C 
ATOM     14  H7  FA4 d          26.441   2.887  13.120  0.00  0.00     0.033 H 
ATOM     15  H8  FA4 d          26.340   1.506  14.265  0.00  0.00     0.033 H 
BRANCH  13  16
ATOM     16  C7  FA4 d          25.005   3.144  14.712  0.00  0.00    -0.040 C 
ATOM     17  H5  FA4 d          24.843   2.747  15.726  0.00  0.00     0.040 H 
ATOM     18  H6  FA4 d          25.058   4.242  14.752  0.00  0.00     0.040 H 
BRANCH  16  19
ATOM     19  C3  FA4 d          23.839   2.745  13.843  0.00  0.00    -0.050 A 
ATOM     20  C2  FA4 d          23.245   1.451  14.013  0.00  0.00    -0.076 A 
ATOM     21  C1  FA4 d          22.141   1.045  13.204  0.00  0.00    -0.082 A 
ATOM     22  H2  FA4 d          23.638   0.774  14.762  0.00  0.00     0.084 H 
ATOM     23  C6  FA4 d          21.608   1.920  12.204  0.00  0.00    -0.082 A 
ATOM     24  H1  FA4 d          21.701   0.064  13.349  0.00  0.00     0.083 H 
ATOM     25  C5  FA4 d          22.184   3.223  12.014  0.00  0.00    -0.075 A 
ATOM     26  H4  FA4 d          20.772   1.600  11.592  0.00  0.00     0.083 H 
ATOM     27  C4  FA4 d          23.298   3.649  12.822  0.00  0.00    -0.034 A 
ATOM     28  H3  FA4 d          21.779   3.888  11.260  0.00  0.00     0.084 H 
BRANCH  27  29
ATOM     29  C27 FA4 d          23.838   5.044  12.555  0.00  0.00     0.033 C 
ATOM     30  H37 FA4 d          23.418   5.416  11.610  0.00  0.00     0.072 H 
ATOM     31  H38 FA4 d          24.933   4.995  12.476  0.00  0.00     0.072 H 
BRANCH  29  32
ATOM     32  N28 FA4 d          23.477   5.968  13.638  0.00  0.00    -0.223 N 
ATOM     33  C29 FA4 d          22.260   6.617  13.631  0.00  0.00     0.665 C 
ATOM     34  N30 FA4 d          21.700   6.968  14.783  0.00  0.00    -0.235 N 
ATOM     35  N31 FA4 d          21.628   6.897  12.482  0.00  0.00    -0.235 N 
ATOM     36  H40 FA4 d          20.791   7.453  14.787  0.00  0.00     0.174 HD
ATOM     37  H41 FA4 d          22.174   6.755  15.672  0.00  0.00     0.174 HD
ATOM     38  H42 FA4 d          22.052   6.630  11.582  0.00  0.00     0.174 HD
ATOM     39  H43 FA4 d          20.718   7.380  12.499  0.00  0.00     0.174 HD
ATOM     40  H39 FA4 d          24.139   6.133  14.409  0.00  0.00     0.178 HD
ENDBRANCH  29  32
ENDBRANCH  27  29
ENDBRANCH  16  19
ENDBRANCH  13  16
ENDBRANCH  10  13
ENDBRANCH   7  10
ENDBRANCH   4   7
ENDBRANCH   1   4
BRANCH   1  41
ATOM     41  C13 FA4 d          29.857   7.203  16.185  0.00  0.00    -0.065 C 
ATOM     42  H17 FA4 d          29.320   8.161  16.232  0.00  0.00     0.033 H 
ATOM     43  H18 FA4 d          30.542   7.209  15.324  0.00  0.00     0.033 H 
BRANCH  41  44
ATOM     44  C14 FA4 d          30.682   7.040  17.466  0.00  0.00    -0.057 C 
ATOM     45  H19 FA4 d          31.198   6.069  17.425  0.00  0.00     0.033 H 
ATOM     46  H20 FA4 d          29.995   7.054  18.325  0.00  0.00     0.033 H 
BRANCH  44  47
ATOM     47  C15 FA4 d          31.730   8.135  17.668  0.00  0.00     0.009 C 
ATOM     48  H21 FA4 d          32.152   8.048  18.680  0.00  0.00     0.047 H 
ATOM     49  H22 FA4 d          31.250   9.118  17.554  0.00  0.00     0.047 H 
BRANCH  47  50
ATOM     50  C16 FA4 d          32.862   8.005  16.638  0.00  0.00     0.218 C 
ATOM     51  N17 FA4 d          32.922   9.093  15.839  0.00  0.00    -0.348 N 
ATOM     52  H23 FA4 d          32.263   9.833  15.973  0.00  0.00     0.163 HD
ATOM     53  O19 FA4 d          33.594   7.013  16.598  0.00  0.00    -0.274 OA
BRANCH  51  54
ATOM     54  C18 FA4 d          33.918   9.217  14.792  0.00  0.00     0.091 C 
ATOM     55  H24 FA4 d          34.901   8.913  15.180  0.00  0.00     0.087 H 
BRANCH  54  56
ATOM     56  C20 FA4 d          33.971  10.688  14.374  0.00  0.00    -0.038 C 
ATOM     57  H25 FA4 d          33.193  11.235  14.928  0.00  0.00     0.036 H 
ATOM     58  H26 FA4 d          33.766  10.750  13.295  0.00  0.00     0.036 H 
BRANCH  56  59
ATOM     59  C23 FA4 d          35.314  11.356  14.648  0.00  0.00    -0.061 C 
ATOM     60  H28 FA4 d          36.094  10.837  14.071  0.00  0.00     0.033 H 
ATOM     61  H29 FA4 d          35.539  11.278  15.722  0.00  0.00     0.033 H 
BRANCH  59  62
ATOM     62  C24 FA4 d          35.306  12.832  14.251  0.00  0.00    -0.043 C 
ATOM     63  H30 FA4 d          34.282  13.220  14.354  0.00  0.00     0.035 H 
ATOM     64  H31 FA4 d          35.626  12.918  13.202  0.00  0.00     0.035 H 
BRANCH  62  65
ATOM     65  C25 FA4 d          36.241  13.676  15.120  0.00  0.00     0.080 C 
ATOM     66  H32 FA4 d          37.265  13.290  15.013  0.00  0.00     0.075 H 
ATOM     67  H33 FA4 d          35.922  13.587  16.169  0.00  0.00     0.075 H 
BRANCH  65  68
ATOM     68  N26 FA4 d          36.232  15.085  14.746  0.00  0.00    -0.079 N 
ATOM     69  H34 FA4 d          36.860  15.596  15.345  0.00  0.00     0.274 HD
ATOM     70  H35 FA4 d          35.299  15.453  14.847  0.00  0.00     0.274 HD
ATOM     71  H36 FA4 d          36.529  15.180  13.788  0.00  0.00     0.274 HD
ENDBRANCH  65  68
ENDBRANCH  62  65
ENDBRANCH  59  62
ENDBRANCH  56  59
ENDBRANCH  54  56
BRANCH  54  72
ATOM     72  C21 FA4 d          33.549   8.311  13.604  0.00  0.00     0.263 C 
ATOM     73  N22 FA4 d          34.609   7.770  12.984  0.00  0.00    -0.236 N 
ATOM     74  H27 FA4 d          35.535   7.970  13.302  0.00  0.00     0.197 HD
ATOM     75  O33 FA4 d          32.381   8.117  13.286  0.00  0.00    -0.269 OA
BRANCH  73  76
ATOM     76  O32 FA4 d          34.407   6.924  11.890  0.00  0.00    -0.287 OA
ATOM     77  H44 FA4 d          35.248   6.624  11.564  0.00  0.00     0.244 HD
ENDBRANCH  73  76
ENDBRANCH  54  72
ENDBRANCH  51  54
ENDBRANCH  47  50
ENDBRANCH  44  47
ENDBRANCH  41  44
ENDBRANCH   1  41
TORSDOF 20
ENDMDL
