MODEL 1
REMARK VINA RESULT:      -8.1      0.000      0.000
REMARK  20 active torsions:
REMARK  status: ('A' for Active; 'I' for Inactive)
REMARK    1  A    between atoms: C3_3  and  C7_7 
REMARK    2  A    between atoms: C4_4  and  C27_27 
REMARK    3  A    between atoms: C7_7  and  C8_8 
REMARK    4  A    between atoms: C8_8  and  C9_9 
REMARK    5  A    between atoms: C9_9  and  C10_10 
REMARK    6  A    between atoms: C10_10  and  C11_11 
REMARK    7  A    between atoms: C11_11  and  C12_12 
REMARK    8  A    between atoms: C12_12  and  C13_13 
REMARK    9  A    between atoms: C13_13  and  C14_14 
REMARK   10  A    between atoms: C14_14  and  C15_15 
REMARK   11  A    between atoms: C15_15  and  C16_16 
REMARK       I    between atoms: C16_16  and  N17_17 
REMARK   12  A    between atoms: N17_17  and  C18_18 
REMARK   13  A    between atoms: C18_18  and  C20_20 
REMARK   14  A    between atoms: C18_18  and  C21_21 
REMARK   15  A    between atoms: C20_20  and  C23_23 
REMARK       I    between atoms: C21_21  and  N22_22 
REMARK   16  A    between atoms: N22_22  and  O32_32 
REMARK   17  A    between atoms: C23_23  and  C24_24 
REMARK   18  A    between atoms: C24_24  and  C25_25 
REMARK   19  A    between atoms: C25_25  and  N26_26 
REMARK   20  A    between atoms: C27_27  and  N28_28 
REMARK       I    between atoms: N28_28  and  C29_29 
REMARK       I    between atoms: C29_29  and  N30_30 
ROOT
ATOM      1  C12 FA4 d          28.305   5.072  14.974  0.00  0.00    -0.065 C 
ATOM      2  H15 FA4 d          27.824   5.657  15.772  0.00  0.00     0.033 H 
ATOM      3  H16 FA4 d          28.954   5.730  14.378  0.00  0.00     0.033 H 
ENDROOT
BRANCH   1   4
ATOM      4  C11 FA4 d          27.214   4.507  14.060  0.00  0.00    -0.065 C 
ATOM      5  H13 FA4 d          26.232   4.816  14.448  0.00  0.00     0.033 H 
ATOM      6  H14 FA4 d          27.353   4.917  13.048  0.00  0.00     0.033 H 
BRANCH   4   7
ATOM      7  C10 FA4 d          27.255   2.979  13.983  0.00  0.00    -0.065 C 
ATOM      8  H11 FA4 d          27.219   2.682  12.924  0.00  0.00     0.033 H 
ATOM      9  H12 FA4 d          28.199   2.632  14.429  0.00  0.00     0.033 H 
BRANCH   7  10
ATOM     10  C9  FA4 d          26.093   2.305  14.718  0.00  0.00    -0.065 C 
ATOM     11  H9  FA4 d          25.608   1.594  14.033  0.00  0.00     0.033 H 
ATOM     12  H10 FA4 d          26.494   1.762  15.587  0.00  0.00     0.033 H 
BRANCH  10  13
ATOM     13  C8  FA4 d          25.045   3.304  15.208  0.00  0.00    -0.061 C 
ATOM     14  H7  FA4 d          25.478   3.898  16.027  0.00  0.00     0.033 H 
ATOM     15  H8  FA4 d          24.775   3.970  14.375  0.00  0.00     0.033 H 
BRANCH  13  16
ATOM     16  C7  FA4 d          23.769   2.615  15.721  0.00  0.00    -0.040 C 
ATOM     17  H5  FA4 d          24.037   1.625  16.120  0.00  0.00     0.040 H 
ATOM     18  H6  FA4 d          23.334   3.228  16.524  0.00  0.00     0.040 H 
BRANCH  16  19
ATOM     19  C3  FA4 d          22.739   2.437  14.634  0.00  0.00    -0.050 A 
ATOM     20  C2  FA4 d          22.748   1.239  13.845  0.00  0.00    -0.076 A 
ATOM     21  C1  FA4 d          21.786   1.042  12.809  0.00  0.00    -0.082 A 
ATOM     22  H2  FA4 d          23.493   0.476  14.037  0.00  0.00     0.084 H 
ATOM     23  C6  FA4 d          20.796   2.039  12.533  0.00  0.00    -0.082 A 
ATOM     24  H1  FA4 d          21.806   0.129  12.225  0.00  0.00     0.083 H 
ATOM     25  C5  FA4 d          20.764   3.248  13.310  0.00  0.00    -0.075 A 
ATOM     26  H4  FA4 d          20.073   1.882  11.741  0.00  0.00     0.083 H 
ATOM     27  C4  FA4 d          21.725   3.462  14.360  0.00  0.00    -0.034 A 
ATOM     28  H3  FA4 d          20.012   4.001  13.105  0.00  0.00     0.084 H 
BRANCH  27  29
ATOM     29  C27 FA4 d          21.612   4.765  15.132  0.00  0.00     0.033 C 
ATOM     30  H37 FA4 d          22.616   5.086  15.444  0.00  0.00     0.072 H 
ATOM     31  H38 FA4 d          20.986   4.602  16.021  0.00  0.00     0.072 H 
BRANCH  29  32
ATOM     32  N28 FA4 d          21.006   5.819  14.308  0.00  0.00    -0.223 N 
ATOM     33  C29 FA4 d          21.786   6.603  13.484  0.00  0.00     0.665 C 
ATOM     34  N30 FA4 d          21.258   7.119  12.380  0.00  0.00    -0.235 N 
ATOM     35  N31 FA4 d          23.072   6.851  13.774  0.00  0.00    -0.235 N 
ATOM     36  H40 FA4 d          21.834   7.706  11.759  0.00  0.00     0.174 HD
ATOM     37  H41 FA4 d          20.273   6.933  12.145  0.00  0.00     0.174 HD
ATOM     38  H42 FA4 d          23.492   6.456  14.627  0.00  0.00     0.174 HD
ATOM     39  H43 FA4 d          23.638   7.436  13.144  0.00  0.00     0.174 HD
ATOM     40  H39 FA4 d          19.988   5.974  14.345  0.00  0.00     0.178 HD
ENDBRANCH  29  32
ENDBRANCH  27  29
ENDBRANCH  16  19
ENDBRANCH  13  16
ENDBRANCH  10  13
ENDBRANCH   7  10
ENDBRANCH   4   7
ENDBRANCH   1   4
BRANCH   1  41
ATOM     41  C13 FA4 d          29.168   3.992  15.616  0.00  0.00    -0.065 C 
ATOM     42  H17 FA4 d          29.273   3.158  14.908  0.00  0.00     0.033 H 
ATOM     43  H18 FA4 d          28.667   3.638  16.529  0.00  0.00     0.033 H 
BRANCH  41  44
ATOM     44  C14 FA4 d          30.567   4.497  15.989  0.00  0.00    -0.057 C 
ATOM     45  H19 FA4 d          31.089   3.697  16.535  0.00  0.00     0.033 H 
ATOM     46  H20 FA4 d          30.457   5.375  16.641  0.00  0.00     0.033 H 
BRANCH  44  47
ATOM     47  C15 FA4 d          31.419   4.895  14.783  0.00  0.00     0.009 C 
ATOM     48  H21 FA4 d          30.757   5.194  13.957  0.00  0.00     0.047 H 
ATOM     49  H22 FA4 d          32.028   4.032  14.472  0.00  0.00     0.047 H 
BRANCH  47  50
ATOM     50  C16 FA4 d          32.349   6.066  15.133  0.00  0.00     0.218 C 
ATOM     51  N17 FA4 d          32.366   6.987  14.144  0.00  0.00    -0.348 N 
ATOM     52  H23 FA4 d          31.817   6.831  13.324  0.00  0.00     0.163 HD
ATOM     53  O19 FA4 d          32.971   6.107  16.197  0.00  0.00    -0.274 OA
BRANCH  51  54
ATOM     54  C18 FA4 d          33.161   8.197  14.243  0.00  0.00     0.091 C 
ATOM     55  H24 FA4 d          33.823   8.133  15.119  0.00  0.00     0.087 H 
BRANCH  54  56
ATOM     56  C20 FA4 d          32.196   9.371  14.420  0.00  0.00    -0.038 C 
ATOM     57  H25 FA4 d          31.180   9.026  14.178  0.00  0.00     0.036 H 
ATOM     58  H26 FA4 d          32.489  10.170  13.722  0.00  0.00     0.036 H 
BRANCH  56  59
ATOM     59  C23 FA4 d          32.184   9.948  15.832  0.00  0.00    -0.061 C 
ATOM     60  H28 FA4 d          32.550  10.985  15.796  0.00  0.00     0.033 H 
ATOM     61  H29 FA4 d          32.850   9.347  16.468  0.00  0.00     0.033 H 
BRANCH  59  62
ATOM     62  C24 FA4 d          30.781   9.939  16.438  0.00  0.00    -0.043 C 
ATOM     63  H30 FA4 d          30.045   9.876  15.623  0.00  0.00     0.035 H 
ATOM     64  H31 FA4 d          30.631  10.876  16.995  0.00  0.00     0.035 H 
BRANCH  62  65
ATOM     65  C25 FA4 d          30.562   8.761  17.389  0.00  0.00     0.080 C 
ATOM     66  H32 FA4 d          30.220   9.150  18.359  0.00  0.00     0.075 H 
ATOM     67  H33 FA4 d          31.518   8.233  17.521  0.00  0.00     0.075 H 
BRANCH  65  68
ATOM     68  N26 FA4 d          29.571   7.816  16.889  0.00  0.00    -0.079 N 
ATOM     69  H34 FA4 d          30.033   7.091  16.364  0.00  0.00     0.274 HD
ATOM     70  H35 FA4 d          28.918   8.299  16.292  0.00  0.00     0.274 HD
ATOM     71  H36 FA4 d          29.078   7.405  17.666  0.00  0.00     0.274 HD
ENDBRANCH  65  68
ENDBRANCH  62  65
ENDBRANCH  59  62
ENDBRANCH  56  59
ENDBRANCH  54  56
BRANCH  54  72
ATOM     72  C21 FA4 d          34.022   8.366  12.979  0.00  0.00     0.263 C 
ATOM     73  N22 FA4 d          34.554   9.590  12.844  0.00  0.00    -0.236 N 
ATOM     74  H27 FA4 d          34.375  10.295  13.529  0.00  0.00     0.197 HD
ATOM     75  O33 FA4 d          34.192   7.441  12.192  0.00  0.00    -0.269 OA
BRANCH  73  76
ATOM     76  O32 FA4 d          35.360   9.871  11.737  0.00  0.00    -0.287 OA
ATOM     77  H44 FA4 d          36.274   9.840  11.997  0.00  0.00     0.244 HD
ENDBRANCH  73  76
ENDBRANCH  54  72
ENDBRANCH  51  54
ENDBRANCH  47  50
ENDBRANCH  44  47
ENDBRANCH  41  44
ENDBRANCH   1  41
TORSDOF 20
ENDMDL
MODEL 2
REMARK VINA RESULT:      -8.0      1.153      1.770
REMARK  20 active torsions:
REMARK  status: ('A' for Active; 'I' for Inactive)
REMARK    1  A    between atoms: C3_3  and  C7_7 
REMARK    2  A    between atoms: C4_4  and  C27_27 
REMARK    3  A    between atoms: C7_7  and  C8_8 
REMARK    4  A    between atoms: C8_8  and  C9_9 
REMARK    5  A    between atoms: C9_9  and  C10_10 
REMARK    6  A    between atoms: C10_10  and  C11_11 
REMARK    7  A    between atoms: C11_11  and  C12_12 
REMARK    8  A    between atoms: C12_12  and  C13_13 
REMARK    9  A    between atoms: C13_13  and  C14_14 
REMARK   10  A    between atoms: C14_14  and  C15_15 
REMARK   11  A    between atoms: C15_15  and  C16_16 
REMARK       I    between atoms: C16_16  and  N17_17 
REMARK   12  A    between atoms: N17_17  and  C18_18 
REMARK   13  A    between atoms: C18_18  and  C20_20 
REMARK   14  A    between atoms: C18_18  and  C21_21 
REMARK   15  A    between atoms: C20_20  and  C23_23 
REMARK       I    between atoms: C21_21  and  N22_22 
REMARK   16  A    between atoms: N22_22  and  O32_32 
REMARK   17  A    between atoms: C23_23  and  C24_24 
REMARK   18  A    between atoms: C24_24  and  C25_25 
REMARK   19  A    between atoms: C25_25  and  N26_26 
REMARK   20  A    between atoms: C27_27  and  N28_28 
REMARK       I    between atoms: N28_28  and  C29_29 
REMARK       I    between atoms: C29_29  and  N30_30 
ROOT
ATOM      1  C12 FA4 d          28.524   5.096  15.110  0.00  0.00    -0.065 C 
ATOM      2  H15 FA4 d          27.940   5.752  15.772  0.00  0.00     0.033 H 
ATOM      3  H16 FA4 d          29.263   5.696  14.559  0.00  0.00     0.033 H 
ENDROOT
BRANCH   1   4
ATOM      4  C11 FA4 d          27.572   4.449  14.101  0.00  0.00    -0.065 C 
ATOM      5  H13 FA4 d          26.549   4.802  14.303  0.00  0.00     0.033 H 
ATOM      6  H14 FA4 d          27.871   4.752  13.087  0.00  0.00     0.033 H 
BRANCH   4   7
ATOM      7  C10 FA4 d          27.590   2.920  14.183  0.00  0.00    -0.065 C 
ATOM      8  H11 FA4 d          27.787   2.519  13.178  0.00  0.00     0.033 H 
ATOM      9  H12 FA4 d          28.399   2.617  14.864  0.00  0.00     0.033 H 
BRANCH   7  10
ATOM     10  C9  FA4 d          26.275   2.326  14.696  0.00  0.00    -0.065 C 
ATOM     11  H9  FA4 d          25.894   1.616  13.947  0.00  0.00     0.033 H 
ATOM     12  H10 FA4 d          26.472   1.795  15.638  0.00  0.00     0.033 H 
BRANCH  10  13
ATOM     13  C8  FA4 d          25.205   3.390  14.948  0.00  0.00    -0.061 C 
ATOM     14  H7  FA4 d          25.631   4.173  15.592  0.00  0.00     0.033 H 
ATOM     15  H8  FA4 d          24.908   3.828  13.984  0.00  0.00     0.033 H 
BRANCH  13  16
ATOM     16  C7  FA4 d          23.954   2.814  15.634  0.00  0.00    -0.040 C 
ATOM     17  H5  FA4 d          24.228   1.878  16.143  0.00  0.00     0.040 H 
ATOM     18  H6  FA4 d          23.591   3.542  16.376  0.00  0.00     0.040 H 
BRANCH  16  19
ATOM     19  C3  FA4 d          22.845   2.526  14.654  0.00  0.00    -0.050 A 
ATOM     20  C2  FA4 d          22.878   1.312  13.891  0.00  0.00    -0.076 A 
ATOM     21  C1  FA4 d          21.843   1.012  12.954  0.00  0.00    -0.082 A 
ATOM     22  H2  FA4 d          23.697   0.615  14.026  0.00  0.00     0.084 H 
ATOM     23  C6  FA4 d          20.755   1.920  12.754  0.00  0.00    -0.082 A 
ATOM     24  H1  FA4 d          21.883   0.087  12.389  0.00  0.00     0.083 H 
ATOM     25  C5  FA4 d          20.697   3.144  13.507  0.00  0.00    -0.075 A 
ATOM     26  H4  FA4 d          19.976   1.685  12.037  0.00  0.00     0.083 H 
ATOM     27  C4  FA4 d          21.731   3.462  14.456  0.00  0.00    -0.034 A 
ATOM     28  H3  FA4 d          19.871   3.830  13.359  0.00  0.00     0.084 H 
BRANCH  27  29
ATOM     29  C27 FA4 d          21.585   4.772  15.210  0.00  0.00     0.033 C 
ATOM     30  H37 FA4 d          22.578   5.109  15.541  0.00  0.00     0.072 H 
ATOM     31  H38 FA4 d          20.941   4.611  16.087  0.00  0.00     0.072 H 
BRANCH  29  32
ATOM     32  N28 FA4 d          20.986   5.809  14.359  0.00  0.00    -0.223 N 
ATOM     33  C29 FA4 d          21.761   6.523  13.471  0.00  0.00     0.665 C 
ATOM     34  N30 FA4 d          21.210   7.008  12.364  0.00  0.00    -0.235 N 
ATOM     35  N31 FA4 d          23.065   6.736  13.700  0.00  0.00    -0.235 N 
ATOM     36  H40 FA4 d          21.782   7.543  11.695  0.00  0.00     0.174 HD
ATOM     37  H41 FA4 d          20.210   6.848  12.175  0.00  0.00     0.174 HD
ATOM     38  H42 FA4 d          23.504   6.365  14.555  0.00  0.00     0.174 HD
ATOM     39  H43 FA4 d          23.628   7.269  13.022  0.00  0.00     0.174 HD
ATOM     40  H39 FA4 d          19.977   6.004  14.427  0.00  0.00     0.178 HD
ENDBRANCH  29  32
ENDBRANCH  27  29
ENDBRANCH  16  19
ENDBRANCH  13  16
ENDBRANCH  10  13
ENDBRANCH   7  10
ENDBRANCH   4   7
ENDBRANCH   1   4
BRANCH   1  41
ATOM     41  C13 FA4 d          29.269   4.080  15.969  0.00  0.00    -0.065 C 
ATOM     42  H17 FA4 d          29.058   3.072  15.585  0.00  0.00     0.033 H 
ATOM     43  H18 FA4 d          28.905   4.162  17.004  0.00  0.00     0.033 H 
BRANCH  41  44
ATOM     44  C14 FA4 d          30.786   4.299  15.964  0.00  0.00    -0.057 C 
ATOM     45  H19 FA4 d          31.278   3.319  16.048  0.00  0.00     0.033 H 
ATOM     46  H20 FA4 d          31.051   4.919  16.833  0.00  0.00     0.033 H 
BRANCH  44  47
ATOM     47  C15 FA4 d          31.303   4.991  14.702  0.00  0.00     0.009 C 
ATOM     48  H21 FA4 d          30.458   5.458  14.174  0.00  0.00     0.047 H 
ATOM     49  H22 FA4 d          31.776   4.243  14.048  0.00  0.00     0.047 H 
BRANCH  47  50
ATOM     50  C16 FA4 d          32.334   6.073  15.055  0.00  0.00     0.218 C 
ATOM     51  N17 FA4 d          32.439   6.989  14.067  0.00  0.00    -0.348 N 
ATOM     52  H23 FA4 d          31.880   6.884  13.244  0.00  0.00     0.163 HD
ATOM     53  O19 FA4 d          32.954   6.058  16.121  0.00  0.00    -0.274 OA
BRANCH  51  54
ATOM     54  C18 FA4 d          33.340   8.121  14.168  0.00  0.00     0.091 C 
ATOM     55  H24 FA4 d          33.973   8.011  15.060  0.00  0.00     0.087 H 
BRANCH  54  56
ATOM     56  C20 FA4 d          32.485   9.383  14.306  0.00  0.00    -0.038 C 
ATOM     57  H25 FA4 d          31.437   9.117  14.099  0.00  0.00     0.036 H 
ATOM     58  H26 FA4 d          32.830  10.119  13.565  0.00  0.00     0.036 H 
BRANCH  56  59
ATOM     59  C23 FA4 d          32.553  10.023  15.689  0.00  0.00    -0.061 C 
ATOM     60  H28 FA4 d          31.898   9.463  16.373  0.00  0.00     0.033 H 
ATOM     61  H29 FA4 d          32.204  11.064  15.617  0.00  0.00     0.033 H 
BRANCH  59  62
ATOM     62  C24 FA4 d          33.975  10.015  16.249  0.00  0.00    -0.043 C 
ATOM     63  H30 FA4 d          34.458   9.066  15.975  0.00  0.00     0.035 H 
ATOM     64  H31 FA4 d          33.923  10.096  17.345  0.00  0.00     0.035 H 
BRANCH  62  65
ATOM     65  C25 FA4 d          34.821  11.170  15.710  0.00  0.00     0.080 C 
ATOM     66  H32 FA4 d          34.732  11.191  14.615  0.00  0.00     0.075 H 
ATOM     67  H33 FA4 d          35.871  10.998  15.990  0.00  0.00     0.075 H 
BRANCH  65  68
ATOM     68  N26 FA4 d          34.402  12.463  16.237  0.00  0.00    -0.079 N 
ATOM     69  H34 FA4 d          35.164  12.880  16.749  0.00  0.00     0.274 HD
ATOM     70  H35 FA4 d          33.614  12.335  16.853  0.00  0.00     0.274 HD
ATOM     71  H36 FA4 d          34.139  13.067  15.475  0.00  0.00     0.274 HD
ENDBRANCH  65  68
ENDBRANCH  62  65
ENDBRANCH  59  62
ENDBRANCH  56  59
ENDBRANCH  54  56
BRANCH  54  72
ATOM     72  C21 FA4 d          34.242   8.190  12.923  0.00  0.00     0.263 C 
ATOM     73  N22 FA4 d          34.449   7.003  12.336  0.00  0.00    -0.236 N 
ATOM     74  H27 FA4 d          34.035   6.175  12.713  0.00  0.00     0.197 HD
ATOM     75  O33 FA4 d          34.705   9.255  12.527  0.00  0.00    -0.269 OA
BRANCH  73  76
ATOM     76  O32 FA4 d          35.250   6.931  11.193  0.00  0.00    -0.287 OA
ATOM     77  H44 FA4 d          35.139   7.724  10.680  0.00  0.00     0.244 HD
ENDBRANCH  73  76
ENDBRANCH  54  72
ENDBRANCH  51  54
ENDBRANCH  47  50
ENDBRANCH  44  47
ENDBRANCH  41  44
ENDBRANCH   1  41
TORSDOF 20
ENDMDL
MODEL 3
REMARK VINA RESULT:      -7.7      2.087      3.533
REMARK  20 active torsions:
REMARK  status: ('A' for Active; 'I' for Inactive)
REMARK    1  A    between atoms: C3_3  and  C7_7 
REMARK    2  A    between atoms: C4_4  and  C27_27 
REMARK    3  A    between atoms: C7_7  and  C8_8 
REMARK    4  A    between atoms: C8_8  and  C9_9 
REMARK    5  A    between atoms: C9_9  and  C10_10 
REMARK    6  A    between atoms: C10_10  and  C11_11 
REMARK    7  A    between atoms: C11_11  and  C12_12 
REMARK    8  A    between atoms: C12_12  and  C13_13 
REMARK    9  A    between atoms: C13_13  and  C14_14 
REMARK   10  A    between atoms: C14_14  and  C15_15 
REMARK   11  A    between atoms: C15_15  and  C16_16 
REMARK       I    between atoms: C16_16  and  N17_17 
REMARK   12  A    between atoms: N17_17  and  C18_18 
REMARK   13  A    between atoms: C18_18  and  C20_20 
REMARK   14  A    between atoms: C18_18  and  C21_21 
REMARK   15  A    between atoms: C20_20  and  C23_23 
REMARK       I    between atoms: C21_21  and  N22_22 
REMARK   16  A    between atoms: N22_22  and  O32_32 
REMARK   17  A    between atoms: C23_23  and  C24_24 
REMARK   18  A    between atoms: C24_24  and  C25_25 
REMARK   19  A    between atoms: C25_25  and  N26_26 
REMARK   20  A    between atoms: C27_27  and  N28_28 
REMARK       I    between atoms: N28_28  and  C29_29 
REMARK       I    between atoms: C29_29  and  N30_30 
ROOT
ATOM      1  C12 FA4 d          29.673   5.360  14.823  0.00  0.00    -0.065 C 
ATOM      2  H15 FA4 d          28.693   5.856  14.761  0.00  0.00     0.033 H 
ATOM      3  H16 FA4 d          30.329   5.743  14.028  0.00  0.00     0.033 H 
ENDROOT
BRANCH   1   4
ATOM      4  C11 FA4 d          29.474   3.857  14.607  0.00  0.00    -0.065 C 
ATOM      5  H13 FA4 d          29.225   3.681  13.550  0.00  0.00     0.033 H 
ATOM      6  H14 FA4 d          30.411   3.337  14.854  0.00  0.00     0.033 H 
BRANCH   4   7
ATOM      7  C10 FA4 d          28.351   3.290  15.479  0.00  0.00    -0.065 C 
ATOM      8  H11 FA4 d          28.796   2.622  16.231  0.00  0.00     0.033 H 
ATOM      9  H12 FA4 d          27.845   4.125  15.985  0.00  0.00     0.033 H 
BRANCH   7  10
ATOM     10  C9  FA4 d          27.308   2.500  14.683  0.00  0.00    -0.065 C 
ATOM     11  H9  FA4 d          27.826   1.914  13.909  0.00  0.00     0.033 H 
ATOM     12  H10 FA4 d          26.783   1.819  15.369  0.00  0.00     0.033 H 
BRANCH  10  13
ATOM     13  C8  FA4 d          26.275   3.401  14.005  0.00  0.00    -0.061 C 
ATOM     14  H7  FA4 d          26.658   4.432  13.995  0.00  0.00     0.033 H 
ATOM     15  H8  FA4 d          26.128   3.054  12.971  0.00  0.00     0.033 H 
BRANCH  13  16
ATOM     16  C7  FA4 d          24.917   3.386  14.727  0.00  0.00    -0.040 C 
ATOM     17  H5  FA4 d          24.990   2.729  15.606  0.00  0.00     0.040 H 
ATOM     18  H6  FA4 d          24.679   4.410  15.054  0.00  0.00     0.040 H 
BRANCH  16  19
ATOM     19  C3  FA4 d          23.803   2.888  13.841  0.00  0.00    -0.050 A 
ATOM     20  C2  FA4 d          23.304   1.556  14.021  0.00  0.00    -0.076 A 
ATOM     21  C1  FA4 d          22.250   1.056  13.197  0.00  0.00    -0.082 A 
ATOM     22  H2  FA4 d          23.730   0.922  14.789  0.00  0.00     0.084 H 
ATOM     23  C6  FA4 d          21.675   1.873  12.171  0.00  0.00    -0.082 A 
ATOM     24  H1  FA4 d          21.882   0.047  13.349  0.00  0.00     0.083 H 
ATOM     25  C5  FA4 d          22.157   3.212  11.971  0.00  0.00    -0.075 A 
ATOM     26  H4  FA4 d          20.879   1.482  11.548  0.00  0.00     0.083 H 
ATOM     27  C4  FA4 d          23.217   3.733  12.794  0.00  0.00    -0.034 A 
ATOM     28  H3  FA4 d          21.719   3.834  11.198  0.00  0.00     0.084 H 
BRANCH  27  29
ATOM     29  C27 FA4 d          23.657   5.160  12.515  0.00  0.00     0.033 C 
ATOM     30  H37 FA4 d          23.139   5.526  11.616  0.00  0.00     0.072 H 
ATOM     31  H38 FA4 d          24.743   5.173  12.342  0.00  0.00     0.072 H 
BRANCH  29  32
ATOM     32  N28 FA4 d          23.341   6.043  13.644  0.00  0.00    -0.223 N 
ATOM     33  C29 FA4 d          22.131   6.703  13.703  0.00  0.00     0.665 C 
ATOM     34  N30 FA4 d          21.612   7.012  14.886  0.00  0.00    -0.235 N 
ATOM     35  N31 FA4 d          21.465   7.034  12.588  0.00  0.00    -0.235 N 
ATOM     36  H40 FA4 d          20.709   7.504  14.939  0.00  0.00     0.174 HD
ATOM     37  H41 FA4 d          22.112   6.759  15.750  0.00  0.00     0.174 HD
ATOM     38  H42 FA4 d          21.857   6.800  11.665  0.00  0.00     0.174 HD
ATOM     39  H43 FA4 d          20.561   7.524  12.654  0.00  0.00     0.174 HD
ATOM     40  H39 FA4 d          24.029   6.171  14.400  0.00  0.00     0.178 HD
ENDBRANCH  29  32
ENDBRANCH  27  29
ENDBRANCH  16  19
ENDBRANCH  13  16
ENDBRANCH  10  13
ENDBRANCH   7  10
ENDBRANCH   4   7
ENDBRANCH   1   4
BRANCH   1  41
ATOM     41  C13 FA4 d          30.300   5.695  16.172  0.00  0.00    -0.065 C 
ATOM     42  H17 FA4 d          30.236   4.808  16.819  0.00  0.00     0.033 H 
ATOM     43  H18 FA4 d          29.735   6.522  16.627  0.00  0.00     0.033 H 
BRANCH  41  44
ATOM     44  C14 FA4 d          31.770   6.112  16.054  0.00  0.00    -0.057 C 
ATOM     45  H19 FA4 d          32.391   5.323  16.505  0.00  0.00     0.033 H 
ATOM     46  H20 FA4 d          31.910   7.051  16.609  0.00  0.00     0.033 H 
BRANCH  44  47
ATOM     47  C15 FA4 d          32.235   6.328  14.614  0.00  0.00     0.009 C 
ATOM     48  H21 FA4 d          31.429   6.030  13.926  0.00  0.00     0.047 H 
ATOM     49  H22 FA4 d          33.125   5.708  14.426  0.00  0.00     0.047 H 
BRANCH  47  50
ATOM     50  C16 FA4 d          32.588   7.801  14.368  0.00  0.00     0.218 C 
ATOM     51  N17 FA4 d          32.416   8.538  15.487  0.00  0.00    -0.348 N 
ATOM     52  H23 FA4 d          32.087   8.091  16.319  0.00  0.00     0.163 HD
ATOM     53  O19 FA4 d          32.978   8.202  13.268  0.00  0.00    -0.274 OA
BRANCH  51  54
ATOM     54  C18 FA4 d          32.696   9.961  15.515  0.00  0.00     0.091 C 
ATOM     55  H24 FA4 d          32.726  10.352  14.487  0.00  0.00     0.087 H 
BRANCH  54  56
ATOM     56  C20 FA4 d          34.066  10.151  16.170  0.00  0.00    -0.038 C 
ATOM     57  H25 FA4 d          34.437   9.167  16.491  0.00  0.00     0.036 H 
ATOM     58  H26 FA4 d          33.943  10.802  17.049  0.00  0.00     0.036 H 
BRANCH  56  59
ATOM     59  C23 FA4 d          35.105  10.780  15.248  0.00  0.00    -0.061 C 
ATOM     60  H28 FA4 d          35.623  11.584  15.792  0.00  0.00     0.033 H 
ATOM     61  H29 FA4 d          34.595  11.201  14.370  0.00  0.00     0.033 H 
BRANCH  59  62
ATOM     62  C24 FA4 d          36.139   9.757  14.776  0.00  0.00    -0.043 C 
ATOM     63  H30 FA4 d          35.887   8.777  15.206  0.00  0.00     0.035 H 
ATOM     64  H31 FA4 d          37.132  10.069  15.132  0.00  0.00     0.035 H 
BRANCH  62  65
ATOM     65  C25 FA4 d          36.181   9.629  13.252  0.00  0.00     0.080 C 
ATOM     66  H32 FA4 d          36.192   8.562  12.989  0.00  0.00     0.075 H 
ATOM     67  H33 FA4 d          37.100  10.109  12.884  0.00  0.00     0.075 H 
BRANCH  65  68
ATOM     68  N26 FA4 d          35.034  10.257  12.607  0.00  0.00    -0.079 N 
ATOM     69  H34 FA4 d          34.576   9.587  12.011  0.00  0.00     0.274 HD
ATOM     70  H35 FA4 d          35.347  11.040  12.055  0.00  0.00     0.274 HD
ATOM     71  H36 FA4 d          34.388  10.579  13.310  0.00  0.00     0.274 HD
ENDBRANCH  65  68
ENDBRANCH  62  65
ENDBRANCH  59  62
ENDBRANCH  56  59
ENDBRANCH  54  56
BRANCH  54  72
ATOM     72  C21 FA4 d          31.594  10.701  16.296  0.00  0.00     0.263 C 
ATOM     73  N22 FA4 d          30.552   9.926  16.628  0.00  0.00    -0.236 N 
ATOM     74  H27 FA4 d          30.536   8.961  16.366  0.00  0.00     0.197 HD
ATOM     75  O33 FA4 d          31.699  11.890  16.579  0.00  0.00    -0.269 OA
BRANCH  73  76
ATOM     76  O32 FA4 d          29.485  10.479  17.343  0.00  0.00    -0.287 OA
ATOM     77  H44 FA4 d          29.312   9.947  18.111  0.00  0.00     0.244 HD
ENDBRANCH  73  76
ENDBRANCH  54  72
ENDBRANCH  51  54
ENDBRANCH  47  50
ENDBRANCH  44  47
ENDBRANCH  41  44
ENDBRANCH   1  41
TORSDOF 20
ENDMDL
MODEL 4
REMARK VINA RESULT:      -7.6      1.839      3.192
REMARK  20 active torsions:
REMARK  status: ('A' for Active; 'I' for Inactive)
REMARK    1  A    between atoms: C3_3  and  C7_7 
REMARK    2  A    between atoms: C4_4  and  C27_27 
REMARK    3  A    between atoms: C7_7  and  C8_8 
REMARK    4  A    between atoms: C8_8  and  C9_9 
REMARK    5  A    between atoms: C9_9  and  C10_10 
REMARK    6  A    between atoms: C10_10  and  C11_11 
REMARK    7  A    between atoms: C11_11  and  C12_12 
REMARK    8  A    between atoms: C12_12  and  C13_13 
REMARK    9  A    between atoms: C13_13  and  C14_14 
REMARK   10  A    between atoms: C14_14  and  C15_15 
REMARK   11  A    between atoms: C15_15  and  C16_16 
REMARK       I    between atoms: C16_16  and  N17_17 
REMARK   12  A    between atoms: N17_17  and  C18_18 
REMARK   13  A    between atoms: C18_18  and  C20_20 
REMARK   14  A    between atoms: C18_18  and  C21_21 
REMARK   15  A    between atoms: C20_20  and  C23_23 
REMARK       I    between atoms: C21_21  and  N22_22 
REMARK   16  A    between atoms: N22_22  and  O32_32 
REMARK   17  A    between atoms: C23_23  and  C24_24 
REMARK   18  A    between atoms: C24_24  and  C25_25 
REMARK   19  A    between atoms: C25_25  and  N26_26 
REMARK   20  A    between atoms: C27_27  and  N28_28 
REMARK       I    between atoms: N28_28  and  C29_29 
REMARK       I    between atoms: C29_29  and  N30_30 
ROOT
ATOM      1  C12 FA4 d          27.969   3.085  14.494  0.00  0.00    -0.065 C 
ATOM      2  H15 FA4 d          28.097   3.291  13.421  0.00  0.00     0.033 H 
ATOM      3  H16 FA4 d          28.836   2.519  14.864  0.00  0.00     0.033 H 
ENDROOT
BRANCH   1   4
ATOM      4  C11 FA4 d          26.714   2.227  14.679  0.00  0.00    -0.065 C 
ATOM      5  H13 FA4 d          26.679   1.473  13.878  0.00  0.00     0.033 H 
ATOM      6  H14 FA4 d          26.771   1.722  15.654  0.00  0.00     0.033 H 
BRANCH   4   7
ATOM      7  C10 FA4 d          25.430   3.060  14.629  0.00  0.00    -0.065 C 
ATOM      8  H11 FA4 d          25.566   3.950  15.261  0.00  0.00     0.033 H 
ATOM      9  H12 FA4 d          25.257   3.371  13.588  0.00  0.00     0.033 H 
BRANCH   7  10
ATOM     10  C9  FA4 d          24.196   2.297  15.120  0.00  0.00    -0.065 C 
ATOM     11  H9  FA4 d          23.620   1.959  14.245  0.00  0.00     0.033 H 
ATOM     12  H10 FA4 d          24.529   1.425  15.700  0.00  0.00     0.033 H 
BRANCH  10  13
ATOM     13  C8  FA4 d          23.286   3.152  16.003  0.00  0.00    -0.061 C 
ATOM     14  H7  FA4 d          23.078   2.602  16.932  0.00  0.00     0.033 H 
ATOM     15  H8  FA4 d          23.807   4.092  16.241  0.00  0.00     0.033 H 
BRANCH  13  16
ATOM     16  C7  FA4 d          21.950   3.489  15.319  0.00  0.00    -0.040 C 
ATOM     17  H5  FA4 d          21.945   3.044  14.313  0.00  0.00     0.040 H 
ATOM     18  H6  FA4 d          21.130   3.058  15.913  0.00  0.00     0.040 H 
BRANCH  16  19
ATOM     19  C3  FA4 d          21.729   4.975  15.194  0.00  0.00    -0.050 A 
ATOM     20  C2  FA4 d          21.170   5.699  16.299  0.00  0.00    -0.076 A 
ATOM     21  C1  FA4 d          20.949   7.107  16.210  0.00  0.00    -0.082 A 
ATOM     22  H2  FA4 d          20.913   5.172  17.210  0.00  0.00     0.084 H 
ATOM     23  C6  FA4 d          21.275   7.823  15.014  0.00  0.00    -0.082 A 
ATOM     24  H1  FA4 d          20.529   7.638  17.057  0.00  0.00     0.083 H 
ATOM     25  C5  FA4 d          21.838   7.121  13.892  0.00  0.00    -0.075 A 
ATOM     26  H4  FA4 d          21.099   8.891  14.955  0.00  0.00     0.083 H 
ATOM     27  C4  FA4 d          22.069   5.702  13.965  0.00  0.00    -0.034 A 
ATOM     28  H3  FA4 d          22.089   7.663  12.988  0.00  0.00     0.084 H 
BRANCH  27  29
ATOM     29  C27 FA4 d          22.671   5.046  12.735  0.00  0.00     0.033 C 
ATOM     30  H37 FA4 d          23.104   4.077  13.021  0.00  0.00     0.072 H 
ATOM     31  H38 FA4 d          23.462   5.696  12.333  0.00  0.00     0.072 H 
BRANCH  29  32
ATOM     32  N28 FA4 d          21.655   4.830  11.697  0.00  0.00    -0.223 N 
ATOM     33  C29 FA4 d          21.122   3.576  11.485  0.00  0.00     0.665 C 
ATOM     34  N30 FA4 d          19.888   3.461  11.009  0.00  0.00    -0.235 N 
ATOM     35  N31 FA4 d          21.827   2.467  11.755  0.00  0.00    -0.235 N 
ATOM     36  H40 FA4 d          19.482   2.528  10.848  0.00  0.00     0.174 HD
ATOM     37  H41 FA4 d          19.336   4.306  10.802  0.00  0.00     0.174 HD
ATOM     38  H42 FA4 d          22.785   2.543  12.124  0.00  0.00     0.174 HD
ATOM     39  H43 FA4 d          21.409   1.540  11.593  0.00  0.00     0.174 HD
ATOM     40  H39 FA4 d          21.336   5.623  11.122  0.00  0.00     0.178 HD
ENDBRANCH  29  32
ENDBRANCH  27  29
ENDBRANCH  16  19
ENDBRANCH  13  16
ENDBRANCH  10  13
ENDBRANCH   7  10
ENDBRANCH   4   7
ENDBRANCH   1   4
BRANCH   1  41
ATOM     41  C13 FA4 d          27.903   4.413  15.238  0.00  0.00    -0.065 C 
ATOM     42  H17 FA4 d          27.224   4.303  16.096  0.00  0.00     0.033 H 
ATOM     43  H18 FA4 d          27.510   5.180  14.555  0.00  0.00     0.033 H 
BRANCH  41  44
ATOM     44  C14 FA4 d          29.272   4.871  15.754  0.00  0.00    -0.057 C 
ATOM     45  H19 FA4 d          29.357   4.585  16.813  0.00  0.00     0.033 H 
ATOM     46  H20 FA4 d          29.329   5.966  15.664  0.00  0.00     0.033 H 
BRANCH  44  47
ATOM     47  C15 FA4 d          30.452   4.263  14.994  0.00  0.00     0.009 C 
ATOM     48  H21 FA4 d          30.230   4.274  13.916  0.00  0.00     0.047 H 
ATOM     49  H22 FA4 d          30.598   3.224  15.328  0.00  0.00     0.047 H 
BRANCH  47  50
ATOM     50  C16 FA4 d          31.738   5.060  15.251  0.00  0.00     0.218 C 
ATOM     51  N17 FA4 d          31.530   6.386  15.096  0.00  0.00    -0.348 N 
ATOM     52  H23 FA4 d          30.621   6.709  14.836  0.00  0.00     0.163 HD
ATOM     53  O19 FA4 d          32.796   4.505  15.561  0.00  0.00    -0.274 OA
BRANCH  51  54
ATOM     54  C18 FA4 d          32.592   7.353  15.298  0.00  0.00     0.091 C 
ATOM     55  H24 FA4 d          33.466   6.855  15.741  0.00  0.00     0.087 H 
BRANCH  54  56
ATOM     56  C20 FA4 d          32.071   8.419  16.265  0.00  0.00    -0.038 C 
ATOM     57  H25 FA4 d          31.170   8.027  16.760  0.00  0.00     0.036 H 
ATOM     58  H26 FA4 d          31.809   9.316  15.685  0.00  0.00     0.036 H 
BRANCH  56  59
ATOM     59  C23 FA4 d          33.076   8.817  17.340  0.00  0.00    -0.061 C 
ATOM     60  H28 FA4 d          34.081   8.500  17.023  0.00  0.00     0.033 H 
ATOM     61  H29 FA4 d          32.812   8.310  18.280  0.00  0.00     0.033 H 
BRANCH  59  62
ATOM     62  C24 FA4 d          33.086  10.327  17.579  0.00  0.00    -0.043 C 
ATOM     63  H30 FA4 d          34.123  10.650  17.750  0.00  0.00     0.035 H 
ATOM     64  H31 FA4 d          32.481  10.547  18.471  0.00  0.00     0.035 H 
BRANCH  62  65
ATOM     65  C25 FA4 d          32.517  11.109  16.393  0.00  0.00     0.080 C 
ATOM     66  H32 FA4 d          32.067  12.039  16.768  0.00  0.00     0.075 H 
ATOM     67  H33 FA4 d          31.743  10.497  15.906  0.00  0.00     0.075 H 
BRANCH  65  68
ATOM     68  N26 FA4 d          33.535  11.447  15.407  0.00  0.00    -0.079 N 
ATOM     69  H34 FA4 d          33.499  12.435  15.213  0.00  0.00     0.274 HD
ATOM     70  H35 FA4 d          33.363  10.932  14.557  0.00  0.00     0.274 HD
ATOM     71  H36 FA4 d          34.445  11.208  15.767  0.00  0.00     0.274 HD
ENDBRANCH  65  68
ENDBRANCH  62  65
ENDBRANCH  59  62
ENDBRANCH  56  59
ENDBRANCH  54  56
BRANCH  54  72
ATOM     72  C21 FA4 d          33.003   7.974  13.950  0.00  0.00     0.263 C 
ATOM     73  N22 FA4 d          33.766   7.172  13.194  0.00  0.00    -0.236 N 
ATOM     74  H27 FA4 d          34.021   6.262  13.521  0.00  0.00     0.197 HD
ATOM     75  O33 FA4 d          32.639   9.100  13.627  0.00  0.00    -0.269 OA
BRANCH  73  76
ATOM     76  O32 FA4 d          34.203   7.619  11.943  0.00  0.00    -0.287 OA
ATOM     77  H44 FA4 d          34.906   8.247  12.061  0.00  0.00     0.244 HD
ENDBRANCH  73  76
ENDBRANCH  54  72
ENDBRANCH  51  54
ENDBRANCH  47  50
ENDBRANCH  44  47
ENDBRANCH  41  44
ENDBRANCH   1  41
TORSDOF 20
ENDMDL
MODEL 5
REMARK VINA RESULT:      -7.5      3.548     11.021
REMARK  20 active torsions:
REMARK  status: ('A' for Active; 'I' for Inactive)
REMARK    1  A    between atoms: C3_3  and  C7_7 
REMARK    2  A    between atoms: C4_4  and  C27_27 
REMARK    3  A    between atoms: C7_7  and  C8_8 
REMARK    4  A    between atoms: C8_8  and  C9_9 
REMARK    5  A    between atoms: C9_9  and  C10_10 
REMARK    6  A    between atoms: C10_10  and  C11_11 
REMARK    7  A    between atoms: C11_11  and  C12_12 
REMARK    8  A    between atoms: C12_12  and  C13_13 
REMARK    9  A    between atoms: C13_13  and  C14_14 
REMARK   10  A    between atoms: C14_14  and  C15_15 
REMARK   11  A    between atoms: C15_15  and  C16_16 
REMARK       I    between atoms: C16_16  and  N17_17 
REMARK   12  A    between atoms: N17_17  and  C18_18 
REMARK   13  A    between atoms: C18_18  and  C20_20 
REMARK   14  A    between atoms: C18_18  and  C21_21 
REMARK   15  A    between atoms: C20_20  and  C23_23 
REMARK       I    between atoms: C21_21  and  N22_22 
REMARK   16  A    between atoms: N22_22  and  O32_32 
REMARK   17  A    between atoms: C23_23  and  C24_24 
REMARK   18  A    between atoms: C24_24  and  C25_25 
REMARK   19  A    between atoms: C25_25  and  N26_26 
REMARK   20  A    between atoms: C27_27  and  N28_28 
REMARK       I    between atoms: N28_28  and  C29_29 
REMARK       I    between atoms: C29_29  and  N30_30 
ROOT
ATOM      1  C12 FA4 d          30.723   4.997  15.049  0.00  0.00    -0.065 C 
ATOM      2  H15 FA4 d          30.769   5.058  16.147  0.00  0.00     0.033 H 
ATOM      3  H16 FA4 d          31.678   4.612  14.664  0.00  0.00     0.033 H 
ENDROOT
BRANCH   1   4
ATOM      4  C11 FA4 d          30.506   6.406  14.491  0.00  0.00    -0.065 C 
ATOM      5  H13 FA4 d          31.385   6.689  13.891  0.00  0.00     0.033 H 
ATOM      6  H14 FA4 d          29.612   6.399  13.850  0.00  0.00     0.033 H 
BRANCH   4   7
ATOM      7  C10 FA4 d          30.310   7.445  15.598  0.00  0.00    -0.065 C 
ATOM      8  H11 FA4 d          30.970   8.301  15.394  0.00  0.00     0.033 H 
ATOM      9  H12 FA4 d          29.262   7.778  15.582  0.00  0.00     0.033 H 
BRANCH   7  10
ATOM     10  C9  FA4 d          30.629   6.907  16.996  0.00  0.00    -0.065 C 
ATOM     11  H9  FA4 d          29.732   7.009  17.625  0.00  0.00     0.033 H 
ATOM     12  H10 FA4 d          30.897   5.843  16.911  0.00  0.00     0.033 H 
BRANCH  10  13
ATOM     13  C8  FA4 d          31.784   7.650  17.667  0.00  0.00    -0.061 C 
ATOM     14  H7  FA4 d          31.428   8.640  17.987  0.00  0.00     0.033 H 
ATOM     15  H8  FA4 d          32.110   7.075  18.547  0.00  0.00     0.033 H 
BRANCH  13  16
ATOM     16  C7  FA4 d          32.987   7.838  16.727  0.00  0.00    -0.040 C 
ATOM     17  H5  FA4 d          33.885   7.433  17.217  0.00  0.00     0.040 H 
ATOM     18  H6  FA4 d          32.798   7.286  15.795  0.00  0.00     0.040 H 
BRANCH  16  19
ATOM     19  C3  FA4 d          33.231   9.288  16.393  0.00  0.00    -0.050 A 
ATOM     20  C2  FA4 d          33.260  10.259  17.448  0.00  0.00    -0.076 A 
ATOM     21  C1  FA4 d          33.488  11.639  17.163  0.00  0.00    -0.082 A 
ATOM     22  H2  FA4 d          33.108   9.941  18.473  0.00  0.00     0.084 H 
ATOM     23  C6  FA4 d          33.685  12.082  15.816  0.00  0.00    -0.082 A 
ATOM     24  H1  FA4 d          33.511  12.358  17.974  0.00  0.00     0.083 H 
ATOM     25  C5  FA4 d          33.662  11.130  14.739  0.00  0.00    -0.075 A 
ATOM     26  H4  FA4 d          33.853  13.133  15.608  0.00  0.00     0.083 H 
ATOM     27  C4  FA4 d          33.435   9.734  15.009  0.00  0.00    -0.034 A 
ATOM     28  H3  FA4 d          33.815  11.464  13.719  0.00  0.00     0.084 H 
BRANCH  27  29
ATOM     29  C27 FA4 d          33.432   8.800  13.811  0.00  0.00     0.033 C 
ATOM     30  H37 FA4 d          32.538   9.000  13.203  0.00  0.00     0.072 H 
ATOM     31  H38 FA4 d          33.408   7.760  14.168  0.00  0.00     0.072 H 
BRANCH  29  32
ATOM     32  N28 FA4 d          34.629   8.996  12.983  0.00  0.00    -0.223 N 
ATOM     33  C29 FA4 d          34.932   8.115  11.967  0.00  0.00     0.665 C 
ATOM     34  N30 FA4 d          35.613   8.544  10.911  0.00  0.00    -0.235 N 
ATOM     35  N31 FA4 d          34.549   6.831  12.022  0.00  0.00    -0.235 N 
ATOM     36  H40 FA4 d          35.844   7.893  10.147  0.00  0.00     0.174 HD
ATOM     37  H41 FA4 d          35.910   9.529  10.855  0.00  0.00     0.174 HD
ATOM     38  H42 FA4 d          34.020   6.487  12.837  0.00  0.00     0.174 HD
ATOM     39  H43 FA4 d          34.783   6.190  11.251  0.00  0.00     0.174 HD
ATOM     40  H39 FA4 d          35.248   9.800  13.163  0.00  0.00     0.178 HD
ENDBRANCH  29  32
ENDBRANCH  27  29
ENDBRANCH  16  19
ENDBRANCH  13  16
ENDBRANCH  10  13
ENDBRANCH   7  10
ENDBRANCH   4   7
ENDBRANCH   1   4
BRANCH   1  41
ATOM     41  C13 FA4 d          29.616   4.022  14.664  0.00  0.00    -0.065 C 
ATOM     42  H17 FA4 d          29.873   3.026  15.054  0.00  0.00     0.033 H 
ATOM     43  H18 FA4 d          29.550   3.980  13.567  0.00  0.00     0.033 H 
BRANCH  41  44
ATOM     44  C14 FA4 d          28.249   4.429  15.223  0.00  0.00    -0.057 C 
ATOM     45  H19 FA4 d          28.403   5.205  15.987  0.00  0.00     0.033 H 
ATOM     46  H20 FA4 d          27.785   3.546  15.686  0.00  0.00     0.033 H 
BRANCH  44  47
ATOM     47  C15 FA4 d          27.290   4.978  14.165  0.00  0.00     0.009 C 
ATOM     48  H21 FA4 d          27.857   5.209  13.250  0.00  0.00     0.047 H 
ATOM     49  H22 FA4 d          26.820   5.897  14.547  0.00  0.00     0.047 H 
BRANCH  47  50
ATOM     50  C16 FA4 d          26.196   3.953  13.834  0.00  0.00     0.218 C 
ATOM     51  N17 FA4 d          24.973   4.419  14.169  0.00  0.00    -0.348 N 
ATOM     52  H23 FA4 d          24.894   5.325  14.584  0.00  0.00     0.163 HD
ATOM     53  O19 FA4 d          26.460   2.862  13.322  0.00  0.00    -0.274 OA
BRANCH  51  54
ATOM     54  C18 FA4 d          23.771   3.639  13.942  0.00  0.00     0.091 C 
ATOM     55  H24 FA4 d          23.872   3.067  13.009  0.00  0.00     0.087 H 
BRANCH  54  56
ATOM     56  C20 FA4 d          22.601   4.618  13.813  0.00  0.00    -0.038 C 
ATOM     57  H25 FA4 d          22.237   4.861  14.822  0.00  0.00     0.036 H 
ATOM     58  H26 FA4 d          21.799   4.127  13.241  0.00  0.00     0.036 H 
BRANCH  56  59
ATOM     59  C23 FA4 d          22.966   5.921  13.108  0.00  0.00    -0.061 C 
ATOM     60  H28 FA4 d          22.818   5.793  12.025  0.00  0.00     0.033 H 
ATOM     61  H29 FA4 d          24.022   6.151  13.309  0.00  0.00     0.033 H 
BRANCH  59  62
ATOM     62  C24 FA4 d          22.105   7.088  13.590  0.00  0.00    -0.043 C 
ATOM     63  H30 FA4 d          21.785   7.675  12.716  0.00  0.00     0.035 H 
ATOM     64  H31 FA4 d          22.710   7.722  14.255  0.00  0.00     0.035 H 
BRANCH  62  65
ATOM     65  C25 FA4 d          20.862   6.622  14.350  0.00  0.00     0.080 C 
ATOM     66  H32 FA4 d          21.183   6.116  15.272  0.00  0.00     0.075 H 
ATOM     67  H33 FA4 d          20.306   5.915  13.717  0.00  0.00     0.075 H 
BRANCH  65  68
ATOM     68  N26 FA4 d          19.979   7.726  14.707  0.00  0.00    -0.079 N 
ATOM     69  H34 FA4 d          19.134   7.670  14.161  0.00  0.00     0.274 HD
ATOM     70  H35 FA4 d          20.443   8.601  14.520  0.00  0.00     0.274 HD
ATOM     71  H36 FA4 d          19.749   7.670  15.686  0.00  0.00     0.274 HD
ENDBRANCH  65  68
ENDBRANCH  62  65
ENDBRANCH  59  62
ENDBRANCH  56  59
ENDBRANCH  54  56
BRANCH  54  72
ATOM     72  C21 FA4 d          23.552   2.657  15.107  0.00  0.00     0.263 C 
ATOM     73  N22 FA4 d          23.653   3.222  16.319  0.00  0.00    -0.236 N 
ATOM     74  H27 FA4 d          23.856   4.197  16.406  0.00  0.00     0.197 HD
ATOM     75  O33 FA4 d          23.300   1.474  14.907  0.00  0.00    -0.269 OA
BRANCH  73  76
ATOM     76  O32 FA4 d          23.472   2.436  17.461  0.00  0.00    -0.287 OA
ATOM     77  H44 FA4 d          24.054   2.739  18.148  0.00  0.00     0.244 HD
ENDBRANCH  73  76
ENDBRANCH  54  72
ENDBRANCH  51  54
ENDBRANCH  47  50
ENDBRANCH  44  47
ENDBRANCH  41  44
ENDBRANCH   1  41
TORSDOF 20
ENDMDL
MODEL 6
REMARK VINA RESULT:      -7.2      1.926      3.242
REMARK  20 active torsions:
REMARK  status: ('A' for Active; 'I' for Inactive)
REMARK    1  A    between atoms: C3_3  and  C7_7 
REMARK    2  A    between atoms: C4_4  and  C27_27 
REMARK    3  A    between atoms: C7_7  and  C8_8 
REMARK    4  A    between atoms: C8_8  and  C9_9 
REMARK    5  A    between atoms: C9_9  and  C10_10 
REMARK    6  A    between atoms: C10_10  and  C11_11 
REMARK    7  A    between atoms: C11_11  and  C12_12 
REMARK    8  A    between atoms: C12_12  and  C13_13 
REMARK    9  A    between atoms: C13_13  and  C14_14 
REMARK   10  A    between atoms: C14_14  and  C15_15 
REMARK   11  A    between atoms: C15_15  and  C16_16 
REMARK       I    between atoms: C16_16  and  N17_17 
REMARK   12  A    between atoms: N17_17  and  C18_18 
REMARK   13  A    between atoms: C18_18  and  C20_20 
REMARK   14  A    between atoms: C18_18  and  C21_21 
REMARK   15  A    between atoms: C20_20  and  C23_23 
REMARK       I    between atoms: C21_21  and  N22_22 
REMARK   16  A    between atoms: N22_22  and  O32_32 
REMARK   17  A    between atoms: C23_23  and  C24_24 
REMARK   18  A    between atoms: C24_24  and  C25_25 
REMARK   19  A    between atoms: C25_25  and  N26_26 
REMARK   20  A    between atoms: C27_27  and  N28_28 
REMARK       I    between atoms: N28_28  and  C29_29 
REMARK       I    between atoms: C29_29  and  N30_30 
ROOT
ATOM      1  C12 FA4 d          29.323   3.826  14.535  0.00  0.00    -0.065 C 
ATOM      2  H15 FA4 d          29.821   4.504  13.826  0.00  0.00     0.033 H 
ATOM      3  H16 FA4 d          29.701   2.804  14.391  0.00  0.00     0.033 H 
ENDROOT
BRANCH   1   4
ATOM      4  C11 FA4 d          27.820   3.834  14.243  0.00  0.00    -0.065 C 
ATOM      5  H13 FA4 d          27.377   4.735  14.694  0.00  0.00     0.033 H 
ATOM      6  H14 FA4 d          27.672   3.859  13.153  0.00  0.00     0.033 H 
BRANCH   4   7
ATOM      7  C10 FA4 d          27.112   2.600  14.809  0.00  0.00    -0.065 C 
ATOM      8  H11 FA4 d          27.365   1.734  14.180  0.00  0.00     0.033 H 
ATOM      9  H12 FA4 d          27.475   2.428  15.833  0.00  0.00     0.033 H 
BRANCH   7  10
ATOM     10  C9  FA4 d          25.588   2.744  14.851  0.00  0.00    -0.065 C 
ATOM     11  H9  FA4 d          25.245   2.558  15.879  0.00  0.00     0.033 H 
ATOM     12  H10 FA4 d          25.323   3.770  14.555  0.00  0.00     0.033 H 
BRANCH  10  13
ATOM     13  C8  FA4 d          24.876   1.766  13.914  0.00  0.00    -0.061 C 
ATOM     14  H7  FA4 d          24.976   2.131  12.881  0.00  0.00     0.033 H 
ATOM     15  H8  FA4 d          25.356   0.780  14.003  0.00  0.00     0.033 H 
BRANCH  13  16
ATOM     16  C7  FA4 d          23.381   1.619  14.243  0.00  0.00    -0.040 C 
ATOM     17  H5  FA4 d          23.139   0.549  14.321  0.00  0.00     0.040 H 
ATOM     18  H6  FA4 d          23.181   2.111  15.207  0.00  0.00     0.040 H 
BRANCH  16  19
ATOM     19  C3  FA4 d          22.499   2.240  13.189  0.00  0.00    -0.050 A 
ATOM     20  C2  FA4 d          22.240   1.520  11.976  0.00  0.00    -0.076 A 
ATOM     21  C1  FA4 d          21.410   2.082  10.959  0.00  0.00    -0.082 A 
ATOM     22  H2  FA4 d          22.679   0.540  11.829  0.00  0.00     0.084 H 
ATOM     23  C6  FA4 d          20.824   3.377  11.129  0.00  0.00    -0.082 A 
ATOM     24  H1  FA4 d          21.221   1.522  10.050  0.00  0.00     0.083 H 
ATOM     25  C5  FA4 d          21.066   4.119  12.336  0.00  0.00    -0.075 A 
ATOM     26  H4  FA4 d          20.199   3.797  10.349  0.00  0.00     0.083 H 
ATOM     27  C4  FA4 d          21.900   3.567  13.372  0.00  0.00    -0.034 A 
ATOM     28  H3  FA4 d          20.620   5.098  12.468  0.00  0.00     0.084 H 
BRANCH  27  29
ATOM     29  C27 FA4 d          22.096   4.419  14.615  0.00  0.00     0.033 C 
ATOM     30  H37 FA4 d          23.170   4.607  14.754  0.00  0.00     0.072 H 
ATOM     31  H38 FA4 d          21.703   3.876  15.487  0.00  0.00     0.072 H 
BRANCH  29  32
ATOM     32  N28 FA4 d          21.395   5.703  14.493  0.00  0.00    -0.223 N 
ATOM     33  C29 FA4 d          21.981   6.764  13.836  0.00  0.00     0.665 C 
ATOM     34  N30 FA4 d          21.213   7.670  13.240  0.00  0.00    -0.235 N 
ATOM     35  N31 FA4 d          23.315   6.898  13.783  0.00  0.00    -0.235 N 
ATOM     36  H40 FA4 d          21.643   8.466  12.747  0.00  0.00     0.174 HD
ATOM     37  H41 FA4 d          20.188   7.576  13.271  0.00  0.00     0.174 HD
ATOM     38  H42 FA4 d          23.920   6.202  14.241  0.00  0.00     0.174 HD
ATOM     39  H43 FA4 d          23.733   7.696  13.284  0.00  0.00     0.174 HD
ATOM     40  H39 FA4 d          20.456   5.813  14.902  0.00  0.00     0.178 HD
ENDBRANCH  29  32
ENDBRANCH  27  29
ENDBRANCH  16  19
ENDBRANCH  13  16
ENDBRANCH  10  13
ENDBRANCH   7  10
ENDBRANCH   4   7
ENDBRANCH   1   4
BRANCH   1  41
ATOM     41  C13 FA4 d          29.662   4.273  15.953  0.00  0.00    -0.065 C 
ATOM     42  H17 FA4 d          29.917   3.386  16.550  0.00  0.00     0.033 H 
ATOM     43  H18 FA4 d          28.779   4.766  16.386  0.00  0.00     0.033 H 
BRANCH  41  44
ATOM     44  C14 FA4 d          30.841   5.251  15.999  0.00  0.00    -0.057 C 
ATOM     45  H19 FA4 d          31.528   4.929  16.796  0.00  0.00     0.033 H 
ATOM     46  H20 FA4 d          30.452   6.253  16.233  0.00  0.00     0.033 H 
BRANCH  44  47
ATOM     47  C15 FA4 d          31.626   5.332  14.689  0.00  0.00     0.009 C 
ATOM     48  H21 FA4 d          31.080   4.782  13.907  0.00  0.00     0.047 H 
ATOM     49  H22 FA4 d          32.617   4.875  14.834  0.00  0.00     0.047 H 
BRANCH  47  50
ATOM     50  C16 FA4 d          31.804   6.791  14.246  0.00  0.00     0.218 C 
ATOM     51  N17 FA4 d          33.071   7.027  13.840  0.00  0.00    -0.348 N 
ATOM     52  H23 FA4 d          33.739   6.283  13.870  0.00  0.00     0.163 HD
ATOM     53  O19 FA4 d          30.872   7.598  14.276  0.00  0.00    -0.274 OA
BRANCH  51  54
ATOM     54  C18 FA4 d          33.489   8.331  13.361  0.00  0.00     0.091 C 
ATOM     55  H24 FA4 d          32.734   8.728  12.667  0.00  0.00     0.087 H 
BRANCH  54  56
ATOM     56  C20 FA4 d          34.815   8.149  12.619  0.00  0.00    -0.038 C 
ATOM     57  H25 FA4 d          34.931   7.083  12.371  0.00  0.00     0.036 H 
ATOM     58  H26 FA4 d          35.632   8.461  13.287  0.00  0.00     0.036 H 
BRANCH  56  59
ATOM     59  C23 FA4 d          34.913   8.956  11.329  0.00  0.00    -0.061 C 
ATOM     60  H28 FA4 d          33.911   9.323  11.062  0.00  0.00     0.033 H 
ATOM     61  H29 FA4 d          35.289   8.303  10.528  0.00  0.00     0.033 H 
BRANCH  59  62
ATOM     62  C24 FA4 d          35.855  10.151  11.476  0.00  0.00    -0.043 C 
ATOM     63  H30 FA4 d          35.252  11.063  11.593  0.00  0.00     0.035 H 
ATOM     64  H31 FA4 d          36.468  10.231  10.567  0.00  0.00     0.035 H 
BRANCH  62  65
ATOM     65  C25 FA4 d          36.783  10.017  12.685  0.00  0.00     0.080 C 
ATOM     66  H32 FA4 d          36.867   8.953  12.949  0.00  0.00     0.075 H 
ATOM     67  H33 FA4 d          36.345  10.571  13.529  0.00  0.00     0.075 H 
BRANCH  65  68
ATOM     68  N26 FA4 d          38.118  10.541  12.424  0.00  0.00    -0.079 N 
ATOM     69  H34 FA4 d          38.048  11.489  12.089  0.00  0.00     0.274 HD
ATOM     70  H35 FA4 d          38.573   9.971  11.728  0.00  0.00     0.274 HD
ATOM     71  H36 FA4 d          38.657  10.525  13.276  0.00  0.00     0.274 HD
ENDBRANCH  65  68
ENDBRANCH  62  65
ENDBRANCH  59  62
ENDBRANCH  56  59
ENDBRANCH  54  56
BRANCH  54  72
ATOM     72  C21 FA4 d          33.638   9.304  14.544  0.00  0.00     0.263 C 
ATOM     73  N22 FA4 d          32.724  10.285  14.558  0.00  0.00    -0.236 N 
ATOM     74  H27 FA4 d          32.030  10.338  13.841  0.00  0.00     0.197 HD
ATOM     75  O33 FA4 d          34.520   9.159  15.384  0.00  0.00    -0.269 OA
BRANCH  73  76
ATOM     76  O32 FA4 d          32.751  11.234  15.585  0.00  0.00    -0.287 OA
ATOM     77  H44 FA4 d          31.956  11.753  15.554  0.00  0.00     0.244 HD
ENDBRANCH  73  76
ENDBRANCH  54  72
ENDBRANCH  51  54
ENDBRANCH  47  50
ENDBRANCH  44  47
ENDBRANCH  41  44
ENDBRANCH   1  41
TORSDOF 20
ENDMDL
MODEL 7
REMARK VINA RESULT:      -7.2      4.376     11.532
REMARK  20 active torsions:
REMARK  status: ('A' for Active; 'I' for Inactive)
REMARK    1  A    between atoms: C3_3  and  C7_7 
REMARK    2  A    between atoms: C4_4  and  C27_27 
REMARK    3  A    between atoms: C7_7  and  C8_8 
REMARK    4  A    between atoms: C8_8  and  C9_9 
REMARK    5  A    between atoms: C9_9  and  C10_10 
REMARK    6  A    between atoms: C10_10  and  C11_11 
REMARK    7  A    between atoms: C11_11  and  C12_12 
REMARK    8  A    between atoms: C12_12  and  C13_13 
REMARK    9  A    between atoms: C13_13  and  C14_14 
REMARK   10  A    between atoms: C14_14  and  C15_15 
REMARK   11  A    between atoms: C15_15  and  C16_16 
REMARK       I    between atoms: C16_16  and  N17_17 
REMARK   12  A    between atoms: N17_17  and  C18_18 
REMARK   13  A    between atoms: C18_18  and  C20_20 
REMARK   14  A    between atoms: C18_18  and  C21_21 
REMARK   15  A    between atoms: C20_20  and  C23_23 
REMARK       I    between atoms: C21_21  and  N22_22 
REMARK   16  A    between atoms: N22_22  and  O32_32 
REMARK   17  A    between atoms: C23_23  and  C24_24 
REMARK   18  A    between atoms: C24_24  and  C25_25 
REMARK   19  A    between atoms: C25_25  and  N26_26 
REMARK   20  A    between atoms: C27_27  and  N28_28 
REMARK       I    between atoms: N28_28  and  C29_29 
REMARK       I    between atoms: C29_29  and  N30_30 
ROOT
ATOM      1  C12 FA4 d          27.420   4.122  14.216  0.00  0.00    -0.065 C 
ATOM      2  H15 FA4 d          28.025   4.716  13.515  0.00  0.00     0.033 H 
ATOM      3  H16 FA4 d          26.876   4.797  14.893  0.00  0.00     0.033 H 
ENDROOT
BRANCH   1   4
ATOM      4  C11 FA4 d          28.359   3.248  15.051  0.00  0.00    -0.065 C 
ATOM      5  H13 FA4 d          27.769   2.730  15.822  0.00  0.00     0.033 H 
ATOM      6  H14 FA4 d          28.832   2.506  14.391  0.00  0.00     0.033 H 
BRANCH   4   7
ATOM      7  C10 FA4 d          29.456   4.066  15.738  0.00  0.00    -0.065 C 
ATOM      8  H11 FA4 d          28.985   4.911  16.262  0.00  0.00     0.033 H 
ATOM      9  H12 FA4 d          29.968   3.422  16.467  0.00  0.00     0.033 H 
BRANCH   7  10
ATOM     10  C9  FA4 d          30.499   4.619  14.762  0.00  0.00    -0.065 C 
ATOM     11  H9  FA4 d          30.729   3.843  14.016  0.00  0.00     0.033 H 
ATOM     12  H10 FA4 d          30.076   5.499  14.256  0.00  0.00     0.033 H 
BRANCH  10  13
ATOM     13  C8  FA4 d          31.798   5.031  15.455  0.00  0.00    -0.061 C 
ATOM     14  H7  FA4 d          31.578   5.264  16.507  0.00  0.00     0.033 H 
ATOM     15  H8  FA4 d          32.506   4.189  15.407  0.00  0.00     0.033 H 
BRANCH  13  16
ATOM     16  C7  FA4 d          32.450   6.262  14.802  0.00  0.00    -0.040 C 
ATOM     17  H5  FA4 d          33.461   5.990  14.465  0.00  0.00     0.040 H 
ATOM     18  H6  FA4 d          31.843   6.564  13.935  0.00  0.00     0.040 H 
BRANCH  16  19
ATOM     19  C3  FA4 d          32.552   7.427  15.753  0.00  0.00    -0.050 A 
ATOM     20  C2  FA4 d          31.862   7.373  17.009  0.00  0.00    -0.076 A 
ATOM     21  C1  FA4 d          31.939   8.461  17.931  0.00  0.00    -0.082 A 
ATOM     22  H2  FA4 d          31.276   6.497  17.262  0.00  0.00     0.084 H 
ATOM     23  C6  FA4 d          32.703   9.630  17.616  0.00  0.00    -0.082 A 
ATOM     24  H1  FA4 d          31.415   8.400  18.878  0.00  0.00     0.083 H 
ATOM     25  C5  FA4 d          33.405   9.710  16.364  0.00  0.00    -0.075 A 
ATOM     26  H4  FA4 d          32.752  10.453  18.320  0.00  0.00     0.083 H 
ATOM     27  C4  FA4 d          33.339   8.621  15.424  0.00  0.00    -0.034 A 
ATOM     28  H3  FA4 d          33.987  10.593  16.127  0.00  0.00     0.084 H 
BRANCH  27  29
ATOM     29  C27 FA4 d          34.117   8.791  14.131  0.00  0.00     0.033 C 
ATOM     30  H37 FA4 d          33.939   9.801  13.735  0.00  0.00     0.072 H 
ATOM     31  H38 FA4 d          33.767   8.045  13.402  0.00  0.00     0.072 H 
BRANCH  29  32
ATOM     32  N28 FA4 d          35.557   8.608  14.350  0.00  0.00    -0.223 N 
ATOM     33  C29 FA4 d          36.444   9.630  14.085  0.00  0.00     0.665 C 
ATOM     34  N30 FA4 d          37.580   9.704  14.768  0.00  0.00    -0.235 N 
ATOM     35  N31 FA4 d          36.178  10.556  13.152  0.00  0.00    -0.235 N 
ATOM     36  H40 FA4 d          38.248  10.464  14.577  0.00  0.00     0.174 HD
ATOM     37  H41 FA4 d          37.794   9.000  15.489  0.00  0.00     0.174 HD
ATOM     38  H42 FA4 d          35.300  10.510  12.616  0.00  0.00     0.174 HD
ATOM     39  H43 FA4 d          36.852  11.314  12.972  0.00  0.00     0.174 HD
ATOM     40  H39 FA4 d          35.909   7.707  14.705  0.00  0.00     0.178 HD
ENDBRANCH  29  32
ENDBRANCH  27  29
ENDBRANCH  16  19
ENDBRANCH  13  16
ENDBRANCH  10  13
ENDBRANCH   7  10
ENDBRANCH   4   7
ENDBRANCH   1   4
BRANCH   1  41
ATOM     41  C13 FA4 d          26.403   3.316  13.416  0.00  0.00    -0.065 C 
ATOM     42  H17 FA4 d          26.941   2.706  12.676  0.00  0.00     0.033 H 
ATOM     43  H18 FA4 d          25.731   4.014  12.896  0.00  0.00     0.033 H 
BRANCH  41  44
ATOM     44  C14 FA4 d          25.559   2.387  14.296  0.00  0.00    -0.057 C 
ATOM     45  H19 FA4 d          26.226   1.639  14.750  0.00  0.00     0.033 H 
ATOM     46  H20 FA4 d          24.820   1.881  13.659  0.00  0.00     0.033 H 
BRANCH  44  47
ATOM     47  C15 FA4 d          24.814   3.112  15.418  0.00  0.00     0.009 C 
ATOM     48  H21 FA4 d          25.243   4.117  15.545  0.00  0.00     0.047 H 
ATOM     49  H22 FA4 d          24.928   2.543  16.353  0.00  0.00     0.047 H 
BRANCH  47  50
ATOM     50  C16 FA4 d          23.320   3.240  15.088  0.00  0.00     0.218 C 
ATOM     51  N17 FA4 d          23.064   4.388  14.421  0.00  0.00    -0.348 N 
ATOM     52  H23 FA4 d          23.818   5.014  14.223  0.00  0.00     0.163 HD
ATOM     53  O19 FA4 d          22.505   2.372  15.412  0.00  0.00    -0.274 OA
BRANCH  51  54
ATOM     54  C18 FA4 d          21.725   4.734  13.985  0.00  0.00     0.091 C 
ATOM     55  H24 FA4 d          21.023   3.941  14.280  0.00  0.00     0.087 H 
BRANCH  54  56
ATOM     56  C20 FA4 d          21.749   4.847  12.459  0.00  0.00    -0.038 C 
ATOM     57  H25 FA4 d          22.458   5.641  12.181  0.00  0.00     0.036 H 
ATOM     58  H26 FA4 d          20.740   5.119  12.115  0.00  0.00     0.036 H 
BRANCH  56  59
ATOM     59  C23 FA4 d          22.168   3.561  11.755  0.00  0.00    -0.061 C 
ATOM     60  H28 FA4 d          22.514   2.838  12.509  0.00  0.00     0.033 H 
ATOM     61  H29 FA4 d          22.990   3.787  11.059  0.00  0.00     0.033 H 
BRANCH  59  62
ATOM     62  C24 FA4 d          21.012   2.941  10.970  0.00  0.00    -0.043 C 
ATOM     63  H30 FA4 d          21.381   2.638   9.979  0.00  0.00     0.035 H 
ATOM     64  H31 FA4 d          20.221   3.696  10.851  0.00  0.00     0.035 H 
BRANCH  62  65
ATOM     65  C25 FA4 d          20.421   1.716  11.670  0.00  0.00     0.080 C 
ATOM     66  H32 FA4 d          20.336   0.899  10.939  0.00  0.00     0.075 H 
ATOM     67  H33 FA4 d          19.422   1.975  12.050  0.00  0.00     0.075 H 
BRANCH  65  68
ATOM     68  N26 FA4 d          21.242   1.260  12.785  0.00  0.00    -0.079 N 
ATOM     69  H34 FA4 d          22.053   1.852  12.871  0.00  0.00     0.274 HD
ATOM     70  H35 FA4 d          21.536   0.310  12.619  0.00  0.00     0.274 HD
ATOM     71  H36 FA4 d          20.705   1.302  13.637  0.00  0.00     0.274 HD
ENDBRANCH  65  68
ENDBRANCH  62  65
ENDBRANCH  59  62
ENDBRANCH  56  59
ENDBRANCH  54  56
BRANCH  54  72
ATOM     72  C21 FA4 d          21.284   6.057  14.637  0.00  0.00     0.263 C 
ATOM     73  N22 FA4 d          21.055   7.045  13.760  0.00  0.00    -0.236 N 
ATOM     74  H27 FA4 d          21.176   6.887  12.780  0.00  0.00     0.197 HD
ATOM     75  O33 FA4 d          21.155   6.159  15.853  0.00  0.00    -0.269 OA
BRANCH  73  76
ATOM     76  O32 FA4 d          20.645   8.297  14.226  0.00  0.00    -0.287 OA
ATOM     77  H44 FA4 d          19.747   8.454  13.959  0.00  0.00     0.244 HD
ENDBRANCH  73  76
ENDBRANCH  54  72
ENDBRANCH  51  54
ENDBRANCH  47  50
ENDBRANCH  44  47
ENDBRANCH  41  44
ENDBRANCH   1  41
TORSDOF 20
ENDMDL
MODEL 8
REMARK VINA RESULT:      -7.1      4.302     10.939
REMARK  20 active torsions:
REMARK  status: ('A' for Active; 'I' for Inactive)
REMARK    1  A    between atoms: C3_3  and  C7_7 
REMARK    2  A    between atoms: C4_4  and  C27_27 
REMARK    3  A    between atoms: C7_7  and  C8_8 
REMARK    4  A    between atoms: C8_8  and  C9_9 
REMARK    5  A    between atoms: C9_9  and  C10_10 
REMARK    6  A    between atoms: C10_10  and  C11_11 
REMARK    7  A    between atoms: C11_11  and  C12_12 
REMARK    8  A    between atoms: C12_12  and  C13_13 
REMARK    9  A    between atoms: C13_13  and  C14_14 
REMARK   10  A    between atoms: C14_14  and  C15_15 
REMARK   11  A    between atoms: C15_15  and  C16_16 
REMARK       I    between atoms: C16_16  and  N17_17 
REMARK   12  A    between atoms: N17_17  and  C18_18 
REMARK   13  A    between atoms: C18_18  and  C20_20 
REMARK   14  A    between atoms: C18_18  and  C21_21 
REMARK   15  A    between atoms: C20_20  and  C23_23 
REMARK       I    between atoms: C21_21  and  N22_22 
REMARK   16  A    between atoms: N22_22  and  O32_32 
REMARK   17  A    between atoms: C23_23  and  C24_24 
REMARK   18  A    between atoms: C24_24  and  C25_25 
REMARK   19  A    between atoms: C25_25  and  N26_26 
REMARK   20  A    between atoms: C27_27  and  N28_28 
REMARK       I    between atoms: N28_28  and  C29_29 
REMARK       I    between atoms: C29_29  and  N30_30 
ROOT
ATOM      1  C12 FA4 d          27.685   3.304  15.165  0.00  0.00    -0.065 C 
ATOM      2  H15 FA4 d          27.008   3.912  15.782  0.00  0.00     0.033 H 
ATOM      3  H16 FA4 d          28.098   2.485  15.771  0.00  0.00     0.033 H 
ENDROOT
BRANCH   1   4
ATOM      4  C11 FA4 d          28.841   4.190  14.692  0.00  0.00    -0.065 C 
ATOM      5  H13 FA4 d          29.134   3.878  13.678  0.00  0.00     0.033 H 
ATOM      6  H14 FA4 d          28.499   5.235  14.669  0.00  0.00     0.033 H 
BRANCH   4   7
ATOM      7  C10 FA4 d          30.062   4.091  15.610  0.00  0.00    -0.065 C 
ATOM      8  H11 FA4 d          29.713   3.890  16.634  0.00  0.00     0.033 H 
ATOM      9  H12 FA4 d          30.691   3.257  15.266  0.00  0.00     0.033 H 
BRANCH   7  10
ATOM     10  C9  FA4 d          30.910   5.366  15.627  0.00  0.00    -0.065 C 
ATOM     11  H9  FA4 d          31.925   5.109  15.967  0.00  0.00     0.033 H 
ATOM     12  H10 FA4 d          30.957   5.771  14.606  0.00  0.00     0.033 H 
BRANCH  10  13
ATOM     13  C8  FA4 d          30.343   6.442  16.554  0.00  0.00    -0.061 C 
ATOM     14  H7  FA4 d          29.771   7.162  15.951  0.00  0.00     0.033 H 
ATOM     15  H8  FA4 d          29.674   5.962  17.284  0.00  0.00     0.033 H 
BRANCH  13  16
ATOM     16  C7  FA4 d          31.442   7.201  17.317  0.00  0.00    -0.040 C 
ATOM     17  H5  FA4 d          31.256   7.101  18.397  0.00  0.00     0.040 H 
ATOM     18  H6  FA4 d          32.417   6.754  17.071  0.00  0.00     0.040 H 
BRANCH  16  19
ATOM     19  C3  FA4 d          31.476   8.666  16.964  0.00  0.00    -0.050 A 
ATOM     20  C2  FA4 d          30.393   9.513  17.371  0.00  0.00    -0.076 A 
ATOM     21  C1  FA4 d          30.397  10.905  17.051  0.00  0.00    -0.082 A 
ATOM     22  H2  FA4 d          29.563   9.094  17.928  0.00  0.00     0.084 H 
ATOM     23  C6  FA4 d          31.480  11.481  16.312  0.00  0.00    -0.082 A 
ATOM     24  H1  FA4 d          29.572  11.531  17.371  0.00  0.00     0.083 H 
ATOM     25  C5  FA4 d          32.578  10.653  15.892  0.00  0.00    -0.075 A 
ATOM     26  H4  FA4 d          31.471  12.537  16.069  0.00  0.00     0.083 H 
ATOM     27  C4  FA4 d          32.591   9.249  16.208  0.00  0.00    -0.034 A 
ATOM     28  H3  FA4 d          33.401  11.089  15.336  0.00  0.00     0.084 H 
BRANCH  27  29
ATOM     29  C27 FA4 d          33.794   8.455  15.730  0.00  0.00     0.033 C 
ATOM     30  H37 FA4 d          34.082   7.735  16.510  0.00  0.00     0.072 H 
ATOM     31  H38 FA4 d          34.629   9.146  15.543  0.00  0.00     0.072 H 
BRANCH  29  32
ATOM     32  N28 FA4 d          33.490   7.725  14.492  0.00  0.00    -0.223 N 
ATOM     33  C29 FA4 d          34.111   8.061  13.308  0.00  0.00     0.665 C 
ATOM     34  N30 FA4 d          34.295   7.130  12.378  0.00  0.00    -0.235 N 
ATOM     35  N31 FA4 d          34.537   9.311  13.076  0.00  0.00    -0.235 N 
ATOM     36  H40 FA4 d          34.757   7.372  11.490  0.00  0.00     0.174 HD
ATOM     37  H41 FA4 d          33.975   6.165  12.546  0.00  0.00     0.174 HD
ATOM     38  H42 FA4 d          34.401  10.041  13.789  0.00  0.00     0.174 HD
ATOM     39  H43 FA4 d          35.002   9.541  12.186  0.00  0.00     0.174 HD
ATOM     40  H39 FA4 d          32.807   6.954  14.510  0.00  0.00     0.178 HD
ENDBRANCH  29  32
ENDBRANCH  27  29
ENDBRANCH  16  19
ENDBRANCH  13  16
ENDBRANCH  10  13
ENDBRANCH   7  10
ENDBRANCH   4   7
ENDBRANCH   1   4
BRANCH   1  41
ATOM     41  C13 FA4 d          26.883   2.700  14.017  0.00  0.00    -0.065 C 
ATOM     42  H17 FA4 d          27.415   1.812  13.645  0.00  0.00     0.033 H 
ATOM     43  H18 FA4 d          26.806   3.445  13.212  0.00  0.00     0.033 H 
BRANCH  41  44
ATOM     44  C14 FA4 d          25.470   2.284  14.438  0.00  0.00    -0.057 C 
ATOM     45  H19 FA4 d          24.857   3.192  14.542  0.00  0.00     0.033 H 
ATOM     46  H20 FA4 d          25.533   1.771  15.409  0.00  0.00     0.033 H 
BRANCH  44  47
ATOM     47  C15 FA4 d          24.781   1.349  13.442  0.00  0.00     0.009 C 
ATOM     48  H21 FA4 d          24.990   0.306  13.723  0.00  0.00     0.047 H 
ATOM     49  H22 FA4 d          25.175   1.543  12.434  0.00  0.00     0.047 H 
BRANCH  47  50
ATOM     50  C16 FA4 d          23.262   1.574  13.440  0.00  0.00     0.218 C 
ATOM     51  N17 FA4 d          22.955   2.835  13.816  0.00  0.00    -0.348 N 
ATOM     52  H23 FA4 d          23.694   3.466  14.056  0.00  0.00     0.163 HD
ATOM     53  O19 FA4 d          22.473   0.681  13.122  0.00  0.00    -0.274 OA
BRANCH  51  54
ATOM     54  C18 FA4 d          21.582   3.299  13.882  0.00  0.00     0.091 C 
ATOM     55  H24 FA4 d          20.903   2.484  13.595  0.00  0.00     0.087 H 
BRANCH  54  56
ATOM     56  C20 FA4 d          21.436   4.454  12.888  0.00  0.00    -0.038 C 
ATOM     57  H25 FA4 d          20.793   5.223  13.341  0.00  0.00     0.036 H 
ATOM     58  H26 FA4 d          20.959   4.068  11.974  0.00  0.00     0.036 H 
BRANCH  56  59
ATOM     59  C23 FA4 d          22.761   5.104  12.502  0.00  0.00    -0.061 C 
ATOM     60  H28 FA4 d          22.768   5.280  11.416  0.00  0.00     0.033 H 
ATOM     61  H29 FA4 d          23.582   4.422  12.768  0.00  0.00     0.033 H 
BRANCH  59  62
ATOM     62  C24 FA4 d          22.971   6.436  13.220  0.00  0.00    -0.043 C 
ATOM     63  H30 FA4 d          23.438   7.144  12.520  0.00  0.00     0.035 H 
ATOM     64  H31 FA4 d          23.641   6.274  14.077  0.00  0.00     0.035 H 
BRANCH  62  65
ATOM     65  C25 FA4 d          21.660   7.040  13.727  0.00  0.00     0.080 C 
ATOM     66  H32 FA4 d          20.873   6.274  13.666  0.00  0.00     0.075 H 
ATOM     67  H33 FA4 d          21.394   7.893  13.086  0.00  0.00     0.075 H 
BRANCH  65  68
ATOM     68  N26 FA4 d          21.755   7.503  15.106  0.00  0.00    -0.079 N 
ATOM     69  H34 FA4 d          22.680   7.317  15.460  0.00  0.00     0.274 HD
ATOM     70  H35 FA4 d          21.076   7.017  15.671  0.00  0.00     0.274 HD
ATOM     71  H36 FA4 d          21.575   8.494  15.141  0.00  0.00     0.274 HD
ENDBRANCH  65  68
ENDBRANCH  62  65
ENDBRANCH  59  62
ENDBRANCH  56  59
ENDBRANCH  54  56
BRANCH  54  72
ATOM     72  C21 FA4 d          21.245   3.748  15.315  0.00  0.00     0.263 C 
ATOM     73  N22 FA4 d          22.306   4.177  16.013  0.00  0.00    -0.236 N 
ATOM     74  H27 FA4 d          23.215   4.183  15.597  0.00  0.00     0.197 HD
ATOM     75  O33 FA4 d          20.096   3.710  15.743  0.00  0.00    -0.269 OA
BRANCH  73  76
ATOM     76  O32 FA4 d          22.131   4.615  17.329  0.00  0.00    -0.287 OA
ATOM     77  H44 FA4 d          21.622   3.972  17.810  0.00  0.00     0.244 HD
ENDBRANCH  73  76
ENDBRANCH  54  72
ENDBRANCH  51  54
ENDBRANCH  47  50
ENDBRANCH  44  47
ENDBRANCH  41  44
ENDBRANCH   1  41
TORSDOF 20
ENDMDL
MODEL 9
REMARK VINA RESULT:      -7.1      4.101     11.132
REMARK  20 active torsions:
REMARK  status: ('A' for Active; 'I' for Inactive)
REMARK    1  A    between atoms: C3_3  and  C7_7 
REMARK    2  A    between atoms: C4_4  and  C27_27 
REMARK    3  A    between atoms: C7_7  and  C8_8 
REMARK    4  A    between atoms: C8_8  and  C9_9 
REMARK    5  A    between atoms: C9_9  and  C10_10 
REMARK    6  A    between atoms: C10_10  and  C11_11 
REMARK    7  A    between atoms: C11_11  and  C12_12 
REMARK    8  A    between atoms: C12_12  and  C13_13 
REMARK    9  A    between atoms: C13_13  and  C14_14 
REMARK   10  A    between atoms: C14_14  and  C15_15 
REMARK   11  A    between atoms: C15_15  and  C16_16 
REMARK       I    between atoms: C16_16  and  N17_17 
REMARK   12  A    between atoms: N17_17  and  C18_18 
REMARK   13  A    between atoms: C18_18  and  C20_20 
REMARK   14  A    between atoms: C18_18  and  C21_21 
REMARK   15  A    between atoms: C20_20  and  C23_23 
REMARK       I    between atoms: C21_21  and  N22_22 
REMARK   16  A    between atoms: N22_22  and  O32_32 
REMARK   17  A    between atoms: C23_23  and  C24_24 
REMARK   18  A    between atoms: C24_24  and  C25_25 
REMARK   19  A    between atoms: C25_25  and  N26_26 
REMARK   20  A    between atoms: C27_27  and  N28_28 
REMARK       I    between atoms: N28_28  and  C29_29 
REMARK       I    between atoms: C29_29  and  N30_30 
ROOT
ATOM      1  C12 FA4 d          28.508   3.871  15.163  0.00  0.00    -0.065 C 
ATOM      2  H15 FA4 d          28.127   3.942  16.193  0.00  0.00     0.033 H 
ATOM      3  H16 FA4 d          29.567   3.576  15.184  0.00  0.00     0.033 H 
ENDROOT
BRANCH   1   4
ATOM      4  C11 FA4 d          28.400   5.251  14.508  0.00  0.00    -0.065 C 
ATOM      5  H13 FA4 d          28.735   5.174  13.463  0.00  0.00     0.033 H 
ATOM      6  H14 FA4 d          27.349   5.574  14.534  0.00  0.00     0.033 H 
BRANCH   4   7
ATOM      7  C10 FA4 d          29.255   6.301  15.223  0.00  0.00    -0.065 C 
ATOM      8  H11 FA4 d          29.749   6.925  14.463  0.00  0.00     0.033 H 
ATOM      9  H12 FA4 d          28.594   6.929  15.839  0.00  0.00     0.033 H 
BRANCH   7  10
ATOM     10  C9  FA4 d          30.330   5.692  16.127  0.00  0.00    -0.065 C 
ATOM     11  H9  FA4 d          30.399   6.293  17.046  0.00  0.00     0.033 H 
ATOM     12  H10 FA4 d          30.034   4.664  16.382  0.00  0.00     0.033 H 
BRANCH  10  13
ATOM     13  C8  FA4 d          31.708   5.654  15.465  0.00  0.00    -0.061 C 
ATOM     14  H7  FA4 d          32.038   4.606  15.398  0.00  0.00     0.033 H 
ATOM     15  H8  FA4 d          31.625   6.077  14.452  0.00  0.00     0.033 H 
BRANCH  13  16
ATOM     16  C7  FA4 d          32.761   6.454  16.249  0.00  0.00    -0.040 C 
ATOM     17  H5  FA4 d          32.802   6.070  17.280  0.00  0.00     0.040 H 
ATOM     18  H6  FA4 d          33.741   6.317  15.768  0.00  0.00     0.040 H 
BRANCH  16  19
ATOM     19  C3  FA4 d          32.444   7.928  16.293  0.00  0.00    -0.050 A 
ATOM     20  C2  FA4 d          32.079   8.532  17.541  0.00  0.00    -0.076 A 
ATOM     21  C1  FA4 d          31.772   9.925  17.614  0.00  0.00    -0.082 A 
ATOM     22  H2  FA4 d          32.034   7.926  18.438  0.00  0.00     0.084 H 
ATOM     23  C6  FA4 d          31.819  10.744  16.441  0.00  0.00    -0.082 A 
ATOM     24  H1  FA4 d          31.502  10.366  18.567  0.00  0.00     0.083 H 
ATOM     25  C5  FA4 d          32.184  10.164  15.177  0.00  0.00    -0.075 A 
ATOM     26  H4  FA4 d          31.580  11.800  16.506  0.00  0.00     0.083 H 
ATOM     27  C4  FA4 d          32.497   8.761  15.086  0.00  0.00    -0.034 A 
ATOM     28  H3  FA4 d          32.223  10.784  14.289  0.00  0.00     0.084 H 
BRANCH  27  29
ATOM     29  C27 FA4 d          32.877   8.237  13.713  0.00  0.00     0.033 C 
ATOM     30  H37 FA4 d          32.086   8.502  12.996  0.00  0.00     0.072 H 
ATOM     31  H38 FA4 d          32.975   7.142  13.761  0.00  0.00     0.072 H 
BRANCH  29  32
ATOM     32  N28 FA4 d          34.149   8.812  13.258  0.00  0.00    -0.223 N 
ATOM     33  C29 FA4 d          34.815   8.278  12.176  0.00  0.00     0.665 C 
ATOM     34  N30 FA4 d          35.590   9.060  11.433  0.00  0.00    -0.235 N 
ATOM     35  N31 FA4 d          34.692   6.982  11.854  0.00  0.00    -0.235 N 
ATOM     36  H40 FA4 d          36.091   8.669  10.622  0.00  0.00     0.174 HD
ATOM     37  H41 FA4 d          35.689  10.058  11.668  0.00  0.00     0.174 HD
ATOM     38  H42 FA4 d          34.094   6.365  12.422  0.00  0.00     0.174 HD
ATOM     39  H43 FA4 d          35.196   6.603  11.039  0.00  0.00     0.174 HD
ATOM     40  H39 FA4 d          34.547   9.623  13.753  0.00  0.00     0.178 HD
ENDBRANCH  29  32
ENDBRANCH  27  29
ENDBRANCH  16  19
ENDBRANCH  13  16
ENDBRANCH  10  13
ENDBRANCH   7  10
ENDBRANCH   4   7
ENDBRANCH   1   4
BRANCH   1  41
ATOM     41  C13 FA4 d          27.719   2.795  14.427  0.00  0.00    -0.065 C 
ATOM     42  H17 FA4 d          28.204   1.823  14.599  0.00  0.00     0.033 H 
ATOM     43  H18 FA4 d          27.729   3.024  13.351  0.00  0.00     0.033 H 
BRANCH  41  44
ATOM     44  C14 FA4 d          26.262   2.705  14.895  0.00  0.00    -0.057 C 
ATOM     45  H19 FA4 d          25.939   3.707  15.216  0.00  0.00     0.033 H 
ATOM     46  H20 FA4 d          26.213   2.013  15.749  0.00  0.00     0.033 H 
BRANCH  44  47
ATOM     47  C15 FA4 d          25.298   2.210  13.816  0.00  0.00     0.009 C 
ATOM     48  H21 FA4 d          24.792   1.301  14.175  0.00  0.00     0.047 H 
ATOM     49  H22 FA4 d          25.867   1.977  12.904  0.00  0.00     0.047 H 
BRANCH  47  50
ATOM     50  C16 FA4 d          24.243   3.277  13.492  0.00  0.00     0.218 C 
ATOM     51  N17 FA4 d          23.000   2.749  13.485  0.00  0.00    -0.348 N 
ATOM     52  H23 FA4 d          22.884   1.773  13.670  0.00  0.00     0.163 HD
ATOM     53  O19 FA4 d          24.552   4.453  13.279  0.00  0.00    -0.274 OA
BRANCH  51  54
ATOM     54  C18 FA4 d          21.828   3.561  13.217  0.00  0.00     0.091 C 
ATOM     55  H24 FA4 d          22.122   4.616  13.129  0.00  0.00     0.087 H 
BRANCH  54  56
ATOM     56  C20 FA4 d          20.871   3.398  14.400  0.00  0.00    -0.038 C 
ATOM     57  H25 FA4 d          21.423   2.936  15.232  0.00  0.00     0.036 H 
ATOM     58  H26 FA4 d          20.048   2.735  14.093  0.00  0.00     0.036 H 
BRANCH  56  59
ATOM     59  C23 FA4 d          20.272   4.712  14.891  0.00  0.00    -0.061 C 
ATOM     60  H28 FA4 d          19.761   4.534  15.849  0.00  0.00     0.033 H 
ATOM     61  H29 FA4 d          19.545   5.071  14.149  0.00  0.00     0.033 H 
BRANCH  59  62
ATOM     62  C24 FA4 d          21.343   5.784  15.094  0.00  0.00    -0.043 C 
ATOM     63  H30 FA4 d          22.306   5.289  15.287  0.00  0.00     0.035 H 
ATOM     64  H31 FA4 d          21.067   6.399  15.963  0.00  0.00     0.035 H 
BRANCH  62  65
ATOM     65  C25 FA4 d          21.495   6.695  13.875  0.00  0.00     0.080 C 
ATOM     66  H32 FA4 d          21.013   7.659  14.094  0.00  0.00     0.075 H 
ATOM     67  H33 FA4 d          20.995   6.222  13.017  0.00  0.00     0.075 H 
BRANCH  65  68
ATOM     68  N26 FA4 d          22.889   6.939  13.529  0.00  0.00    -0.079 N 
ATOM     69  H34 FA4 d          23.064   6.616  12.591  0.00  0.00     0.274 HD
ATOM     70  H35 FA4 d          23.486   6.441  14.172  0.00  0.00     0.274 HD
ATOM     71  H36 FA4 d          23.083   7.926  13.586  0.00  0.00     0.274 HD
ENDBRANCH  65  68
ENDBRANCH  62  65
ENDBRANCH  59  62
ENDBRANCH  56  59
ENDBRANCH  54  56
BRANCH  54  72
ATOM     72  C21 FA4 d          21.168   3.116  11.899  0.00  0.00     0.263 C 
ATOM     73  N22 FA4 d          20.818   1.822  11.878  0.00  0.00    -0.236 N 
ATOM     74  H27 FA4 d          20.992   1.239  12.671  0.00  0.00     0.197 HD
ATOM     75  O33 FA4 d          20.988   3.903  10.976  0.00  0.00    -0.269 OA
BRANCH  73  76
ATOM     76  O32 FA4 d          20.206   1.294  10.737  0.00  0.00    -0.287 OA
ATOM     77  H44 FA4 d          20.225   0.345  10.779  0.00  0.00     0.244 HD
ENDBRANCH  73  76
ENDBRANCH  54  72
ENDBRANCH  51  54
ENDBRANCH  47  50
ENDBRANCH  44  47
ENDBRANCH  41  44
ENDBRANCH   1  41
TORSDOF 20
ENDMDL
MODEL 10
REMARK VINA RESULT:      -6.8      4.415     10.703
REMARK  20 active torsions:
REMARK  status: ('A' for Active; 'I' for Inactive)
REMARK    1  A    between atoms: C3_3  and  C7_7 
REMARK    2  A    between atoms: C4_4  and  C27_27 
REMARK    3  A    between atoms: C7_7  and  C8_8 
REMARK    4  A    between atoms: C8_8  and  C9_9 
REMARK    5  A    between atoms: C9_9  and  C10_10 
REMARK    6  A    between atoms: C10_10  and  C11_11 
REMARK    7  A    between atoms: C11_11  and  C12_12 
REMARK    8  A    between atoms: C12_12  and  C13_13 
REMARK    9  A    between atoms: C13_13  and  C14_14 
REMARK   10  A    between atoms: C14_14  and  C15_15 
REMARK   11  A    between atoms: C15_15  and  C16_16 
REMARK       I    between atoms: C16_16  and  N17_17 
REMARK   12  A    between atoms: N17_17  and  C18_18 
REMARK   13  A    between atoms: C18_18  and  C20_20 
REMARK   14  A    between atoms: C18_18  and  C21_21 
REMARK   15  A    between atoms: C20_20  and  C23_23 
REMARK       I    between atoms: C21_21  and  N22_22 
REMARK   16  A    between atoms: N22_22  and  O32_32 
REMARK   17  A    between atoms: C23_23  and  C24_24 
REMARK   18  A    between atoms: C24_24  and  C25_25 
REMARK   19  A    between atoms: C25_25  and  N26_26 
REMARK   20  A    between atoms: C27_27  and  N28_28 
REMARK       I    between atoms: N28_28  and  C29_29 
REMARK       I    between atoms: C29_29  and  N30_30 
ROOT
ATOM      1  C12 FA4 d          27.331   4.003  13.984  0.00  0.00    -0.065 C 
ATOM      2  H15 FA4 d          27.710   4.719  13.241  0.00  0.00     0.033 H 
ATOM      3  H16 FA4 d          26.897   4.551  14.833  0.00  0.00     0.033 H 
ENDROOT
BRANCH   1   4
ATOM      4  C11 FA4 d          28.506   3.164  14.496  0.00  0.00    -0.065 C 
ATOM      5  H13 FA4 d          28.170   2.123  14.619  0.00  0.00     0.033 H 
ATOM      6  H14 FA4 d          29.317   3.203  13.754  0.00  0.00     0.033 H 
BRANCH   4   7
ATOM      7  C10 FA4 d          29.040   3.672  15.838  0.00  0.00    -0.065 C 
ATOM      8  H11 FA4 d          28.213   4.145  16.387  0.00  0.00     0.033 H 
ATOM      9  H12 FA4 d          29.417   2.812  16.411  0.00  0.00     0.033 H 
BRANCH   7  10
ATOM     10  C9  FA4 d          30.173   4.692  15.690  0.00  0.00    -0.065 C 
ATOM     11  H9  FA4 d          31.102   4.243  16.072  0.00  0.00     0.033 H 
ATOM     12  H10 FA4 d          30.293   4.933  14.624  0.00  0.00     0.033 H 
BRANCH  10  13
ATOM     13  C8  FA4 d          29.906   5.988  16.457  0.00  0.00    -0.061 C 
ATOM     14  H7  FA4 d          28.967   5.877  17.020  0.00  0.00     0.033 H 
ATOM     15  H8  FA4 d          30.736   6.161  17.158  0.00  0.00     0.033 H 
BRANCH  13  16
ATOM     16  C7  FA4 d          29.782   7.207  15.527  0.00  0.00    -0.040 C 
ATOM     17  H5  FA4 d          29.335   6.882  14.576  0.00  0.00     0.040 H 
ATOM     18  H6  FA4 d          29.128   7.951  16.005  0.00  0.00     0.040 H 
BRANCH  16  19
ATOM     19  C3  FA4 d          31.118   7.846  15.242  0.00  0.00    -0.050 A 
ATOM     20  C2  FA4 d          31.832   7.482  14.053  0.00  0.00    -0.076 A 
ATOM     21  C1  FA4 d          33.099   8.069  13.755  0.00  0.00    -0.082 A 
ATOM     22  H2  FA4 d          31.407   6.753  13.373  0.00  0.00     0.084 H 
ATOM     23  C6  FA4 d          33.684   9.030  14.642  0.00  0.00    -0.082 A 
ATOM     24  H1  FA4 d          33.623   7.785  12.850  0.00  0.00     0.083 H 
ATOM     25  C5  FA4 d          32.988   9.413  15.840  0.00  0.00    -0.075 A 
ATOM     26  H4  FA4 d          34.649   9.467  14.410  0.00  0.00     0.083 H 
ATOM     27  C4  FA4 d          31.709   8.831  16.154  0.00  0.00    -0.034 A 
ATOM     28  H3  FA4 d          33.428  10.143  16.509  0.00  0.00     0.084 H 
BRANCH  27  29
ATOM     29  C27 FA4 d          31.045   9.300  17.437  0.00  0.00     0.033 C 
ATOM     30  H37 FA4 d          31.809   9.732  18.100  0.00  0.00     0.072 H 
ATOM     31  H38 FA4 d          30.574   8.439  17.933  0.00  0.00     0.072 H 
BRANCH  29  32
ATOM     32  N28 FA4 d          30.019  10.315  17.163  0.00  0.00    -0.223 N 
ATOM     33  C29 FA4 d          30.349  11.652  17.113  0.00  0.00     0.665 C 
ATOM     34  N30 FA4 d          29.636  12.474  16.350  0.00  0.00    -0.235 N 
ATOM     35  N31 FA4 d          31.381  12.141  17.816  0.00  0.00    -0.235 N 
ATOM     36  H40 FA4 d          29.875  13.475  16.307  0.00  0.00     0.174 HD
ATOM     37  H41 FA4 d          28.843  12.110  15.803  0.00  0.00     0.174 HD
ATOM     38  H42 FA4 d          31.942  11.514  18.410  0.00  0.00     0.174 HD
ATOM     39  H43 FA4 d          31.613  13.143  17.761  0.00  0.00     0.174 HD
ATOM     40  H39 FA4 d          29.043  10.024  17.007  0.00  0.00     0.178 HD
ENDBRANCH  29  32
ENDBRANCH  27  29
ENDBRANCH  16  19
ENDBRANCH  13  16
ENDBRANCH  10  13
ENDBRANCH   7  10
ENDBRANCH   4   7
ENDBRANCH   1   4
BRANCH   1  41
ATOM     41  C13 FA4 d          26.234   3.166  13.335  0.00  0.00    -0.065 C 
ATOM     42  H17 FA4 d          26.698   2.473  12.619  0.00  0.00     0.033 H 
ATOM     43  H18 FA4 d          25.547   3.840  12.802  0.00  0.00     0.033 H 
BRANCH  41  44
ATOM     44  C14 FA4 d          25.429   2.353  14.355  0.00  0.00    -0.057 C 
ATOM     45  H19 FA4 d          26.113   1.652  14.857  0.00  0.00     0.033 H 
ATOM     46  H20 FA4 d          24.655   1.787  13.815  0.00  0.00     0.033 H 
BRANCH  44  47
ATOM     47  C15 FA4 d          24.745   3.207  15.423  0.00  0.00     0.009 C 
ATOM     48  H21 FA4 d          25.128   4.237  15.360  0.00  0.00     0.047 H 
ATOM     49  H22 FA4 d          24.971   2.792  16.416  0.00  0.00     0.047 H 
BRANCH  47  50
ATOM     50  C16 FA4 d          23.223   3.223  15.219  0.00  0.00     0.218 C 
ATOM     51  N17 FA4 d          22.782   4.468  14.934  0.00  0.00    -0.348 N 
ATOM     52  H23 FA4 d          23.439   5.220  14.892  0.00  0.00     0.163 HD
ATOM     53  O19 FA4 d          22.544   2.197  15.313  0.00  0.00    -0.274 OA
BRANCH  51  54
ATOM     54  C18 FA4 d          21.379   4.741  14.685  0.00  0.00     0.091 C 
ATOM     55  H24 FA4 d          20.759   4.015  15.231  0.00  0.00     0.087 H 
BRANCH  54  56
ATOM     56  C20 FA4 d          21.136   4.588  13.182  0.00  0.00    -0.038 C 
ATOM     57  H25 FA4 d          22.067   4.234  12.714  0.00  0.00     0.036 H 
ATOM     58  H26 FA4 d          20.870   5.573  12.771  0.00  0.00     0.036 H 
BRANCH  56  59
ATOM     59  C23 FA4 d          20.021   3.606  12.837  0.00  0.00    -0.061 C 
ATOM     60  H28 FA4 d          19.148   4.171  12.478  0.00  0.00     0.033 H 
ATOM     61  H29 FA4 d          19.748   3.045  13.743  0.00  0.00     0.033 H 
BRANCH  59  62
ATOM     62  C24 FA4 d          20.450   2.617  11.753  0.00  0.00    -0.043 C 
ATOM     63  H30 FA4 d          20.163   3.022  10.772  0.00  0.00     0.035 H 
ATOM     64  H31 FA4 d          19.931   1.662  11.921  0.00  0.00     0.035 H 
BRANCH  62  65
ATOM     65  C25 FA4 d          21.959   2.364  11.757  0.00  0.00     0.080 C 
ATOM     66  H32 FA4 d          22.466   3.263  12.136  0.00  0.00     0.075 H 
ATOM     67  H33 FA4 d          22.285   2.165  10.725  0.00  0.00     0.075 H 
BRANCH  65  68
ATOM     68  N26 FA4 d          22.333   1.229  12.592  0.00  0.00    -0.079 N 
ATOM     69  H34 FA4 d          22.338   0.390  12.036  0.00  0.00     0.274 HD
ATOM     70  H35 FA4 d          21.666   1.131  13.343  0.00  0.00     0.274 HD
ATOM     71  H36 FA4 d          23.251   1.383  12.977  0.00  0.00     0.274 HD
ENDBRANCH  65  68
ENDBRANCH  62  65
ENDBRANCH  59  62
ENDBRANCH  56  59
ENDBRANCH  54  56
BRANCH  54  72
ATOM     72  C21 FA4 d          21.025   6.159  15.167  0.00  0.00     0.263 C 
ATOM     73  N22 FA4 d          20.949   7.064  14.181  0.00  0.00    -0.236 N 
ATOM     74  H27 FA4 d          21.118   6.794  13.234  0.00  0.00     0.197 HD
ATOM     75  O33 FA4 d          20.828   6.401  16.354  0.00  0.00    -0.269 OA
BRANCH  73  76
ATOM     76  O32 FA4 d          20.632   8.391  14.489  0.00  0.00    -0.287 OA
ATOM     77  H44 FA4 d          19.846   8.644  14.017  0.00  0.00     0.244 HD
ENDBRANCH  73  76
ENDBRANCH  54  72
ENDBRANCH  51  54
ENDBRANCH  47  50
ENDBRANCH  44  47
ENDBRANCH  41  44
ENDBRANCH   1  41
TORSDOF 20
ENDMDL
