MODEL 1
REMARK VINA RESULT:      -9.3      0.000      0.000
REMARK  7 active torsions:
REMARK  status: ('A' for Active; 'I' for Inactive)
REMARK    1  A    between atoms: O2_1  and  C2_2 
REMARK    2  A    between atoms: C3_3  and  O3_4 
REMARK    3  A    between atoms: C4_5  and  O4_6 
REMARK    4  A    between atoms: C5_7  and  C6_8 
REMARK    5  A    between atoms: C6_8  and  O6_9 
REMARK    6  A    between atoms: N1_12  and  C9_14 
REMARK    7  A    between atoms: C9_14  and  C10_15 
ROOT
ATOM      1  C2  VBZ d          27.615  45.829  -0.713  0.00  0.00     0.090 C 
ATOM      2  C3  VBZ d          27.930  46.995   0.196  0.00  0.00     0.094 C 
ATOM      3  C4  VBZ d          27.974  48.229  -0.713  0.00  0.00     0.116 C 
ATOM      4  C5  VBZ d          26.679  48.216  -1.556  0.00  0.00     0.002 C 
ATOM      5  C7  VBZ d          26.780  47.121  -2.624  0.00  0.00    -0.028 C 
ATOM      6  C8  VBZ d          29.247  48.165  -1.573  0.00  0.00     0.115 C 
ATOM      7  N1  VBZ d          29.221  46.931  -2.395  0.00  0.00    -0.058 N 
ATOM      8  C1  VBZ d          27.920  46.227  -2.181  0.00  0.00     0.132 C 
ATOM      9  H2  VBZ d          26.534  45.632  -0.644  0.00  0.00     0.090 H 
ATOM     10  H3  VBZ d          27.158  47.119   0.970  0.00  0.00     0.091 H 
ATOM     11  H6  VBZ d          25.884  47.899  -0.865  0.00  0.00     0.048 H 
ATOM     12  H10 VBZ d          26.998  47.563  -3.607  0.00  0.00     0.036 H 
ATOM     13  H11 VBZ d          25.842  46.549  -2.677  0.00  0.00     0.036 H 
ATOM     14  H12 VBZ d          30.133  48.153  -0.920  0.00  0.00     0.081 H 
ATOM     15  H13 VBZ d          29.290  49.045  -2.232  0.00  0.00     0.081 H 
ATOM     16  H14 VBZ d          29.971  46.336  -2.082  0.00  0.00     0.281 HD
ATOM     17  H15 VBZ d          27.928  45.314  -2.793  0.00  0.00     0.088 H 
ENDROOT
BRANCH   7  18
ATOM     18  C9  VBZ d          29.397  47.164  -3.875  0.00  0.00     0.108 C 
ATOM     19  H16 VBZ d          28.521  47.723  -4.233  0.00  0.00     0.083 H 
ATOM     20  H17 VBZ d          29.433  46.181  -4.369  0.00  0.00     0.083 H 
BRANCH  18  21
ATOM     21  C10 VBZ d          30.641  47.937  -4.289  0.00  0.00    -0.033 A 
ATOM     22  C11 VBZ d          30.563  49.070  -5.102  0.00  0.00    -0.075 A 
ATOM     23  C12 VBZ d          31.728  49.777  -5.471  0.00  0.00    -0.082 A 
ATOM     24  H18 VBZ d          29.595  49.411  -5.454  0.00  0.00     0.084 H 
ATOM     25  C13 VBZ d          32.990  49.334  -5.046  0.00  0.00    -0.083 A 
ATOM     26  H19 VBZ d          31.647  50.666  -6.086  0.00  0.00     0.083 H 
ATOM     27  C14 VBZ d          33.080  48.185  -4.255  0.00  0.00    -0.082 A 
ATOM     28  H22 VBZ d          33.885  49.877  -5.329  0.00  0.00     0.083 H 
ATOM     29  C15 VBZ d          31.910  47.501  -3.880  0.00  0.00    -0.075 A 
ATOM     30  H21 VBZ d          34.049  47.823  -3.931  0.00  0.00     0.083 H 
ATOM     31  H20 VBZ d          31.991  46.615  -3.260  0.00  0.00     0.084 H 
ENDBRANCH  18  21
ENDBRANCH   7  18
BRANCH   3  32
ATOM     32  O4  VBZ d          27.975  49.409   0.132  0.00  0.00    -0.385 OA
ATOM     33  H5  VBZ d          27.943  49.145   1.044  0.00  0.00     0.210 HD
ENDBRANCH   3  32
BRANCH   1  34
ATOM     34  O2  VBZ d          28.278  44.645  -0.292  0.00  0.00    -0.391 OA
ATOM     35  H1  VBZ d          27.855  44.308   0.490  0.00  0.00     0.210 HD
ENDBRANCH   1  34
BRANCH   2  36
ATOM     36  O3  VBZ d          29.170  46.728   0.794  0.00  0.00    -0.390 OA
ATOM     37  H4  VBZ d          29.726  46.267   0.177  0.00  0.00     0.210 HD
ENDBRANCH   2  36
BRANCH   4  38
ATOM     38  C6  VBZ d          26.196  49.556  -2.117  0.00  0.00     0.023 C 
ATOM     39  H7  VBZ d          25.987  50.251  -1.290  0.00  0.00     0.074 H 
ATOM     40  H8  VBZ d          25.280  49.402  -2.707  0.00  0.00     0.074 H 
BRANCH  38  41
ATOM     41  O6  VBZ d          27.214  50.092  -2.946  0.00  0.00    -0.400 OA
ATOM     42  H9  VBZ d          27.383  50.992  -2.696  0.00  0.00     0.209 HD
ENDBRANCH  38  41
ENDBRANCH   4  38
TORSDOF 7
ENDMDL
MODEL 2
REMARK VINA RESULT:      -8.4      1.485      2.168
REMARK  7 active torsions:
REMARK  status: ('A' for Active; 'I' for Inactive)
REMARK    1  A    between atoms: O2_1  and  C2_2 
REMARK    2  A    between atoms: C3_3  and  O3_4 
REMARK    3  A    between atoms: C4_5  and  O4_6 
REMARK    4  A    between atoms: C5_7  and  C6_8 
REMARK    5  A    between atoms: C6_8  and  O6_9 
REMARK    6  A    between atoms: N1_12  and  C9_14 
REMARK    7  A    between atoms: C9_14  and  C10_15 
ROOT
ATOM      1  C2  VBZ d          27.720  45.867  -0.910  0.00  0.00     0.090 C 
ATOM      2  C3  VBZ d          27.951  46.854   0.211  0.00  0.00     0.094 C 
ATOM      3  C4  VBZ d          27.988  48.235  -0.453  0.00  0.00     0.116 C 
ATOM      4  C5  VBZ d          26.732  48.340  -1.348  0.00  0.00     0.002 C 
ATOM      5  C7  VBZ d          26.920  47.464  -2.591  0.00  0.00    -0.028 C 
ATOM      6  C8  VBZ d          29.298  48.369  -1.247  0.00  0.00     0.115 C 
ATOM      7  N1  VBZ d          29.354  47.307  -2.281  0.00  0.00    -0.058 N 
ATOM      8  C1  VBZ d          28.073  46.538  -2.263  0.00  0.00     0.132 C 
ATOM      9  H2  VBZ d          26.646  45.629  -0.932  0.00  0.00     0.090 H 
ATOM     10  H3  VBZ d          27.143  46.811   0.955  0.00  0.00     0.091 H 
ATOM     11  H6  VBZ d          25.920  47.878  -0.767  0.00  0.00     0.048 H 
ATOM     12  H10 VBZ d          27.163  48.086  -3.465  0.00  0.00     0.036 H 
ATOM     13  H11 VBZ d          26.007  46.885  -2.795  0.00  0.00     0.036 H 
ATOM     14  H12 VBZ d          30.155  48.263  -0.564  0.00  0.00     0.081 H 
ATOM     15  H13 VBZ d          29.336  49.356  -1.732  0.00  0.00     0.081 H 
ATOM     16  H14 VBZ d          30.113  46.687  -2.046  0.00  0.00     0.281 HD
ATOM     17  H15 VBZ d          28.143  45.753  -3.031  0.00  0.00     0.088 H 
ENDROOT
BRANCH   7  18
ATOM     18  C9  VBZ d          29.585  47.814  -3.683  0.00  0.00     0.108 C 
ATOM     19  H16 VBZ d          30.417  48.532  -3.647  0.00  0.00     0.083 H 
ATOM     20  H17 VBZ d          28.669  48.330  -4.009  0.00  0.00     0.083 H 
BRANCH  18  21
ATOM     21  C10 VBZ d          29.924  46.763  -4.730  0.00  0.00    -0.033 A 
ATOM     22  C11 VBZ d          29.076  45.682  -4.983  0.00  0.00    -0.075 A 
ATOM     23  C12 VBZ d          29.405  44.719  -5.962  0.00  0.00    -0.082 A 
ATOM     24  H18 VBZ d          28.154  45.581  -4.421  0.00  0.00     0.084 H 
ATOM     25  C13 VBZ d          30.606  44.820  -6.680  0.00  0.00    -0.083 A 
ATOM     26  H19 VBZ d          28.726  43.897  -6.160  0.00  0.00     0.083 H 
ATOM     27  C14 VBZ d          31.474  45.884  -6.414  0.00  0.00    -0.082 A 
ATOM     28  H22 VBZ d          30.859  44.082  -7.433  0.00  0.00     0.083 H 
ATOM     29  C15 VBZ d          31.126  46.846  -5.448  0.00  0.00    -0.075 A 
ATOM     30  H21 VBZ d          32.412  45.967  -6.951  0.00  0.00     0.083 H 
ATOM     31  H20 VBZ d          31.802  47.670  -5.255  0.00  0.00     0.084 H 
ENDBRANCH  18  21
ENDBRANCH   7  18
BRANCH   3  32
ATOM     32  O4  VBZ d          27.908  49.239   0.592  0.00  0.00    -0.385 OA
ATOM     33  H5  VBZ d          28.052  50.099   0.214  0.00  0.00     0.210 HD
ENDBRANCH   3  32
BRANCH   1  34
ATOM     34  O2  VBZ d          28.409  44.646  -0.680  0.00  0.00    -0.391 OA
ATOM     35  H1  VBZ d          28.330  44.407   0.237  0.00  0.00     0.210 HD
ENDBRANCH   1  34
BRANCH   2  36
ATOM     36  O3  VBZ d          29.174  46.518   0.811  0.00  0.00    -0.390 OA
ATOM     37  H4  VBZ d          29.012  46.141   1.668  0.00  0.00     0.210 HD
ENDBRANCH   2  36
BRANCH   4  38
ATOM     38  C6  VBZ d          26.222  49.745  -1.677  0.00  0.00     0.023 C 
ATOM     39  H7  VBZ d          26.598  50.461  -0.931  0.00  0.00     0.074 H 
ATOM     40  H8  VBZ d          25.123  49.752  -1.671  0.00  0.00     0.074 H 
BRANCH  38  41
ATOM     41  O6  VBZ d          26.695  50.106  -2.965  0.00  0.00    -0.400 OA
ATOM     42  H9  VBZ d          27.523  49.671  -3.130  0.00  0.00     0.209 HD
ENDBRANCH  38  41
ENDBRANCH   4  38
TORSDOF 7
ENDMDL
MODEL 3
REMARK VINA RESULT:      -6.8      1.498      3.427
REMARK  7 active torsions:
REMARK  status: ('A' for Active; 'I' for Inactive)
REMARK    1  A    between atoms: O2_1  and  C2_2 
REMARK    2  A    between atoms: C3_3  and  O3_4 
REMARK    3  A    between atoms: C4_5  and  O4_6 
REMARK    4  A    between atoms: C5_7  and  C6_8 
REMARK    5  A    between atoms: C6_8  and  O6_9 
REMARK    6  A    between atoms: N1_12  and  C9_14 
REMARK    7  A    between atoms: C9_14  and  C10_15 
ROOT
ATOM      1  C2  VBZ d          27.269  49.316  -1.985  0.00  0.00     0.090 C 
ATOM      2  C3  VBZ d          26.193  48.282  -2.222  0.00  0.00     0.094 C 
ATOM      3  C4  VBZ d          26.838  46.930  -1.898  0.00  0.00     0.116 C 
ATOM      4  C5  VBZ d          27.504  47.068  -0.511  0.00  0.00     0.002 C 
ATOM      5  C7  VBZ d          28.771  47.920  -0.639  0.00  0.00    -0.028 C 
ATOM      6  C8  VBZ d          27.842  46.580  -3.010  0.00  0.00     0.115 C 
ATOM      7  N1  VBZ d          28.882  47.635  -3.079  0.00  0.00    -0.058 N 
ATOM      8  C1  VBZ d          28.655  48.620  -1.977  0.00  0.00     0.132 C 
ATOM      9  H2  VBZ d          27.110  49.742  -0.982  0.00  0.00     0.090 H 
ATOM     10  H3  VBZ d          25.322  48.454  -1.573  0.00  0.00     0.091 H 
ATOM     11  H6  VBZ d          26.799  47.655   0.095  0.00  0.00     0.048 H 
ATOM     12  H10 VBZ d          29.667  47.282  -0.615  0.00  0.00     0.036 H 
ATOM     13  H11 VBZ d          28.823  48.657   0.177  0.00  0.00     0.036 H 
ATOM     14  H12 VBZ d          27.316  46.519  -3.975  0.00  0.00     0.081 H 
ATOM     15  H13 VBZ d          28.314  45.612  -2.787  0.00  0.00     0.081 H 
ATOM     16  H14 VBZ d          28.786  48.106  -3.964  0.00  0.00     0.281 HD
ATOM     17  H15 VBZ d          29.432  49.394  -2.055  0.00  0.00     0.088 H 
ENDROOT
BRANCH   7  18
ATOM     18  C9  VBZ d          30.297  47.122  -2.974  0.00  0.00     0.108 C 
ATOM     19  H16 VBZ d          30.250  46.071  -2.655  0.00  0.00     0.083 H 
ATOM     20  H17 VBZ d          30.814  47.716  -2.205  0.00  0.00     0.083 H 
BRANCH  18  21
ATOM     21  C10 VBZ d          31.129  47.185  -4.247  0.00  0.00    -0.033 A 
ATOM     22  C11 VBZ d          30.724  46.543  -5.419  0.00  0.00    -0.075 A 
ATOM     23  C12 VBZ d          31.507  46.617  -6.591  0.00  0.00    -0.082 A 
ATOM     24  H18 VBZ d          29.797  45.980  -5.429  0.00  0.00     0.084 H 
ATOM     25  C13 VBZ d          32.722  47.318  -6.588  0.00  0.00    -0.083 A 
ATOM     26  H19 VBZ d          31.168  46.130  -7.498  0.00  0.00     0.083 H 
ATOM     27  C14 VBZ d          33.149  47.941  -5.412  0.00  0.00    -0.082 A 
ATOM     28  H22 VBZ d          33.324  47.377  -7.489  0.00  0.00     0.083 H 
ATOM     29  C15 VBZ d          32.351  47.875  -4.256  0.00  0.00    -0.075 A 
ATOM     30  H21 VBZ d          34.093  48.475  -5.391  0.00  0.00     0.083 H 
ATOM     31  H20 VBZ d          32.687  48.367  -3.351  0.00  0.00     0.084 H 
ENDBRANCH  18  21
ENDBRANCH   7  18
BRANCH   3  32
ATOM     32  O4  VBZ d          25.783  45.936  -1.818  0.00  0.00    -0.385 OA
ATOM     33  H5  VBZ d          25.884  45.310  -2.526  0.00  0.00     0.210 HD
ENDBRANCH   3  32
BRANCH   1  34
ATOM     34  O2  VBZ d          27.174  50.390  -2.910  0.00  0.00    -0.391 OA
ATOM     35  H1  VBZ d          26.330  50.816  -2.813  0.00  0.00     0.210 HD
ENDBRANCH   1  34
BRANCH   2  36
ATOM     36  O3  VBZ d          25.813  48.384  -3.569  0.00  0.00    -0.390 OA
ATOM     37  H4  VBZ d          26.573  48.601  -4.096  0.00  0.00     0.210 HD
ENDBRANCH   2  36
BRANCH   4  38
ATOM     38  C6  VBZ d          27.726  45.782   0.290  0.00  0.00     0.023 C 
ATOM     39  H7  VBZ d          26.782  45.470   0.761  0.00  0.00     0.074 H 
ATOM     40  H8  VBZ d          28.484  45.956   1.068  0.00  0.00     0.074 H 
BRANCH  38  41
ATOM     41  O6  VBZ d          28.175  44.770  -0.596  0.00  0.00    -0.400 OA
ATOM     42  H9  VBZ d          27.624  44.003  -0.504  0.00  0.00     0.209 HD
ENDBRANCH  38  41
ENDBRANCH   4  38
TORSDOF 7
ENDMDL
