MODEL 1
REMARK VINA RESULT:     -10.9      0.000      0.000
REMARK  5 active torsions:
REMARK  status: ('A' for Active; 'I' for Inactive)
REMARK    1  A    between atoms: N19_3  and  C23_4 
REMARK    2  A    between atoms: C23_4  and  C24_5 
REMARK    3  A    between atoms: C10_20  and  C7_21 
REMARK    4  A    between atoms: C4_24  and  C3_27 
REMARK    5  A    between atoms: C3_27  and  N1_28 
ROOT
ATOM      1  O21 FSN d          16.777 -12.842  22.589  0.00  0.00    -0.272 OA
ATOM      2  C20 FSN d          17.518 -12.597  21.653  0.00  0.00     0.234 C 
ATOM      3  N19 FSN d          18.655 -13.383  21.363  0.00  0.00    -0.283 N 
ATOM      4  C17 FSN d          19.222 -12.997  20.114  0.00  0.00     0.233 C 
ATOM      5  O18 FSN d          20.219 -13.492  19.613  0.00  0.00    -0.272 OA
ATOM      6  C16 FSN d          18.412 -11.926  19.539  0.00  0.00     0.066 C 
ATOM      7  C15 FSN d          17.419 -12.355  18.460  0.00  0.00     0.117 C 
ATOM      8  N11 FSN d          15.987 -12.590  18.965  0.00  0.00    -0.057 N 
ATOM      9  C12 FSN d          15.189 -12.191  17.770  0.00  0.00     0.085 C 
ATOM     10  C13 FSN d          16.149 -12.420  16.558  0.00  0.00    -0.040 C 
ATOM     11  C14 FSN d          17.490 -11.873  17.068  0.00  0.00    -0.036 C 
ATOM     12  C10 FSN d          16.012 -11.453  19.984  0.00  0.00     0.142 C 
ATOM     13  C22 FSN d          17.377 -11.528  20.641  0.00  0.00     0.069 C 
ATOM     14  H7  FSN d          19.051 -11.097  19.204  0.00  0.00     0.059 H 
ATOM     15  H8  FSN d          17.759 -13.390  18.308  0.00  0.00     0.086 H 
ATOM     16  H9  FSN d          15.763 -13.501  19.332  0.00  0.00     0.281 HD
ATOM     17  H10 FSN d          14.893 -11.133  17.836  0.00  0.00     0.076 H 
ATOM     18  H11 FSN d          14.290 -12.819  17.676  0.00  0.00     0.076 H 
ATOM     19  H12 FSN d          15.807 -11.864  15.673  0.00  0.00     0.035 H 
ATOM     20  H13 FSN d          16.227 -13.489  16.313  0.00  0.00     0.035 H 
ATOM     21  H14 FSN d          18.345 -12.304  16.526  0.00  0.00     0.036 H 
ATOM     22  H15 FSN d          17.536 -10.775  17.012  0.00  0.00     0.036 H 
ATOM     23  H16 FSN d          16.024 -10.523  19.396  0.00  0.00     0.093 H 
ATOM     24  H25 FSN d          17.620 -10.552  21.087  0.00  0.00     0.059 H 
ENDROOT
BRANCH  12  25
ATOM     25  C7  FSN d          14.791 -11.300  20.841  0.00  0.00    -0.027 A 
ATOM     26  C8  FSN d          14.030 -12.437  21.097  0.00  0.00    -0.074 A 
ATOM     27  C9  FSN d          12.926 -12.359  21.934  0.00  0.00    -0.069 A 
ATOM     28  H17 FSN d          14.299 -13.383  20.641  0.00  0.00     0.084 H 
ATOM     29  C4  FSN d          12.591 -11.103  22.514  0.00  0.00     0.007 A 
ATOM     30  H18 FSN d          12.330 -13.239  22.144  0.00  0.00     0.085 H 
ATOM     31  C5  FSN d          13.357  -9.959  22.263  0.00  0.00    -0.069 A 
ATOM     32  C6  FSN d          14.470 -10.048  21.422  0.00  0.00    -0.074 A 
ATOM     33  H19 FSN d          13.088  -9.012  22.717  0.00  0.00     0.085 H 
ATOM     34  H20 FSN d          15.077  -9.174  21.217  0.00  0.00     0.084 H 
BRANCH  29  35
ATOM     35  C3  FSN d          11.422 -11.041  23.375  0.00  0.00     0.102 C 
ATOM     36  N2  FSN d          10.630 -12.116  23.617  0.00  0.00    -0.385 N 
ATOM     37  H23 FSN d          10.851 -13.025  23.186  0.00  0.00     0.157 HD
ATOM     38  H24 FSN d           9.809 -12.024  24.231  0.00  0.00     0.157 HD
BRANCH  35  39
ATOM     39  N1  FSN d          11.048  -9.889  23.989  0.00  0.00    -0.385 N 
ATOM     40  H21 FSN d          11.711  -9.104  24.059  0.00  0.00     0.157 HD
ATOM     41  H22 FSN d          10.102  -9.799  24.384  0.00  0.00     0.157 HD
ENDBRANCH  35  39
ENDBRANCH  29  35
ENDBRANCH  12  25
BRANCH   3  42
ATOM     42  C23 FSN d          18.977 -14.570  22.155  0.00  0.00     0.029 C 
ATOM     43  H1  FSN d          19.495 -15.302  21.518  0.00  0.00     0.072 H 
ATOM     44  H2  FSN d          18.047 -15.013  22.540  0.00  0.00     0.072 H 
BRANCH  42  45
ATOM     45  C24 FSN d          19.866 -14.195  23.308  0.00  0.00    -0.040 A 
ATOM     46  C32 FSN d          19.301 -14.063  24.592  0.00  0.00    -0.072 A 
ATOM     47  C31 FSN d          20.128 -13.749  25.670  0.00  0.00    -0.045 A 
ATOM     48  H3  FSN d          18.237 -14.204  24.740  0.00  0.00     0.084 H 
ATOM     49  C30 FSN d          21.497 -13.572  25.429  0.00  0.00     0.116 A 
ATOM     50  H4  FSN d          19.721 -13.644  26.669  0.00  0.00     0.088 H 
ATOM     51  F29 FSN d          22.241 -13.291  26.513  0.00  0.00    -0.206 F 
ATOM     52  C26 FSN d          22.106 -13.678  24.170  0.00  0.00    -0.045 A 
ATOM     53  C25 FSN d          21.251 -13.997  23.085  0.00  0.00    -0.072 A 
ATOM     54  H5  FSN d          23.170 -13.524  24.035  0.00  0.00     0.088 H 
ATOM     55  H6  FSN d          21.657 -14.089  22.085  0.00  0.00     0.084 H 
ENDBRANCH  42  45
ENDBRANCH   3  42
TORSDOF 5
ENDMDL
MODEL 2
REMARK VINA RESULT:      -8.6      3.082      7.116
REMARK  5 active torsions:
REMARK  status: ('A' for Active; 'I' for Inactive)
REMARK    1  A    between atoms: N19_3  and  C23_4 
REMARK    2  A    between atoms: C23_4  and  C24_5 
REMARK    3  A    between atoms: C10_20  and  C7_21 
REMARK    4  A    between atoms: C4_24  and  C3_27 
REMARK    5  A    between atoms: C3_27  and  N1_28 
ROOT
ATOM      1  O21 FSN d          16.622 -11.958  21.749  0.00  0.00    -0.272 OA
ATOM      2  C20 FSN d          16.127 -12.002  20.636  0.00  0.00     0.234 C 
ATOM      3  N19 FSN d          15.137 -11.088  20.213  0.00  0.00    -0.283 N 
ATOM      4  C17 FSN d          14.880 -11.239  18.820  0.00  0.00     0.233 C 
ATOM      5  O18 FSN d          14.064 -10.593  18.183  0.00  0.00    -0.272 OA
ATOM      6  C16 FSN d          15.757 -12.280  18.290  0.00  0.00     0.066 C 
ATOM      7  C15 FSN d          17.007 -11.786  17.562  0.00  0.00     0.117 C 
ATOM      8  N11 FSN d          18.277 -11.749  18.426  0.00  0.00    -0.057 N 
ATOM      9  C12 FSN d          19.328 -12.037  17.407  0.00  0.00     0.085 C 
ATOM     10  C13 FSN d          18.712 -11.554  16.055  0.00  0.00    -0.040 C 
ATOM     11  C14 FSN d          17.261 -12.053  16.135  0.00  0.00    -0.036 C 
ATOM     12  C10 FSN d          17.946 -13.016  19.212  0.00  0.00     0.142 C 
ATOM     13  C22 FSN d          16.465 -12.920  19.527  0.00  0.00     0.069 C 
ATOM     14  H7  FSN d          15.183 -12.994  17.683  0.00  0.00     0.059 H 
ATOM     15  H8  FSN d          16.764 -10.715  17.503  0.00  0.00     0.086 H 
ATOM     16  H9  FSN d          18.445 -10.924  18.978  0.00  0.00     0.281 HD
ATOM     17  H10 FSN d          19.547 -13.115  17.370  0.00  0.00     0.076 H 
ATOM     18  H11 FSN d          20.250 -11.482  17.633  0.00  0.00     0.076 H 
ATOM     19  H12 FSN d          19.237 -12.003  15.199  0.00  0.00     0.035 H 
ATOM     20  H13 FSN d          18.748 -10.458  15.974  0.00  0.00     0.035 H 
ATOM     21  H14 FSN d          16.590 -11.476  15.481  0.00  0.00     0.036 H 
ATOM     22  H15 FSN d          17.179 -13.123  15.893  0.00  0.00     0.036 H 
ATOM     23  H16 FSN d          18.037 -13.846  18.496  0.00  0.00     0.093 H 
ATOM     24  H25 FSN d          16.073 -13.926  19.739  0.00  0.00     0.059 H 
ENDROOT
BRANCH  12  25
ATOM     25  C7  FSN d          18.906 -13.395  20.299  0.00  0.00    -0.027 A 
ATOM     26  C8  FSN d          19.982 -12.547  20.541  0.00  0.00    -0.074 A 
ATOM     27  C9  FSN d          20.864 -12.821  21.577  0.00  0.00    -0.069 A 
ATOM     28  H17 FSN d          20.132 -11.671  19.920  0.00  0.00     0.084 H 
ATOM     29  C4  FSN d          20.648 -13.981  22.373  0.00  0.00     0.007 A 
ATOM     30  H18 FSN d          21.703 -12.164  21.776  0.00  0.00     0.085 H 
ATOM     31  C5  FSN d          19.564 -14.834  22.136  0.00  0.00    -0.069 A 
ATOM     32  C6  FSN d          18.678 -14.546  21.093  0.00  0.00    -0.074 A 
ATOM     33  H19 FSN d          19.413 -15.710  22.757  0.00  0.00     0.085 H 
ATOM     34  H20 FSN d          17.831 -15.193  20.895  0.00  0.00     0.084 H 
BRANCH  29  35
ATOM     35  C3  FSN d          21.592 -14.258  23.443  0.00  0.00     0.102 C 
ATOM     36  N2  FSN d          22.833 -13.711  23.487  0.00  0.00    -0.385 N 
ATOM     37  H23 FSN d          23.137 -13.065  22.745  0.00  0.00     0.157 HD
ATOM     38  H24 FSN d          23.470 -13.940  24.262  0.00  0.00     0.157 HD
BRANCH  35  39
ATOM     39  N1  FSN d          21.285 -15.096  24.466  0.00  0.00    -0.385 N 
ATOM     40  H21 FSN d          21.950 -15.831  24.748  0.00  0.00     0.157 HD
ATOM     41  H22 FSN d          20.387 -14.998  24.961  0.00  0.00     0.157 HD
ENDBRANCH  35  39
ENDBRANCH  29  35
ENDBRANCH  12  25
BRANCH   3  42
ATOM     42  C23 FSN d          14.684 -10.005  21.087  0.00  0.00     0.029 C 
ATOM     43  H1  FSN d          14.340  -9.161  20.471  0.00  0.00     0.072 H 
ATOM     44  H2  FSN d          15.519  -9.678  21.724  0.00  0.00     0.072 H 
BRANCH  42  45
ATOM     45  C24 FSN d          13.552 -10.481  21.955  0.00  0.00    -0.040 A 
ATOM     46  C32 FSN d          13.134 -11.823  21.859  0.00  0.00    -0.072 A 
ATOM     47  C31 FSN d          12.108 -12.277  22.686  0.00  0.00    -0.045 A 
ATOM     48  H3  FSN d          13.605 -12.494  21.150  0.00  0.00     0.084 H 
ATOM     49  C30 FSN d          11.527 -11.372  23.583  0.00  0.00     0.116 A 
ATOM     50  H4  FSN d          11.768 -13.305  22.636  0.00  0.00     0.088 H 
ATOM     51  F29 FSN d          10.558 -11.878  24.366  0.00  0.00    -0.206 F 
ATOM     52  C26 FSN d          11.896 -10.024  23.709  0.00  0.00    -0.045 A 
ATOM     53  C25 FSN d          12.940  -9.579  22.859  0.00  0.00    -0.072 A 
ATOM     54  H5  FSN d          11.409  -9.361  24.415  0.00  0.00     0.088 H 
ATOM     55  H6  FSN d          13.270  -8.548  22.903  0.00  0.00     0.084 H 
ENDBRANCH  42  45
ENDBRANCH   3  42
TORSDOF 5
ENDMDL
