MODEL 1
REMARK VINA RESULT:      -9.2      0.000      0.000
REMARK  5 active torsions:
REMARK  status: ('A' for Active; 'I' for Inactive)
REMARK    1  A    between atoms: C_2  and  CA_4 
REMARK    2  A    between atoms: CA_4  and  N_5 
REMARK    3  A    between atoms: CA_4  and  CB_6 
REMARK    4  A    between atoms: CB_6  and  CAS_7 
REMARK    5  A    between atoms: CAS_7  and  CAN_9 
ROOT
ATOM      1  CAS MS8 d           1.291  44.338   2.576  0.00  0.00     0.154 C 
ATOM      2  CAJ MS8 d           2.777  44.706   2.652  0.00  0.00     0.000 C 
ATOM      3  OAL MS8 d           1.189  43.058   3.211  0.00  0.00    -0.361 OA
ATOM      4  CAR MS8 d           2.396  42.404   2.801  0.00  0.00     0.065 C 
ATOM      5  CAQ MS8 d           3.419  43.442   3.228  0.00  0.00     0.066 C 
ATOM      6  CAH MS8 d           2.574  41.089   3.561  0.00  0.00    -0.036 C 
ATOM      7  CAP MS8 d           2.729  41.344   5.060  0.00  0.00    -0.043 C 
ATOM      8  CAG MS8 d           3.857  42.351   5.287  0.00  0.00     0.020 C 
ATOM      9  OAK MS8 d           3.481  43.585   4.657  0.00  0.00    -0.383 OA
ATOM     10  H7  MS8 d           2.937  45.568   3.317  0.00  0.00     0.042 H 
ATOM     11  H8  MS8 d           3.179  44.933   1.654  0.00  0.00     0.042 H 
ATOM     12  H9  MS8 d           2.423  42.219   1.717  0.00  0.00     0.087 H 
ATOM     13  H10 MS8 d           4.418  43.238   2.814  0.00  0.00     0.087 H 
ATOM     14  H11 MS8 d           3.472  40.575   3.188  0.00  0.00     0.036 H 
ATOM     15  H12 MS8 d           1.691  40.453   3.393  0.00  0.00     0.036 H 
ATOM     16  H13 MS8 d           2.972  40.400   5.570  0.00  0.00     0.036 H 
ATOM     17  H14 MS8 d           1.789  41.747   5.464  0.00  0.00     0.036 H 
ATOM     18  H15 MS8 d           4.789  41.973   4.843  0.00  0.00     0.074 H 
ATOM     19  H16 MS8 d           4.002  42.512   6.366  0.00  0.00     0.074 H 
ENDROOT
BRANCH   1  20
ATOM     20  CB  MS8 d           0.892  44.231   1.103  0.00  0.00     0.010 C 
ATOM     21  H5  MS8 d           0.912  45.234   0.652  0.00  0.00     0.042 H 
ATOM     22  H6  MS8 d           1.611  43.581   0.583  0.00  0.00     0.042 H 
BRANCH  20  23
ATOM     23  CA  MS8 d          -0.514  43.643   0.951  0.00  0.00     0.185 C 
ATOM     24  H1  MS8 d          -1.174  44.085   1.713  0.00  0.00     0.101 H 
BRANCH  23  25
ATOM     25  C   MS8 d          -1.036  44.004  -0.440  0.00  0.00     0.204 C 
ATOM     26  O   MS8 d          -0.992  45.212  -0.754  0.00  0.00    -0.646 OA
ATOM     27  OXT MS8 d          -1.456  43.067  -1.155  0.00  0.00    -0.646 OA
ENDBRANCH  23  25
BRANCH  23  28
ATOM     28  N   MS8 d          -0.499  42.184   1.129  0.00  0.00    -0.065 N 
ATOM     29  H2  MS8 d          -0.153  41.961   2.049  0.00  0.00     0.275 HD
ATOM     30  H3  MS8 d           0.101  41.767   0.435  0.00  0.00     0.275 HD
ATOM     31  H4  MS8 d          -1.434  41.823   1.025  0.00  0.00     0.275 HD
ENDBRANCH  23  28
ENDBRANCH  20  23
ENDBRANCH   1  20
BRANCH   1  32
ATOM     32  CAN MS8 d           0.428  45.380   3.290  0.00  0.00     0.209 C 
ATOM     33  OAC MS8 d           0.213  45.206   4.509  0.00  0.00    -0.646 OA
ATOM     34  OAE MS8 d          -0.014  46.321   2.597  0.00  0.00    -0.646 OA
ENDBRANCH   1  32
TORSDOF 5
ENDMDL
