MODEL 1
REMARK VINA RESULT:      -9.4      0.000      0.000
REMARK  5 active torsions:
REMARK  status: ('A' for Active; 'I' for Inactive)
REMARK    1  A    between atoms: C_2  and  CA_4 
REMARK    2  A    between atoms: CA_4  and  N_5 
REMARK    3  A    between atoms: CA_4  and  CB_6 
REMARK    4  A    between atoms: CB_6  and  CAS_7 
REMARK    5  A    between atoms: CAS_7  and  CAN_9 
ROOT
ATOM      1  CAS MS8 d           1.199  44.314   2.606  0.00  0.00     0.154 C 
ATOM      2  CAJ MS8 d           2.661  44.761   2.720  0.00  0.00     0.000 C 
ATOM      3  OAL MS8 d           1.158  43.011   3.200  0.00  0.00    -0.361 OA
ATOM      4  CAR MS8 d           2.407  42.438   2.790  0.00  0.00     0.065 C 
ATOM      5  CAQ MS8 d           3.363  43.518   3.268  0.00  0.00     0.066 C 
ATOM      6  CAH MS8 d           2.646  41.111   3.513  0.00  0.00    -0.036 C 
ATOM      7  CAP MS8 d           2.764  41.327   5.022  0.00  0.00    -0.043 C 
ATOM      8  CAG MS8 d           3.829  42.387   5.300  0.00  0.00     0.020 C 
ATOM      9  OAK MS8 d           3.394  43.618   4.701  0.00  0.00    -0.383 OA
ATOM     10  H7  MS8 d           2.761  45.609   3.413  0.00  0.00     0.042 H 
ATOM     11  H8  MS8 d           3.066  45.042   1.736  0.00  0.00     0.042 H 
ATOM     12  H9  MS8 d           2.462  42.289   1.702  0.00  0.00     0.087 H 
ATOM     13  H10 MS8 d           4.378  43.382   2.866  0.00  0.00     0.087 H 
ATOM     14  H11 MS8 d           3.578  40.661   3.140  0.00  0.00     0.036 H 
ATOM     15  H12 MS8 d           1.804  40.433   3.310  0.00  0.00     0.036 H 
ATOM     16  H13 MS8 d           3.051  40.382   5.507  0.00  0.00     0.036 H 
ATOM     17  H14 MS8 d           1.796  41.664   5.421  0.00  0.00     0.036 H 
ATOM     18  H15 MS8 d           4.788  42.076   4.860  0.00  0.00     0.074 H 
ATOM     19  H16 MS8 d           3.948  42.522   6.385  0.00  0.00     0.074 H 
ENDROOT
BRANCH   1  20
ATOM     20  CB  MS8 d           0.830  44.231   1.123  0.00  0.00     0.010 C 
ATOM     21  H5  MS8 d           0.851  45.243   0.692  0.00  0.00     0.042 H 
ATOM     22  H6  MS8 d           1.565  43.597   0.606  0.00  0.00     0.042 H 
BRANCH  20  23
ATOM     23  CA  MS8 d          -0.567  43.635   0.933  0.00  0.00     0.185 C 
ATOM     24  H1  MS8 d          -1.249  44.068   1.680  0.00  0.00     0.101 H 
BRANCH  23  25
ATOM     25  C   MS8 d          -1.057  44.000  -0.469  0.00  0.00     0.204 C 
ATOM     26  O   MS8 d          -1.015  45.211  -0.774  0.00  0.00    -0.646 OA
ATOM     27  OXT MS8 d          -1.450  43.065  -1.201  0.00  0.00    -0.646 OA
ENDBRANCH  23  25
BRANCH  23  28
ATOM     28  N   MS8 d          -0.546  42.175   1.102  0.00  0.00    -0.065 N 
ATOM     29  H2  MS8 d           0.197  41.783   0.546  0.00  0.00     0.275 HD
ATOM     30  H3  MS8 d          -1.428  41.789   0.803  0.00  0.00     0.275 HD
ATOM     31  H4  MS8 d          -0.394  41.951   2.073  0.00  0.00     0.275 HD
ENDBRANCH  23  28
ENDBRANCH  20  23
ENDBRANCH   1  20
BRANCH   1  32
ATOM     32  CAN MS8 d           0.268  45.282   3.336  0.00  0.00     0.209 C 
ATOM     33  OAC MS8 d          -0.432  46.043   2.633  0.00  0.00    -0.646 OA
ATOM     34  OAE MS8 d           0.288  45.254   4.586  0.00  0.00    -0.646 OA
ENDBRANCH   1  32
TORSDOF 5
ENDMDL
MODEL 2
REMARK VINA RESULT:      -7.0      1.726      2.093
REMARK  5 active torsions:
REMARK  status: ('A' for Active; 'I' for Inactive)
REMARK    1  A    between atoms: C_2  and  CA_4 
REMARK    2  A    between atoms: CA_4  and  N_5 
REMARK    3  A    between atoms: CA_4  and  CB_6 
REMARK    4  A    between atoms: CB_6  and  CAS_7 
REMARK    5  A    between atoms: CAS_7  and  CAN_9 
ROOT
ATOM      1  CAS MS8 d           1.919  44.325   3.637  0.00  0.00     0.154 C 
ATOM      2  CAJ MS8 d           3.404  43.945   3.643  0.00  0.00     0.000 C 
ATOM      3  OAL MS8 d           1.216  43.088   3.475  0.00  0.00    -0.361 OA
ATOM      4  CAR MS8 d           2.058  42.362   2.572  0.00  0.00     0.065 C 
ATOM      5  CAQ MS8 d           3.382  42.452   3.312  0.00  0.00     0.066 C 
ATOM      6  CAH MS8 d           1.579  40.915   2.443  0.00  0.00    -0.036 C 
ATOM      7  CAP MS8 d           1.683  40.187   3.784  0.00  0.00    -0.043 C 
ATOM      8  CAG MS8 d           3.106  40.325   4.325  0.00  0.00     0.020 C 
ATOM      9  OAK MS8 d           3.360  41.720   4.550  0.00  0.00    -0.383 OA
ATOM     10  H7  MS8 d           3.853  44.124   4.632  0.00  0.00     0.042 H 
ATOM     11  H8  MS8 d           3.960  44.510   2.881  0.00  0.00     0.042 H 
ATOM     12  H9  MS8 d           2.108  42.831   1.578  0.00  0.00     0.087 H 
ATOM     13  H10 MS8 d           4.231  42.135   2.689  0.00  0.00     0.087 H 
ATOM     14  H11 MS8 d           2.202  40.394   1.701  0.00  0.00     0.036 H 
ATOM     15  H12 MS8 d           0.530  40.910   2.111  0.00  0.00     0.036 H 
ATOM     16  H13 MS8 d           1.446  39.122   3.643  0.00  0.00     0.036 H 
ATOM     17  H14 MS8 d           0.973  40.629   4.498  0.00  0.00     0.036 H 
ATOM     18  H15 MS8 d           3.824  39.928   3.593  0.00  0.00     0.074 H 
ATOM     19  H16 MS8 d           3.201  39.772   5.271  0.00  0.00     0.074 H 
ENDROOT
BRANCH   1  20
ATOM     20  CB  MS8 d           1.658  45.244   2.442  0.00  0.00     0.010 C 
ATOM     21  H5  MS8 d           2.150  46.211   2.618  0.00  0.00     0.042 H 
ATOM     22  H6  MS8 d           2.075  44.780   1.536  0.00  0.00     0.042 H 
BRANCH  20  23
ATOM     23  CA  MS8 d           0.158  45.476   2.239  0.00  0.00     0.185 C 
ATOM     24  H1  MS8 d          -0.021  46.547   2.061  0.00  0.00     0.101 H 
BRANCH  23  25
ATOM     25  C   MS8 d          -0.289  44.679   1.014  0.00  0.00     0.204 C 
ATOM     26  O   MS8 d          -0.926  43.627   1.237  0.00  0.00    -0.646 OA
ATOM     27  OXT MS8 d           0.006  45.142  -0.111  0.00  0.00    -0.646 OA
ENDBRANCH  23  25
BRANCH  23  28
ATOM     28  N   MS8 d          -0.606  45.061   3.425  0.00  0.00    -0.065 N 
ATOM     29  H2  MS8 d          -1.585  45.252   3.278  0.00  0.00     0.275 HD
ATOM     30  H3  MS8 d          -0.281  45.572   4.230  0.00  0.00     0.275 HD
ATOM     31  H4  MS8 d          -0.476  44.073   3.579  0.00  0.00     0.275 HD
ENDBRANCH  23  28
ENDBRANCH  20  23
ENDBRANCH   1  20
BRANCH   1  32
ATOM     32  CAN MS8 d           1.523  45.019   4.941  0.00  0.00     0.209 C 
ATOM     33  OAC MS8 d           1.800  46.233   5.052  0.00  0.00    -0.646 OA
ATOM     34  OAE MS8 d           0.964  44.315   5.811  0.00  0.00    -0.646 OA
ENDBRANCH   1  32
TORSDOF 5
ENDMDL
