MODEL 1
REMARK VINA RESULT:      -6.3      0.000      0.000
REMARK  6 active torsions:
REMARK  status: ('A' for Active; 'I' for Inactive)
REMARK    1  A    between atoms: N_1  and  CA_2 
REMARK    2  A    between atoms: CA_2  and  C_3 
REMARK    3  A    between atoms: CA_2  and  CB_5 
REMARK    4  A    between atoms: CB_5  and  CG_6 
REMARK    5  A    between atoms: CG_6  and  ND_7 
REMARK       I    between atoms: ND_7  and  CE_8 
REMARK       I    between atoms: CE_8  and  NH1_9 
REMARK    6  A    between atoms: NH1_9  and  OH1_11 
ROOT
ATOM      1  CB  NNH d          25.840 -11.731  -4.167  0.00  0.00    -0.014 C 
ATOM      2  H5  NNH d          26.131 -12.543  -3.484  0.00  0.00     0.039 H 
ATOM      3  H6  NNH d          26.715 -11.409  -4.750  0.00  0.00     0.039 H 
ENDROOT
BRANCH   1   4
ATOM      4  CA  NNH d          25.519 -10.558  -3.264  0.00  0.00     0.184 C 
ATOM      5  H4  NNH d          26.452 -10.052  -2.974  0.00  0.00     0.101 H 
BRANCH   4   6
ATOM      6  N   NNH d          24.884 -11.109  -2.079  0.00  0.00    -0.065 N 
ATOM      7  H1  NNH d          25.351 -11.961  -1.812  0.00  0.00     0.275 HD
ATOM      8  H2  NNH d          23.915 -11.304  -2.277  0.00  0.00     0.275 HD
ATOM      9  H3  NNH d          24.946 -10.442  -1.324  0.00  0.00     0.275 HD
ENDBRANCH   4   6
BRANCH   4  10
ATOM     10  C   NNH d          24.620  -9.543  -3.989  0.00  0.00     0.204 C 
ATOM     11  O   NNH d          23.502  -9.215  -3.650  0.00  0.00    -0.646 OA
ATOM     12  OXT NNH d          25.224  -9.031  -5.085  0.00  0.00    -0.646 OA
ENDBRANCH   4  10
ENDBRANCH   1   4
BRANCH   1  13
ATOM     13  CG  NNH d          24.930 -12.371  -5.161  0.00  0.00     0.012 C 
ATOM     14  H7  NNH d          25.537 -12.682  -6.025  0.00  0.00     0.065 H 
ATOM     15  H8  NNH d          24.194 -11.618  -5.481  0.00  0.00     0.065 H 
BRANCH  13  16
ATOM     16  ND  NNH d          24.187 -13.557  -4.675  0.00  0.00    -0.223 N 
ATOM     17  CE  NNH d          24.501 -14.874  -4.805  0.00  0.00     0.716 C 
ATOM     18  NH1 NNH d          25.695 -15.239  -5.488  0.00  0.00     0.058 NA
ATOM     19  NH2 NNH d          23.748 -15.886  -4.323  0.00  0.00    -0.231 N 
ATOM     20  H10 NNH d          24.049 -16.862  -4.459  0.00  0.00     0.174 HD
ATOM     21  H11 NNH d          22.873 -15.682  -3.818  0.00  0.00     0.174 HD
ATOM     22  H9  NNH d          23.313 -13.356  -4.169  0.00  0.00     0.177 HD
BRANCH  18  23
ATOM     23  OH1 NNH d          26.003 -16.477  -5.619  0.00  0.00    -0.252 OA
ATOM     24  H12 NNH d          25.996 -16.895  -4.767  0.00  0.00     0.247 HD
ENDBRANCH  18  23
ENDBRANCH  13  16
ENDBRANCH   1  13
TORSDOF 6
ENDMDL
MODEL 2
REMARK VINA RESULT:      -6.0      1.537      1.809
REMARK  6 active torsions:
REMARK  status: ('A' for Active; 'I' for Inactive)
REMARK    1  A    between atoms: N_1  and  CA_2 
REMARK    2  A    between atoms: CA_2  and  C_3 
REMARK    3  A    between atoms: CA_2  and  CB_5 
REMARK    4  A    between atoms: CB_5  and  CG_6 
REMARK    5  A    between atoms: CG_6  and  ND_7 
REMARK       I    between atoms: ND_7  and  CE_8 
REMARK       I    between atoms: CE_8  and  NH1_9 
REMARK    6  A    between atoms: NH1_9  and  OH1_11 
ROOT
ATOM      1  CB  NNH d          25.061 -11.735  -5.779  0.00  0.00    -0.014 C 
ATOM      2  H5  NNH d          26.007 -11.625  -6.330  0.00  0.00     0.039 H 
ATOM      3  H6  NNH d          24.371 -12.368  -6.357  0.00  0.00     0.039 H 
ENDROOT
BRANCH   1   4
ATOM      4  CA  NNH d          24.435 -10.357  -5.797  0.00  0.00     0.184 C 
ATOM      5  H4  NNH d          23.346 -10.449  -5.918  0.00  0.00     0.101 H 
BRANCH   4   6
ATOM      6  N   NNH d          24.988  -9.665  -6.948  0.00  0.00    -0.065 N 
ATOM      7  H1  NNH d          25.983  -9.820  -6.988  0.00  0.00     0.275 HD
ATOM      8  H2  NNH d          24.805  -8.677  -6.866  0.00  0.00     0.275 HD
ATOM      9  H3  NNH d          24.560 -10.017  -7.790  0.00  0.00     0.275 HD
ENDBRANCH   4   6
BRANCH   4  10
ATOM     10  C   NNH d          24.717  -9.615  -4.480  0.00  0.00     0.204 C 
ATOM     11  O   NNH d          23.999  -9.607  -3.501  0.00  0.00    -0.646 OA
ATOM     12  OXT NNH d          25.889  -8.944  -4.523  0.00  0.00    -0.646 OA
ENDBRANCH   4  10
ENDBRANCH   1   4
BRANCH   1  13
ATOM     13  CG  NNH d          25.410 -12.546  -4.576  0.00  0.00     0.012 C 
ATOM     14  H7  NNH d          25.384 -11.881  -3.700  0.00  0.00     0.065 H 
ATOM     15  H8  NNH d          26.431 -12.934  -4.713  0.00  0.00     0.065 H 
BRANCH  13  16
ATOM     16  ND  NNH d          24.518 -13.697  -4.301  0.00  0.00    -0.223 N 
ATOM     17  CE  NNH d          24.613 -14.977  -4.750  0.00  0.00     0.716 C 
ATOM     18  NH1 NNH d          25.694 -15.336  -5.604  0.00  0.00     0.058 NA
ATOM     19  NH2 NNH d          23.739 -15.958  -4.439  0.00  0.00    -0.231 N 
ATOM     20  H10 NNH d          23.875 -16.907  -4.817  0.00  0.00     0.174 HD
ATOM     21  H11 NNH d          22.937 -15.758  -3.824  0.00  0.00     0.174 HD
ATOM     22  H9  NNH d          23.717 -13.500  -3.686  0.00  0.00     0.177 HD
BRANCH  18  23
ATOM     23  OH1 NNH d          25.796 -16.539  -6.036  0.00  0.00    -0.252 OA
ATOM     24  H12 NNH d          26.639 -16.652  -6.457  0.00  0.00     0.247 HD
ENDBRANCH  18  23
ENDBRANCH  13  16
ENDBRANCH   1  13
TORSDOF 6
ENDMDL
MODEL 3
REMARK VINA RESULT:      -5.5      1.872      5.317
REMARK  6 active torsions:
REMARK  status: ('A' for Active; 'I' for Inactive)
REMARK    1  A    between atoms: N_1  and  CA_2 
REMARK    2  A    between atoms: CA_2  and  C_3 
REMARK    3  A    between atoms: CA_2  and  CB_5 
REMARK    4  A    between atoms: CB_5  and  CG_6 
REMARK    5  A    between atoms: CG_6  and  ND_7 
REMARK       I    between atoms: ND_7  and  CE_8 
REMARK       I    between atoms: CE_8  and  NH1_9 
REMARK    6  A    between atoms: NH1_9  and  OH1_11 
ROOT
ATOM      1  CB  NNH d          26.074 -13.252  -5.855  0.00  0.00    -0.014 C 
ATOM      2  H5  NNH d          25.738 -13.308  -6.901  0.00  0.00     0.039 H 
ATOM      3  H6  NNH d          26.991 -13.847  -5.732  0.00  0.00     0.039 H 
ENDROOT
BRANCH   1   4
ATOM      4  CA  NNH d          25.018 -13.995  -5.065  0.00  0.00     0.184 C 
ATOM      5  H4  NNH d          24.028 -13.808  -5.506  0.00  0.00     0.101 H 
BRANCH   4   6
ATOM      6  N   NNH d          25.051 -13.455  -3.716  0.00  0.00    -0.065 N 
ATOM      7  H1  NNH d          24.977 -14.208  -3.051  0.00  0.00     0.275 HD
ATOM      8  H2  NNH d          24.279 -12.819  -3.591  0.00  0.00     0.275 HD
ATOM      9  H3  NNH d          25.919 -12.963  -3.572  0.00  0.00     0.275 HD
ENDBRANCH   4   6
BRANCH   4  10
ATOM     10  C   NNH d          25.283 -15.510  -5.092  0.00  0.00     0.204 C 
ATOM     11  O   NNH d          25.612 -16.156  -6.066  0.00  0.00    -0.646 OA
ATOM     12  OXT NNH d          25.105 -16.073  -3.876  0.00  0.00    -0.646 OA
ENDBRANCH   4  10
ENDBRANCH   1   4
BRANCH   1  13
ATOM     13  CG  NNH d          26.505 -11.837  -5.664  0.00  0.00     0.012 C 
ATOM     14  H7  NNH d          27.217 -11.588  -6.466  0.00  0.00     0.065 H 
ATOM     15  H8  NNH d          27.011 -11.765  -4.689  0.00  0.00     0.065 H 
BRANCH  13  16
ATOM     16  ND  NNH d          25.419 -10.830  -5.689  0.00  0.00    -0.223 N 
ATOM     17  CE  NNH d          24.838 -10.173  -4.649  0.00  0.00     0.716 C 
ATOM     18  NH1 NNH d          25.286 -10.438  -3.324  0.00  0.00     0.058 NA
ATOM     19  NH2 NNH d          23.846  -9.268  -4.781  0.00  0.00    -0.231 N 
ATOM     20  H10 NNH d          23.453  -8.809  -3.946  0.00  0.00     0.174 HD
ATOM     21  H11 NNH d          23.482  -9.035  -5.716  0.00  0.00     0.174 HD
ATOM     22  H9  NNH d          25.054 -10.594  -6.623  0.00  0.00     0.177 HD
BRANCH  18  23
ATOM     23  OH1 NNH d          24.747  -9.827  -2.333  0.00  0.00    -0.252 OA
ATOM     24  H12 NNH d          25.020  -8.918  -2.337  0.00  0.00     0.247 HD
ENDBRANCH  18  23
ENDBRANCH  13  16
ENDBRANCH   1  13
TORSDOF 6
ENDMDL
MODEL 4
REMARK VINA RESULT:      -5.4      2.130      5.660
REMARK  6 active torsions:
REMARK  status: ('A' for Active; 'I' for Inactive)
REMARK    1  A    between atoms: N_1  and  CA_2 
REMARK    2  A    between atoms: CA_2  and  C_3 
REMARK    3  A    between atoms: CA_2  and  CB_5 
REMARK    4  A    between atoms: CB_5  and  CG_6 
REMARK    5  A    between atoms: CG_6  and  ND_7 
REMARK       I    between atoms: ND_7  and  CE_8 
REMARK       I    between atoms: CE_8  and  NH1_9 
REMARK    6  A    between atoms: NH1_9  and  OH1_11 
ROOT
ATOM      1  CB  NNH d          24.584 -13.474  -4.387  0.00  0.00    -0.014 C 
ATOM      2  H5  NNH d          24.491 -13.942  -3.395  0.00  0.00     0.039 H 
ATOM      3  H6  NNH d          23.675 -13.675  -4.974  0.00  0.00     0.039 H 
ENDROOT
BRANCH   1   4
ATOM      4  CA  NNH d          25.679 -14.253  -5.085  0.00  0.00     0.184 C 
ATOM      5  H4  NNH d          26.622 -14.140  -4.529  0.00  0.00     0.101 H 
BRANCH   4   6
ATOM      6  N   NNH d          25.828 -13.666  -6.406  0.00  0.00    -0.065 N 
ATOM      7  H1  NNH d          25.241 -12.850  -6.479  0.00  0.00     0.275 HD
ATOM      8  H2  NNH d          25.557 -14.340  -7.105  0.00  0.00     0.275 HD
ATOM      9  H3  NNH d          26.790 -13.401  -6.549  0.00  0.00     0.275 HD
ENDBRANCH   4   6
BRANCH   4  10
ATOM     10  C   NNH d          25.329 -15.749  -5.147  0.00  0.00     0.204 C 
ATOM     11  O   NNH d          25.339 -16.440  -6.145  0.00  0.00    -0.646 OA
ATOM     12  OXT NNH d          24.994 -16.237  -3.932  0.00  0.00    -0.646 OA
ENDBRANCH   4  10
ENDBRANCH   1   4
BRANCH   1  13
ATOM     13  CG  NNH d          24.556 -12.006  -4.124  0.00  0.00     0.012 C 
ATOM     14  H7  NNH d          23.543 -11.742  -3.784  0.00  0.00     0.065 H 
ATOM     15  H8  NNH d          24.773 -11.488  -5.071  0.00  0.00     0.065 H 
BRANCH  13  16
ATOM     16  ND  NNH d          25.519 -11.521  -3.109  0.00  0.00    -0.223 N 
ATOM     17  CE  NNH d          26.385 -10.474  -3.184  0.00  0.00     0.716 C 
ATOM     18  NH1 NNH d          26.425  -9.689  -4.371  0.00  0.00     0.058 NA
ATOM     19  NH2 NNH d          27.229 -10.114  -2.193  0.00  0.00    -0.231 N 
ATOM     20  H10 NNH d          27.857  -9.308  -2.321  0.00  0.00     0.174 HD
ATOM     21  H11 NNH d          27.243 -10.644  -1.310  0.00  0.00     0.174 HD
ATOM     22  H9  NNH d          25.535 -12.048  -2.225  0.00  0.00     0.177 HD
BRANCH  18  23
ATOM     23  OH1 NNH d          27.236  -8.700  -4.456  0.00  0.00    -0.252 OA
ATOM     24  H12 NNH d          28.127  -9.027  -4.492  0.00  0.00     0.247 HD
ENDBRANCH  18  23
ENDBRANCH  13  16
ENDBRANCH   1  13
TORSDOF 6
ENDMDL
MODEL 5
REMARK VINA RESULT:      -5.3      2.100      5.392
REMARK  6 active torsions:
REMARK  status: ('A' for Active; 'I' for Inactive)
REMARK    1  A    between atoms: N_1  and  CA_2 
REMARK    2  A    between atoms: CA_2  and  C_3 
REMARK    3  A    between atoms: CA_2  and  CB_5 
REMARK    4  A    between atoms: CB_5  and  CG_6 
REMARK    5  A    between atoms: CG_6  and  ND_7 
REMARK       I    between atoms: ND_7  and  CE_8 
REMARK       I    between atoms: CE_8  and  NH1_9 
REMARK    6  A    between atoms: NH1_9  and  OH1_11 
ROOT
ATOM      1  CB  NNH d          24.852 -12.745  -4.246  0.00  0.00    -0.014 C 
ATOM      2  H5  NNH d          24.248 -13.389  -3.591  0.00  0.00     0.039 H 
ATOM      3  H6  NNH d          24.196 -12.238  -4.969  0.00  0.00     0.039 H 
ENDROOT
BRANCH   1   4
ATOM      4  CA  NNH d          25.683 -13.700  -5.075  0.00  0.00     0.184 C 
ATOM      5  H4  NNH d          26.692 -13.780  -4.645  0.00  0.00     0.101 H 
BRANCH   4   6
ATOM      6  N   NNH d          25.774 -13.124  -6.406  0.00  0.00    -0.065 N 
ATOM      7  H1  NNH d          26.025 -12.150  -6.334  0.00  0.00     0.275 HD
ATOM      8  H2  NNH d          24.883 -13.209  -6.870  0.00  0.00     0.275 HD
ATOM      9  H3  NNH d          26.478 -13.613  -6.937  0.00  0.00     0.275 HD
ENDBRANCH   4   6
BRANCH   4  10
ATOM     10  C   NNH d          25.050 -15.102  -5.089  0.00  0.00     0.204 C 
ATOM     11  O   NNH d          24.004 -15.415  -4.558  0.00  0.00    -0.646 OA
ATOM     12  OXT NNH d          25.804 -15.986  -5.780  0.00  0.00    -0.646 OA
ENDBRANCH   4  10
ENDBRANCH   1   4
BRANCH   1  13
ATOM     13  CG  NNH d          25.356 -11.657  -3.358  0.00  0.00     0.012 C 
ATOM     14  H7  NNH d          26.433 -11.535  -3.549  0.00  0.00     0.065 H 
ATOM     15  H8  NNH d          25.202 -11.973  -2.315  0.00  0.00     0.065 H 
BRANCH  13  16
ATOM     16  ND  NNH d          24.709 -10.337  -3.534  0.00  0.00    -0.223 N 
ATOM     17  CE  NNH d          24.791  -9.479  -4.587  0.00  0.00     0.716 C 
ATOM     18  NH1 NNH d          25.589  -9.834  -5.712  0.00  0.00     0.058 NA
ATOM     19  NH2 NNH d          24.157  -8.289  -4.649  0.00  0.00    -0.231 N 
ATOM     20  H10 NNH d          24.266  -7.690  -5.480  0.00  0.00     0.174 HD
ATOM     21  H11 NNH d          23.564  -7.980  -3.865  0.00  0.00     0.174 HD
ATOM     22  H9  NNH d          24.115 -10.026  -2.753  0.00  0.00     0.177 HD
BRANCH  18  23
ATOM     23  OH1 NNH d          25.677  -9.035  -6.710  0.00  0.00    -0.252 OA
ATOM     24  H12 NNH d          26.033  -9.502  -7.457  0.00  0.00     0.247 HD
ENDBRANCH  18  23
ENDBRANCH  13  16
ENDBRANCH   1  13
TORSDOF 6
ENDMDL
MODEL 6
REMARK VINA RESULT:      -5.1      2.380      5.407
REMARK  6 active torsions:
REMARK  status: ('A' for Active; 'I' for Inactive)
REMARK    1  A    between atoms: N_1  and  CA_2 
REMARK    2  A    between atoms: CA_2  and  C_3 
REMARK    3  A    between atoms: CA_2  and  CB_5 
REMARK    4  A    between atoms: CB_5  and  CG_6 
REMARK    5  A    between atoms: CG_6  and  ND_7 
REMARK       I    between atoms: ND_7  and  CE_8 
REMARK       I    between atoms: CE_8  and  NH1_9 
REMARK    6  A    between atoms: NH1_9  and  OH1_11 
ROOT
ATOM      1  CB  NNH d          24.933 -12.747  -4.382  0.00  0.00    -0.014 C 
ATOM      2  H5  NNH d          25.622 -12.420  -3.589  0.00  0.00     0.039 H 
ATOM      3  H6  NNH d          24.091 -13.295  -3.933  0.00  0.00     0.039 H 
ENDROOT
BRANCH   1   4
ATOM      4  CA  NNH d          25.704 -13.789  -5.163  0.00  0.00     0.184 C 
ATOM      5  H4  NNH d          26.734 -13.849  -4.781  0.00  0.00     0.101 H 
BRANCH   4   6
ATOM      6  N   NNH d          25.732 -13.336  -6.544  0.00  0.00    -0.065 N 
ATOM      7  H1  NNH d          26.393 -12.581  -6.636  0.00  0.00     0.275 HD
ATOM      8  H2  NNH d          24.814 -13.014  -6.810  0.00  0.00     0.275 HD
ATOM      9  H3  NNH d          26.007 -14.099  -7.143  0.00  0.00     0.275 HD
ENDBRANCH   4   6
BRANCH   4  10
ATOM     10  C   NNH d          25.051 -15.174  -5.017  0.00  0.00     0.204 C 
ATOM     11  O   NNH d          23.924 -15.390  -4.619  0.00  0.00    -0.646 OA
ATOM     12  OXT NNH d          25.889 -16.166  -5.390  0.00  0.00    -0.646 OA
ENDBRANCH   4  10
ENDBRANCH   1   4
BRANCH   1  13
ATOM     13  CG  NNH d          24.334 -11.489  -4.914  0.00  0.00     0.012 C 
ATOM     14  H7  NNH d          23.547 -11.166  -4.216  0.00  0.00     0.065 H 
ATOM     15  H8  NNH d          23.885 -11.715  -5.894  0.00  0.00     0.065 H 
BRANCH  13  16
ATOM     16  ND  NNH d          25.276 -10.360  -5.095  0.00  0.00    -0.223 N 
ATOM     17  CE  NNH d          26.210  -9.880  -4.230  0.00  0.00     0.716 C 
ATOM     18  NH1 NNH d          26.362 -10.500  -2.957  0.00  0.00     0.058 NA
ATOM     19  NH2 NNH d          27.024  -8.836  -4.493  0.00  0.00    -0.231 N 
ATOM     20  H10 NNH d          27.709  -8.527  -3.788  0.00  0.00     0.174 HD
ATOM     21  H11 NNH d          26.960  -8.348  -5.398  0.00  0.00     0.174 HD
ATOM     22  H9  NNH d          25.215  -9.872  -5.999  0.00  0.00     0.177 HD
BRANCH  18  23
ATOM     23  OH1 NNH d          27.237 -10.058  -2.132  0.00  0.00    -0.252 OA
ATOM     24  H12 NNH d          26.815  -9.487  -1.501  0.00  0.00     0.247 HD
ENDBRANCH  18  23
ENDBRANCH  13  16
ENDBRANCH   1  13
TORSDOF 6
ENDMDL
MODEL 7
REMARK VINA RESULT:      -5.1      2.417      5.195
REMARK  6 active torsions:
REMARK  status: ('A' for Active; 'I' for Inactive)
REMARK    1  A    between atoms: N_1  and  CA_2 
REMARK    2  A    between atoms: CA_2  and  C_3 
REMARK    3  A    between atoms: CA_2  and  CB_5 
REMARK    4  A    between atoms: CB_5  and  CG_6 
REMARK    5  A    between atoms: CG_6  and  ND_7 
REMARK       I    between atoms: ND_7  and  CE_8 
REMARK       I    between atoms: CE_8  and  NH1_9 
REMARK    6  A    between atoms: NH1_9  and  OH1_11 
ROOT
ATOM      1  CB  NNH d          25.039 -12.121  -3.393  0.00  0.00    -0.014 C 
ATOM      2  H5  NNH d          26.097 -12.361  -3.210  0.00  0.00     0.039 H 
ATOM      3  H6  NNH d          24.410 -12.665  -2.673  0.00  0.00     0.039 H 
ENDROOT
BRANCH   1   4
ATOM      4  CA  NNH d          24.723 -12.744  -4.736  0.00  0.00     0.184 C 
ATOM      5  H4  NNH d          24.083 -12.064  -5.316  0.00  0.00     0.101 H 
BRANCH   4   6
ATOM      6  N   NNH d          23.995 -13.972  -4.463  0.00  0.00    -0.065 N 
ATOM      7  H1  NNH d          24.140 -14.624  -5.218  0.00  0.00     0.275 HD
ATOM      8  H2  NNH d          23.011 -13.767  -4.380  0.00  0.00     0.275 HD
ATOM      9  H3  NNH d          24.328 -14.376  -3.601  0.00  0.00     0.275 HD
ENDBRANCH   4   6
BRANCH   4  10
ATOM     10  C   NNH d          26.013 -12.997  -5.535  0.00  0.00     0.204 C 
ATOM     11  O   NNH d          26.871 -12.174  -5.778  0.00  0.00    -0.646 OA
ATOM     12  OXT NNH d          26.098 -14.278  -5.957  0.00  0.00    -0.646 OA
ENDBRANCH   4  10
ENDBRANCH   1   4
BRANCH   1  13
ATOM     13  CG  NNH d          24.899 -10.684  -3.017  0.00  0.00     0.012 C 
ATOM     14  H7  NNH d          24.821 -10.626  -1.921  0.00  0.00     0.065 H 
ATOM     15  H8  NNH d          23.973 -10.303  -3.472  0.00  0.00     0.065 H 
BRANCH  13  16
ATOM     16  ND  NNH d          26.011  -9.802  -3.441  0.00  0.00    -0.223 N 
ATOM     17  CE  NNH d          26.176  -9.141  -4.619  0.00  0.00     0.716 C 
ATOM     18  NH1 NNH d          25.181  -9.264  -5.629  0.00  0.00     0.058 NA
ATOM     19  NH2 NNH d          27.236  -8.358  -4.909  0.00  0.00    -0.231 N 
ATOM     20  H10 NNH d          27.294  -7.887  -5.823  0.00  0.00     0.174 HD
ATOM     21  H11 NNH d          27.988  -8.230  -4.215  0.00  0.00     0.174 HD
ATOM     22  H9  NNH d          26.763  -9.672  -2.750  0.00  0.00     0.177 HD
BRANCH  18  23
ATOM     23  OH1 NNH d          25.323  -8.648  -6.744  0.00  0.00    -0.252 OA
ATOM     24  H12 NNH d          24.473  -8.530  -7.149  0.00  0.00     0.247 HD
ENDBRANCH  18  23
ENDBRANCH  13  16
ENDBRANCH   1  13
TORSDOF 6
ENDMDL
MODEL 8
REMARK VINA RESULT:      -5.0      1.973      2.250
REMARK  6 active torsions:
REMARK  status: ('A' for Active; 'I' for Inactive)
REMARK    1  A    between atoms: N_1  and  CA_2 
REMARK    2  A    between atoms: CA_2  and  C_3 
REMARK    3  A    between atoms: CA_2  and  CB_5 
REMARK    4  A    between atoms: CB_5  and  CG_6 
REMARK    5  A    between atoms: CG_6  and  ND_7 
REMARK       I    between atoms: ND_7  and  CE_8 
REMARK       I    between atoms: CE_8  and  NH1_9 
REMARK    6  A    between atoms: NH1_9  and  OH1_11 
ROOT
ATOM      1  CB  NNH d          26.597 -10.668  -4.653  0.00  0.00    -0.014 C 
ATOM      2  H5  NNH d          27.665 -10.483  -4.465  0.00  0.00     0.039 H 
ATOM      3  H6  NNH d          26.488 -11.485  -5.381  0.00  0.00     0.039 H 
ENDROOT
BRANCH   1   4
ATOM      4  CA  NNH d          26.108  -9.431  -5.376  0.00  0.00     0.184 C 
ATOM      5  H4  NNH d          26.481  -9.438  -6.411  0.00  0.00     0.101 H 
BRANCH   4   6
ATOM      6  N   NNH d          26.668  -8.290  -4.673  0.00  0.00    -0.065 N 
ATOM      7  H1  NNH d          27.598  -8.108  -5.015  0.00  0.00     0.275 HD
ATOM      8  H2  NNH d          26.705  -8.489  -3.685  0.00  0.00     0.275 HD
ATOM      9  H3  NNH d          26.088  -7.480  -4.831  0.00  0.00     0.275 HD
ENDBRANCH   4   6
BRANCH   4  10
ATOM     10  C   NNH d          24.570  -9.395  -5.415  0.00  0.00     0.204 C 
ATOM     11  O   NNH d          23.855 -10.199  -5.976  0.00  0.00    -0.646 OA
ATOM     12  OXT NNH d          24.076  -8.336  -4.735  0.00  0.00    -0.646 OA
ENDBRANCH   4  10
ENDBRANCH   1   4
BRANCH   1  13
ATOM     13  CG  NNH d          26.071 -11.223  -3.372  0.00  0.00     0.012 C 
ATOM     14  H7  NNH d          25.651 -10.390  -2.788  0.00  0.00     0.065 H 
ATOM     15  H8  NNH d          26.916 -11.667  -2.823  0.00  0.00     0.065 H 
BRANCH  13  16
ATOM     16  ND  NNH d          25.022 -12.259  -3.508  0.00  0.00    -0.223 N 
ATOM     17  CE  NNH d          24.914 -13.250  -4.435  0.00  0.00     0.716 C 
ATOM     18  NH1 NNH d          25.913 -13.370  -5.442  0.00  0.00     0.058 NA
ATOM     19  NH2 NNH d          23.908 -14.149  -4.472  0.00  0.00    -0.231 N 
ATOM     20  H10 NNH d          23.892 -14.873  -5.205  0.00  0.00     0.174 HD
ATOM     21  H11 NNH d          23.157 -14.112  -3.768  0.00  0.00     0.174 HD
ATOM     22  H9  NNH d          24.271 -12.226  -2.805  0.00  0.00     0.177 HD
BRANCH  18  23
ATOM     23  OH1 NNH d          25.824 -14.297  -6.323  0.00  0.00    -0.252 OA
ATOM     24  H12 NNH d          26.085 -15.124  -5.936  0.00  0.00     0.247 HD
ENDBRANCH  18  23
ENDBRANCH  13  16
ENDBRANCH   1  13
TORSDOF 6
ENDMDL
MODEL 9
REMARK VINA RESULT:      -3.9      2.484      3.454
REMARK  6 active torsions:
REMARK  status: ('A' for Active; 'I' for Inactive)
REMARK    1  A    between atoms: N_1  and  CA_2 
REMARK    2  A    between atoms: CA_2  and  C_3 
REMARK    3  A    between atoms: CA_2  and  CB_5 
REMARK    4  A    between atoms: CB_5  and  CG_6 
REMARK    5  A    between atoms: CG_6  and  ND_7 
REMARK       I    between atoms: ND_7  and  CE_8 
REMARK       I    between atoms: CE_8  and  NH1_9 
REMARK    6  A    between atoms: NH1_9  and  OH1_11 
ROOT
ATOM      1  CB  NNH d          25.172 -10.963  -6.931  0.00  0.00    -0.014 C 
ATOM      2  H5  NNH d          25.039 -12.046  -6.797  0.00  0.00     0.039 H 
ATOM      3  H6  NNH d          24.883 -10.682  -7.955  0.00  0.00     0.039 H 
ENDROOT
BRANCH   1   4
ATOM      4  CA  NNH d          26.668 -10.743  -6.874  0.00  0.00     0.184 C 
ATOM      5  H4  NNH d          27.067 -10.654  -7.895  0.00  0.00     0.101 H 
BRANCH   4   6
ATOM      6  N   NNH d          27.237 -11.919  -6.238  0.00  0.00    -0.065 N 
ATOM      7  H1  NNH d          27.973 -12.291  -6.817  0.00  0.00     0.275 HD
ATOM      8  H2  NNH d          26.519 -12.616  -6.118  0.00  0.00     0.275 HD
ATOM      9  H3  NNH d          27.614 -11.666  -5.337  0.00  0.00     0.275 HD
ENDBRANCH   4   6
BRANCH   4  10
ATOM     10  C   NNH d          27.000  -9.449  -6.109  0.00  0.00     0.204 C 
ATOM     11  O   NNH d          27.213  -9.363  -4.918  0.00  0.00    -0.646 OA
ATOM     12  OXT NNH d          27.030  -8.376  -6.930  0.00  0.00    -0.646 OA
ENDBRANCH   4  10
ENDBRANCH   1   4
BRANCH   1  13
ATOM     13  CG  NNH d          24.139 -10.337  -6.055  0.00  0.00     0.012 C 
ATOM     14  H7  NNH d          23.162 -10.764  -6.325  0.00  0.00     0.065 H 
ATOM     15  H8  NNH d          24.135  -9.255  -6.255  0.00  0.00     0.065 H 
BRANCH  13  16
ATOM     16  ND  NNH d          24.336 -10.530  -4.599  0.00  0.00    -0.223 N 
ATOM     17  CE  NNH d          24.614 -11.675  -3.919  0.00  0.00     0.716 C 
ATOM     18  NH1 NNH d          24.752 -12.895  -4.640  0.00  0.00     0.058 NA
ATOM     19  NH2 NNH d          24.773 -11.743  -2.581  0.00  0.00    -0.231 N 
ATOM     20  H10 NNH d          24.983 -12.647  -2.133  0.00  0.00     0.174 HD
ATOM     21  H11 NNH d          24.686 -10.892  -2.007  0.00  0.00     0.174 HD
ATOM     22  H9  NNH d          24.250  -9.681  -4.024  0.00  0.00     0.177 HD
BRANCH  18  23
ATOM     23  OH1 NNH d          25.013 -13.981  -4.012  0.00  0.00    -0.252 OA
ATOM     24  H12 NNH d          24.532 -14.698  -4.409  0.00  0.00     0.247 HD
ENDBRANCH  18  23
ENDBRANCH  13  16
ENDBRANCH   1  13
TORSDOF 6
ENDMDL
