MODEL 1
REMARK VINA RESULT:      -8.9      0.000      0.000
REMARK  16 active torsions:
REMARK  status: ('A' for Active; 'I' for Inactive)
REMARK    1  A    between atoms: CA_4  and  C_1 
REMARK    2  A    between atoms: N_2  and  CA_4 
REMARK    3  A    between atoms: CBI_33  and  N_2 
REMARK    4  A    between atoms: CA_4  and  CB_5 
REMARK    5  A    between atoms: CB_5  and  CAT_23 
REMARK    6  A    between atoms: CAQ_20  and  NAA_6 
REMARK    7  A    between atoms: CAR_21  and  CAQ_20 
REMARK    8  A    between atoms: CAS_22  and  CAR_21 
REMARK    9  A    between atoms: CAU_24  and  CAS_22 
REMARK   10  A    between atoms: CAT_23  and  CBD_29 
REMARK   11  A    between atoms: CBI_33  and  CAU_24 
REMARK   12  A    between atoms: CBE_30  and  CAW_25 
REMARK   13  A    between atoms: CAW_25  and  CBJ_34 
REMARK       I    between atoms: NAX_26  and  CBC_28 
REMARK   14  A    between atoms: CBJ_34  and  NAX_26 
REMARK   15  A    between atoms: CBJ_34  and  CBB_27 
REMARK   16  A    between atoms: CBC_28  and  CBI_33 
ROOT
ATOM      1  CBI LSW d          41.950   7.983 112.703  0.00  0.00     0.179 C 
ATOM      2  H32 LSW d          41.411   7.030 112.817  0.00  0.00     0.099 H 
ENDROOT
BRANCH   1   3
ATOM      3  N   LSW d          42.586   8.309 113.978  0.00  0.00    -0.048 N 
ATOM      4  H1  LSW d          43.138   9.146 113.875  0.00  0.00     0.279 HD
ATOM      5  H2  LSW d          41.878   8.458 114.681  0.00  0.00     0.279 HD
BRANCH   3   6
ATOM      6  CA  LSW d          43.453   7.193 114.383  0.00  0.00     0.185 C 
ATOM      7  H3  LSW d          44.001   6.828 113.502  0.00  0.00     0.101 H 
BRANCH   6   8
ATOM      8  C   LSW d          42.601   6.055 114.955  0.00  0.00     0.204 C 
ATOM      9  O   LSW d          42.732   4.906 114.481  0.00  0.00    -0.646 OA
ATOM     10  OXT LSW d          41.803   6.301 115.886  0.00  0.00    -0.646 OA
ENDBRANCH   6   8
BRANCH   6  11
ATOM     11  CB  LSW d          44.457   7.658 115.442  0.00  0.00    -0.025 C 
ATOM     12  H4  LSW d          43.968   7.661 116.427  0.00  0.00     0.037 H 
ATOM     13  H5  LSW d          44.795   8.676 115.197  0.00  0.00     0.037 H 
BRANCH  11  14
ATOM     14  CAT LSW d          45.669   6.723 115.484  0.00  0.00    -0.039 C 
ATOM     15  H25 LSW d          46.569   7.301 115.226  0.00  0.00     0.040 H 
ATOM     16  H26 LSW d          45.521   5.923 114.744  0.00  0.00     0.040 H 
BRANCH  14  17
ATOM     17  CBD LSW d          45.873   6.084 116.861  0.00  0.00    -0.058 A 
ATOM     18  CAL LSW d          45.599   4.733 117.041  0.00  0.00    -0.077 A 
ATOM     19  CAH LSW d          45.837   4.127 118.270  0.00  0.00    -0.082 A 
ATOM     20  H14 LSW d          45.199   4.149 116.220  0.00  0.00     0.084 H 
ATOM     21  CAG LSW d          46.348   4.875 119.325  0.00  0.00    -0.083 A 
ATOM     22  H10 LSW d          45.624   3.073 118.406  0.00  0.00     0.083 H 
ATOM     23  CAI LSW d          46.619   6.227 119.148  0.00  0.00    -0.082 A 
ATOM     24  H9  LSW d          46.534   4.404 120.284  0.00  0.00     0.083 H 
ATOM     25  CAM LSW d          46.383   6.831 117.918  0.00  0.00    -0.077 A 
ATOM     26  H11 LSW d          47.016   6.812 119.970  0.00  0.00     0.083 H 
ATOM     27  H15 LSW d          46.595   7.885 117.782  0.00  0.00     0.084 H 
ENDBRANCH  14  17
ENDBRANCH  11  14
ENDBRANCH   6  11
ENDBRANCH   3   6
ENDBRANCH   1   3
BRANCH   1  28
ATOM     28  CAU LSW d          40.937   9.076 112.314  0.00  0.00    -0.030 C 
ATOM     29  H27 LSW d          40.619   8.886 111.278  0.00  0.00     0.036 H 
ATOM     30  H28 LSW d          40.071   8.985 112.986  0.00  0.00     0.036 H 
BRANCH  28  31
ATOM     31  CAS LSW d          41.440  10.535 112.392  0.00  0.00    -0.061 C 
ATOM     32  H23 LSW d          40.924  11.057 113.210  0.00  0.00     0.033 H 
ATOM     33  H24 LSW d          42.524  10.538 112.581  0.00  0.00     0.033 H 
BRANCH  31  34
ATOM     34  CAR LSW d          41.149  11.255 111.057  0.00  0.00    -0.043 C 
ATOM     35  H21 LSW d          41.604  10.676 110.240  0.00  0.00     0.035 H 
ATOM     36  H22 LSW d          40.059  11.297 110.913  0.00  0.00     0.035 H 
BRANCH  34  37
ATOM     37  CAQ LSW d          41.705  12.689 111.008  0.00  0.00     0.080 C 
ATOM     38  H19 LSW d          40.883  13.382 110.773  0.00  0.00     0.075 H 
ATOM     39  H20 LSW d          42.128  12.941 111.991  0.00  0.00     0.075 H 
BRANCH  37  40
ATOM     40  NAA LSW d          42.773  12.832 109.966  0.00  0.00    -0.079 N 
ATOM     41  H6  LSW d          42.631  12.145 109.243  0.00  0.00     0.274 HD
ATOM     42  H7  LSW d          43.677  12.692 110.391  0.00  0.00     0.274 HD
ATOM     43  H8  LSW d          42.730  13.756 109.566  0.00  0.00     0.274 HD
ENDBRANCH  37  40
ENDBRANCH  34  37
ENDBRANCH  31  34
ENDBRANCH  28  31
ENDBRANCH   1  28
BRANCH   1  44
ATOM     44  CBC LSW d          42.999   7.821 111.600  0.00  0.00     0.249 C 
ATOM     45  OAD LSW d          44.181   7.651 111.901  0.00  0.00    -0.271 OA
ATOM     46  NAX LSW d          42.583   7.853 110.330  0.00  0.00    -0.344 N 
ATOM     47  H31 LSW d          41.610   7.957 110.125  0.00  0.00     0.163 HD
BRANCH  46  48
ATOM     48  CBJ LSW d          43.556   7.736 109.236  0.00  0.00     0.100 C 
ATOM     49  H33 LSW d          44.321   7.003 109.532  0.00  0.00     0.090 H 
BRANCH  48  50
ATOM     50  CAW LSW d          42.907   7.268 107.924  0.00  0.00    -0.011 C 
ATOM     51  H29 LSW d          43.082   8.045 107.165  0.00  0.00     0.044 H 
ATOM     52  H30 LSW d          43.404   6.336 107.616  0.00  0.00     0.044 H 
BRANCH  50  53
ATOM     53  CBE LSW d          41.451   7.008 107.981  0.00  0.00    -0.028 A 
ATOM     54  CAP LSW d          40.833   5.787 108.090  0.00  0.00    -0.015 A 
ATOM     55  NXZ LSW d          39.448   5.962 108.074  0.00  0.00    -0.365 N 
ATOM     56  H18 LSW d          41.344   4.830 108.177  0.00  0.00     0.112 H 
ATOM     57  CBF LSW d          39.175   7.300 107.955  0.00  0.00     0.042 A 
ATOM     58  H34 LSW d          38.747   5.210 108.140  0.00  0.00     0.165 HD
ATOM     59  CAN LSW d          37.946   7.962 107.893  0.00  0.00    -0.056 A 
ATOM     60  CBG LSW d          40.411   7.989 107.898  0.00  0.00    -0.002 A 
ATOM     61  CAJ LSW d          37.966   9.330 107.772  0.00  0.00    -0.081 A 
ATOM     62  H16 LSW d          37.011   7.416 107.939  0.00  0.00     0.086 H 
ATOM     63  CAK LSW d          39.179  10.048 107.715  0.00  0.00    -0.082 A 
ATOM     64  H12 LSW d          37.029   9.871 107.718  0.00  0.00     0.083 H 
ATOM     65  CAO LSW d          40.405   9.387 107.779  0.00  0.00    -0.070 A 
ATOM     66  H13 LSW d          39.159  11.129 107.621  0.00  0.00     0.083 H 
ATOM     67  H17 LSW d          41.335   9.942 107.737  0.00  0.00     0.084 H 
ENDBRANCH  50  53
ENDBRANCH  48  50
BRANCH  48  68
ATOM     68  CBB LSW d          44.231   9.090 108.981  0.00  0.00     0.197 C 
ATOM     69  OAC LSW d          43.518  10.123 108.920  0.00  0.00    -0.646 OA
ATOM     70  OAF LSW d          45.477   9.107 108.869  0.00  0.00    -0.646 OA
ENDBRANCH  48  68
ENDBRANCH  46  48
ENDBRANCH   1  44
TORSDOF 16
ENDMDL
MODEL 2
REMARK VINA RESULT:      -8.5      2.582      4.625
REMARK  16 active torsions:
REMARK  status: ('A' for Active; 'I' for Inactive)
REMARK    1  A    between atoms: CA_4  and  C_1 
REMARK    2  A    between atoms: N_2  and  CA_4 
REMARK    3  A    between atoms: CBI_33  and  N_2 
REMARK    4  A    between atoms: CA_4  and  CB_5 
REMARK    5  A    between atoms: CB_5  and  CAT_23 
REMARK    6  A    between atoms: CAQ_20  and  NAA_6 
REMARK    7  A    between atoms: CAR_21  and  CAQ_20 
REMARK    8  A    between atoms: CAS_22  and  CAR_21 
REMARK    9  A    between atoms: CAU_24  and  CAS_22 
REMARK   10  A    between atoms: CAT_23  and  CBD_29 
REMARK   11  A    between atoms: CBI_33  and  CAU_24 
REMARK   12  A    between atoms: CBE_30  and  CAW_25 
REMARK   13  A    between atoms: CAW_25  and  CBJ_34 
REMARK       I    between atoms: NAX_26  and  CBC_28 
REMARK   14  A    between atoms: CBJ_34  and  NAX_26 
REMARK   15  A    between atoms: CBJ_34  and  CBB_27 
REMARK   16  A    between atoms: CBC_28  and  CBI_33 
ROOT
ATOM      1  CBI LSW d          41.946  10.413 109.843  0.00  0.00     0.179 C 
ATOM      2  H32 LSW d          41.007  10.562 110.396  0.00  0.00     0.099 H 
ENDROOT
BRANCH   1   3
ATOM      3  N   LSW d          42.311   8.999 109.924  0.00  0.00    -0.048 N 
ATOM      4  H1  LSW d          41.653   8.514 110.513  0.00  0.00     0.279 HD
ATOM      5  H2  LSW d          42.298   8.594 109.000  0.00  0.00     0.279 HD
BRANCH   3   6
ATOM      6  CA  LSW d          43.661   8.883 110.493  0.00  0.00     0.185 C 
ATOM      7  H3  LSW d          43.954   9.852 110.922  0.00  0.00     0.101 H 
BRANCH   6   8
ATOM      8  C   LSW d          44.656   8.495 109.394  0.00  0.00     0.204 C 
ATOM      9  O   LSW d          44.851   7.284 109.155  0.00  0.00    -0.646 OA
ATOM     10  OXT LSW d          45.242   9.399 108.758  0.00  0.00    -0.646 OA
ENDBRANCH   6   8
BRANCH   6  11
ATOM     11  CB  LSW d          43.682   7.820 111.596  0.00  0.00    -0.025 C 
ATOM     12  H4  LSW d          44.709   7.713 111.975  0.00  0.00     0.037 H 
ATOM     13  H5  LSW d          43.343   6.860 111.179  0.00  0.00     0.037 H 
BRANCH  11  14
ATOM     14  CAT LSW d          42.759   8.222 112.750  0.00  0.00    -0.039 C 
ATOM     15  H25 LSW d          41.716   8.073 112.434  0.00  0.00     0.040 H 
ATOM     16  H26 LSW d          42.926   9.284 112.980  0.00  0.00     0.040 H 
BRANCH  14  17
ATOM     17  CBD LSW d          43.009   7.400 114.019  0.00  0.00    -0.058 A 
ATOM     18  CAL LSW d          44.266   7.417 114.614  0.00  0.00    -0.077 A 
ATOM     19  CAH LSW d          44.490   6.723 115.798  0.00  0.00    -0.082 A 
ATOM     20  H14 LSW d          45.074   7.973 114.153  0.00  0.00     0.084 H 
ATOM     21  CAG LSW d          43.455   6.007 116.389  0.00  0.00    -0.083 A 
ATOM     22  H10 LSW d          45.470   6.740 116.259  0.00  0.00     0.083 H 
ATOM     23  CAI LSW d          42.198   5.987 115.794  0.00  0.00    -0.082 A 
ATOM     24  H9  LSW d          43.627   5.466 117.313  0.00  0.00     0.083 H 
ATOM     25  CAM LSW d          41.975   6.682 114.610  0.00  0.00    -0.077 A 
ATOM     26  H11 LSW d          41.391   5.428 116.253  0.00  0.00     0.083 H 
ATOM     27  H15 LSW d          40.995   6.665 114.148  0.00  0.00     0.084 H 
ENDBRANCH  14  17
ENDBRANCH  11  14
ENDBRANCH   6  11
ENDBRANCH   3   6
ENDBRANCH   1   3
BRANCH   1  28
ATOM     28  CAU LSW d          43.040  11.286 110.488  0.00  0.00    -0.030 C 
ATOM     29  H27 LSW d          43.432  10.742 111.361  0.00  0.00     0.036 H 
ATOM     30  H28 LSW d          43.843  11.417 109.748  0.00  0.00     0.036 H 
BRANCH  28  31
ATOM     31  CAS LSW d          42.604  12.689 110.964  0.00  0.00    -0.061 C 
ATOM     32  H23 LSW d          43.493  13.323 111.097  0.00  0.00     0.033 H 
ATOM     33  H24 LSW d          41.941  13.141 110.212  0.00  0.00     0.033 H 
BRANCH  31  34
ATOM     34  CAR LSW d          41.851  12.570 112.308  0.00  0.00    -0.043 C 
ATOM     35  H21 LSW d          40.773  12.497 112.100  0.00  0.00     0.035 H 
ATOM     36  H22 LSW d          42.188  11.655 112.817  0.00  0.00     0.035 H 
BRANCH  34  37
ATOM     37  CAQ LSW d          42.089  13.767 113.244  0.00  0.00     0.080 C 
ATOM     38  H19 LSW d          41.365  14.560 113.001  0.00  0.00     0.075 H 
ATOM     39  H20 LSW d          41.941  13.442 114.284  0.00  0.00     0.075 H 
BRANCH  37  40
ATOM     40  NAA LSW d          43.477  14.315 113.099  0.00  0.00    -0.079 N 
ATOM     41  H6  LSW d          43.431  15.253 112.734  0.00  0.00     0.274 HD
ATOM     42  H7  LSW d          44.003  13.733 112.467  0.00  0.00     0.274 HD
ATOM     43  H8  LSW d          43.929  14.326 114.000  0.00  0.00     0.274 HD
ENDBRANCH  37  40
ENDBRANCH  34  37
ENDBRANCH  31  34
ENDBRANCH  28  31
ENDBRANCH   1  28
BRANCH   1  44
ATOM     44  CBC LSW d          41.727  10.833 108.388  0.00  0.00     0.249 C 
ATOM     45  OAD LSW d          42.686  11.189 107.703  0.00  0.00    -0.271 OA
ATOM     46  NAX LSW d          40.483  10.782 107.901  0.00  0.00    -0.344 N 
ATOM     47  H31 LSW d          39.734  10.453 108.476  0.00  0.00     0.163 HD
BRANCH  46  48
ATOM     48  CBJ LSW d          40.216  11.207 106.520  0.00  0.00     0.100 C 
ATOM     49  H33 LSW d          41.165  11.540 106.073  0.00  0.00     0.090 H 
BRANCH  48  50
ATOM     50  CAW LSW d          39.638  10.072 105.660  0.00  0.00    -0.011 C 
ATOM     51  H29 LSW d          38.704  10.436 105.206  0.00  0.00     0.044 H 
ATOM     52  H30 LSW d          40.367   9.845 104.868  0.00  0.00     0.044 H 
BRANCH  50  53
ATOM     53  CBE LSW d          39.335   8.812 106.374  0.00  0.00    -0.028 A 
ATOM     54  CAP LSW d          38.105   8.381 106.806  0.00  0.00    -0.015 A 
ATOM     55  NXZ LSW d          38.243   7.160 107.468  0.00  0.00    -0.365 N 
ATOM     56  H18 LSW d          37.165   8.911 106.654  0.00  0.00     0.112 H 
ATOM     57  CBF LSW d          39.567   6.804 107.462  0.00  0.00     0.042 A 
ATOM     58  H34 LSW d          37.477   6.617 107.893  0.00  0.00     0.165 HD
ATOM     59  CAN LSW d          40.194   5.677 107.998  0.00  0.00    -0.056 A 
ATOM     60  CBG LSW d          40.283   7.817 106.778  0.00  0.00    -0.002 A 
ATOM     61  CAJ LSW d          41.555   5.573 107.844  0.00  0.00    -0.081 A 
ATOM     62  H16 LSW d          39.627   4.912 108.517  0.00  0.00     0.086 H 
ATOM     63  CAK LSW d          42.299   6.561 107.166  0.00  0.00    -0.082 A 
ATOM     64  H12 LSW d          42.069   4.711 108.252  0.00  0.00     0.083 H 
ATOM     65  CAO LSW d          41.671   7.685 106.629  0.00  0.00    -0.070 A 
ATOM     66  H13 LSW d          43.372   6.446 107.061  0.00  0.00     0.083 H 
ATOM     67  H17 LSW d          42.246   8.442 106.107  0.00  0.00     0.084 H 
ENDBRANCH  50  53
ENDBRANCH  48  50
BRANCH  48  68
ATOM     68  CBB LSW d          39.220  12.373 106.509  0.00  0.00     0.197 C 
ATOM     69  OAC LSW d          38.343  12.415 105.609  0.00  0.00    -0.646 OA
ATOM     70  OAF LSW d          39.311  13.226 107.419  0.00  0.00    -0.646 OA
ENDBRANCH  48  68
ENDBRANCH  46  48
ENDBRANCH   1  44
TORSDOF 16
ENDMDL
MODEL 3
REMARK VINA RESULT:      -7.6      1.997      8.778
REMARK  16 active torsions:
REMARK  status: ('A' for Active; 'I' for Inactive)
REMARK    1  A    between atoms: CA_4  and  C_1 
REMARK    2  A    between atoms: N_2  and  CA_4 
REMARK    3  A    between atoms: CBI_33  and  N_2 
REMARK    4  A    between atoms: CA_4  and  CB_5 
REMARK    5  A    between atoms: CB_5  and  CAT_23 
REMARK    6  A    between atoms: CAQ_20  and  NAA_6 
REMARK    7  A    between atoms: CAR_21  and  CAQ_20 
REMARK    8  A    between atoms: CAS_22  and  CAR_21 
REMARK    9  A    between atoms: CAU_24  and  CAS_22 
REMARK   10  A    between atoms: CAT_23  and  CBD_29 
REMARK   11  A    between atoms: CBI_33  and  CAU_24 
REMARK   12  A    between atoms: CBE_30  and  CAW_25 
REMARK   13  A    between atoms: CAW_25  and  CBJ_34 
REMARK       I    between atoms: NAX_26  and  CBC_28 
REMARK   14  A    between atoms: CBJ_34  and  NAX_26 
REMARK   15  A    between atoms: CBJ_34  and  CBB_27 
REMARK   16  A    between atoms: CBC_28  and  CBI_33 
ROOT
ATOM      1  CBI LSW d          42.401   8.130 111.730  0.00  0.00     0.179 C 
ATOM      2  H32 LSW d          41.578   8.842 111.895  0.00  0.00     0.099 H 
ENDROOT
BRANCH   1   3
ATOM      3  N   LSW d          43.598   8.884 111.364  0.00  0.00    -0.048 N 
ATOM      4  H1  LSW d          43.628   9.745 111.887  0.00  0.00     0.279 HD
ATOM      5  H2  LSW d          44.419   8.336 111.572  0.00  0.00     0.279 HD
BRANCH   3   6
ATOM      6  CA  LSW d          43.558   9.182 109.925  0.00  0.00     0.185 C 
ATOM      7  H3  LSW d          42.616   8.800 109.506  0.00  0.00     0.101 H 
BRANCH   6   8
ATOM      8  C   LSW d          44.736   8.502 109.221  0.00  0.00     0.204 C 
ATOM      9  O   LSW d          44.757   7.254 109.146  0.00  0.00    -0.646 OA
ATOM     10  OXT LSW d          45.643   9.209 108.730  0.00  0.00    -0.646 OA
ENDBRANCH   6   8
BRANCH   6  11
ATOM     11  CB  LSW d          43.632  10.694 109.695  0.00  0.00    -0.025 C 
ATOM     12  H4  LSW d          44.243  10.894 108.801  0.00  0.00     0.037 H 
ATOM     13  H5  LSW d          44.096  11.172 110.570  0.00  0.00     0.037 H 
BRANCH  11  14
ATOM     14  CAT LSW d          42.231  11.278 109.487  0.00  0.00    -0.039 C 
ATOM     15  H25 LSW d          41.503  10.453 109.491  0.00  0.00     0.040 H 
ATOM     16  H26 LSW d          42.204  11.788 108.513  0.00  0.00     0.040 H 
BRANCH  14  17
ATOM     17  CBD LSW d          41.842  12.281 110.577  0.00  0.00    -0.058 A 
ATOM     18  CAL LSW d          41.056  13.382 110.251  0.00  0.00    -0.077 A 
ATOM     19  CAH LSW d          40.647  14.268 111.241  0.00  0.00    -0.082 A 
ATOM     20  H14 LSW d          40.761  13.549 109.222  0.00  0.00     0.084 H 
ATOM     21  CAG LSW d          41.027  14.057 112.562  0.00  0.00    -0.083 A 
ATOM     22  H10 LSW d          40.033  15.123 110.983  0.00  0.00     0.083 H 
ATOM     23  CAI LSW d          41.815  12.959 112.889  0.00  0.00    -0.082 A 
ATOM     24  H9  LSW d          40.708  14.747 113.335  0.00  0.00     0.083 H 
ATOM     25  CAM LSW d          42.223  12.072 111.898  0.00  0.00    -0.077 A 
ATOM     26  H11 LSW d          42.113  12.794 113.919  0.00  0.00     0.083 H 
ATOM     27  H15 LSW d          42.837  11.217 112.155  0.00  0.00     0.084 H 
ENDBRANCH  14  17
ENDBRANCH  11  14
ENDBRANCH   6  11
ENDBRANCH   3   6
ENDBRANCH   1   3
BRANCH   1  28
ATOM     28  CAU LSW d          42.001   7.173 110.591  0.00  0.00    -0.030 C 
ATOM     29  H27 LSW d          42.894   6.996 109.973  0.00  0.00     0.036 H 
ATOM     30  H28 LSW d          41.677   6.226 111.047  0.00  0.00     0.036 H 
BRANCH  28  31
ATOM     31  CAS LSW d          40.871   7.656 109.655  0.00  0.00    -0.061 C 
ATOM     32  H23 LSW d          39.908   7.594 110.184  0.00  0.00     0.033 H 
ATOM     33  H24 LSW d          41.060   8.699 109.360  0.00  0.00     0.033 H 
BRANCH  31  34
ATOM     34  CAR LSW d          40.824   6.765 108.395  0.00  0.00    -0.043 C 
ATOM     35  H21 LSW d          41.570   7.136 107.676  0.00  0.00     0.035 H 
ATOM     36  H22 LSW d          41.077   5.735 108.685  0.00  0.00     0.035 H 
BRANCH  34  37
ATOM     37  CAQ LSW d          39.447   6.756 107.709  0.00  0.00     0.080 C 
ATOM     38  H19 LSW d          39.514   7.321 106.767  0.00  0.00     0.075 H 
ATOM     39  H20 LSW d          39.162   5.716 107.494  0.00  0.00     0.075 H 
BRANCH  37  40
ATOM     40  NAA LSW d          38.394   7.379 108.576  0.00  0.00    -0.079 N 
ATOM     41  H6  LSW d          38.647   8.333 108.778  0.00  0.00     0.274 HD
ATOM     42  H7  LSW d          38.319   6.861 109.437  0.00  0.00     0.274 HD
ATOM     43  H8  LSW d          37.509   7.361 108.094  0.00  0.00     0.274 HD
ENDBRANCH  37  40
ENDBRANCH  34  37
ENDBRANCH  31  34
ENDBRANCH  28  31
ENDBRANCH   1  28
BRANCH   1  44
ATOM     44  CBC LSW d          42.630   7.343 113.023  0.00  0.00     0.249 C 
ATOM     45  OAD LSW d          42.289   6.161 113.088  0.00  0.00    -0.271 OA
ATOM     46  NAX LSW d          43.218   7.973 114.045  0.00  0.00    -0.344 N 
ATOM     47  H31 LSW d          43.513   8.923 113.943  0.00  0.00     0.163 HD
BRANCH  46  48
ATOM     48  CBJ LSW d          43.429   7.270 115.317  0.00  0.00     0.100 C 
ATOM     49  H33 LSW d          42.908   7.827 116.110  0.00  0.00     0.090 H 
BRANCH  48  50
ATOM     50  CAW LSW d          42.887   5.832 115.288  0.00  0.00    -0.011 C 
ATOM     51  H29 LSW d          41.871   5.863 114.865  0.00  0.00     0.044 H 
ATOM     52  H30 LSW d          43.540   5.239 114.632  0.00  0.00     0.044 H 
BRANCH  50  53
ATOM     53  CBE LSW d          42.812   5.144 116.597  0.00  0.00    -0.028 A 
ATOM     54  CAP LSW d          41.773   5.184 117.494  0.00  0.00    -0.015 A 
ATOM     55  NXZ LSW d          42.103   4.433 118.624  0.00  0.00    -0.365 N 
ATOM     56  H18 LSW d          40.836   5.718 117.346  0.00  0.00     0.112 H 
ATOM     57  CBF LSW d          43.358   3.908 118.452  0.00  0.00     0.042 A 
ATOM     58  H34 LSW d          41.502   4.297 119.450  0.00  0.00     0.165 HD
ATOM     59  CAN LSW d          44.114   3.098 119.302  0.00  0.00    -0.056 A 
ATOM     60  CBG LSW d          43.833   4.331 117.186  0.00  0.00    -0.002 A 
ATOM     61  CAJ LSW d          45.360   2.712 118.871  0.00  0.00    -0.081 A 
ATOM     62  H16 LSW d          43.731   2.785 120.267  0.00  0.00     0.086 H 
ATOM     63  CAK LSW d          45.863   3.112 117.616  0.00  0.00    -0.082 A 
ATOM     64  H12 LSW d          45.971   2.086 119.511  0.00  0.00     0.083 H 
ATOM     65  CAO LSW d          45.107   3.920 116.767  0.00  0.00    -0.070 A 
ATOM     66  H13 LSW d          46.850   2.788 117.306  0.00  0.00     0.083 H 
ATOM     67  H17 LSW d          45.496   4.224 115.802  0.00  0.00     0.084 H 
ENDBRANCH  50  53
ENDBRANCH  48  50
BRANCH  48  68
ATOM     68  CBB LSW d          44.926   7.211 115.647  0.00  0.00     0.197 C 
ATOM     69  OAC LSW d          45.719   6.740 114.792  0.00  0.00    -0.646 OA
ATOM     70  OAF LSW d          45.297   7.662 116.753  0.00  0.00    -0.646 OA
ENDBRANCH  48  68
ENDBRANCH  46  48
ENDBRANCH   1  44
TORSDOF 16
ENDMDL
MODEL 4
REMARK VINA RESULT:      -7.6      2.386      8.625
REMARK  16 active torsions:
REMARK  status: ('A' for Active; 'I' for Inactive)
REMARK    1  A    between atoms: CA_4  and  C_1 
REMARK    2  A    between atoms: N_2  and  CA_4 
REMARK    3  A    between atoms: CBI_33  and  N_2 
REMARK    4  A    between atoms: CA_4  and  CB_5 
REMARK    5  A    between atoms: CB_5  and  CAT_23 
REMARK    6  A    between atoms: CAQ_20  and  NAA_6 
REMARK    7  A    between atoms: CAR_21  and  CAQ_20 
REMARK    8  A    between atoms: CAS_22  and  CAR_21 
REMARK    9  A    between atoms: CAU_24  and  CAS_22 
REMARK   10  A    between atoms: CAT_23  and  CBD_29 
REMARK   11  A    between atoms: CBI_33  and  CAU_24 
REMARK   12  A    between atoms: CBE_30  and  CAW_25 
REMARK   13  A    between atoms: CAW_25  and  CBJ_34 
REMARK       I    between atoms: NAX_26  and  CBC_28 
REMARK   14  A    between atoms: CBJ_34  and  NAX_26 
REMARK   15  A    between atoms: CBJ_34  and  CBB_27 
REMARK   16  A    between atoms: CBC_28  and  CBI_33 
ROOT
ATOM      1  CBI LSW d          41.772   9.502 108.252  0.00  0.00     0.179 C 
ATOM      2  H32 LSW d          40.857   9.565 107.645  0.00  0.00     0.099 H 
ENDROOT
BRANCH   1   3
ATOM      3  N   LSW d          42.340  10.844 108.373  0.00  0.00    -0.048 N 
ATOM      4  H1  LSW d          42.232  11.173 109.319  0.00  0.00     0.279 HD
ATOM      5  H2  LSW d          43.320  10.819 108.135  0.00  0.00     0.279 HD
BRANCH   3   6
ATOM      6  CA  LSW d          41.635  11.749 107.454  0.00  0.00     0.185 C 
ATOM      7  H3  LSW d          41.093  11.151 106.706  0.00  0.00     0.101 H 
BRANCH   6   8
ATOM      8  C   LSW d          42.644  12.655 106.740  0.00  0.00     0.204 C 
ATOM      9  O   LSW d          43.778  12.809 107.242  0.00  0.00    -0.646 OA
ATOM     10  OXT LSW d          42.312  13.210 105.671  0.00  0.00    -0.646 OA
ENDBRANCH   6   8
BRANCH   6  11
ATOM     11  CB  LSW d          40.632  12.613 108.225  0.00  0.00    -0.025 C 
ATOM     12  H4  LSW d          40.298  12.066 109.120  0.00  0.00     0.037 H 
ATOM     13  H5  LSW d          39.767  12.825 107.581  0.00  0.00     0.037 H 
BRANCH  11  14
ATOM     14  CAT LSW d          41.276  13.934 108.654  0.00  0.00    -0.039 C 
ATOM     15  H25 LSW d          40.564  14.751 108.463  0.00  0.00     0.040 H 
ATOM     16  H26 LSW d          42.186  14.093 108.056  0.00  0.00     0.040 H 
BRANCH  14  17
ATOM     17  CBD LSW d          41.656  13.952 110.138  0.00  0.00    -0.058 A 
ATOM     18  CAL LSW d          40.659  13.880 111.105  0.00  0.00    -0.077 A 
ATOM     19  CAH LSW d          40.993  13.836 112.454  0.00  0.00    -0.082 A 
ATOM     20  H14 LSW d          39.617  13.858 110.806  0.00  0.00     0.084 H 
ATOM     21  CAG LSW d          42.329  13.866 112.840  0.00  0.00    -0.083 A 
ATOM     22  H10 LSW d          40.213  13.778 113.205  0.00  0.00     0.083 H 
ATOM     23  CAI LSW d          43.327  13.941 111.874  0.00  0.00    -0.082 A 
ATOM     24  H9  LSW d          42.592  13.831 113.891  0.00  0.00     0.083 H 
ATOM     25  CAM LSW d          42.991  13.984 110.525  0.00  0.00    -0.077 A 
ATOM     26  H11 LSW d          44.369  13.966 112.174  0.00  0.00     0.083 H 
ATOM     27  H15 LSW d          43.771  14.042 109.774  0.00  0.00     0.084 H 
ENDBRANCH  14  17
ENDBRANCH  11  14
ENDBRANCH   6  11
ENDBRANCH   3   6
ENDBRANCH   1   3
BRANCH   1  28
ATOM     28  CAU LSW d          42.767   8.561 107.545  0.00  0.00    -0.030 C 
ATOM     29  H27 LSW d          42.505   8.538 106.477  0.00  0.00     0.036 H 
ATOM     30  H28 LSW d          43.774   8.986 107.666  0.00  0.00     0.036 H 
BRANCH  28  31
ATOM     31  CAS LSW d          42.807   7.102 108.051  0.00  0.00    -0.061 C 
ATOM     32  H23 LSW d          43.832   6.714 107.967  0.00  0.00     0.033 H 
ATOM     33  H24 LSW d          42.489   7.072 109.104  0.00  0.00     0.033 H 
BRANCH  31  34
ATOM     34  CAR LSW d          41.855   6.232 107.201  0.00  0.00    -0.043 C 
ATOM     35  H21 LSW d          41.387   6.869 106.436  0.00  0.00     0.035 H 
ATOM     36  H22 LSW d          42.446   5.445 106.710  0.00  0.00     0.035 H 
BRANCH  34  37
ATOM     37  CAQ LSW d          40.742   5.565 108.028  0.00  0.00     0.080 C 
ATOM     38  H19 LSW d          40.568   4.551 107.638  0.00  0.00     0.075 H 
ATOM     39  H20 LSW d          41.065   5.504 109.077  0.00  0.00     0.075 H 
BRANCH  37  40
ATOM     40  NAA LSW d          39.461   6.340 107.957  0.00  0.00    -0.079 N 
ATOM     41  H6  LSW d          39.658   7.288 107.679  0.00  0.00     0.274 HD
ATOM     42  H7  LSW d          39.018   6.340 108.863  0.00  0.00     0.274 HD
ATOM     43  H8  LSW d          38.847   5.912 107.283  0.00  0.00     0.274 HD
ENDBRANCH  37  40
ENDBRANCH  34  37
ENDBRANCH  31  34
ENDBRANCH  28  31
ENDBRANCH   1  28
BRANCH   1  44
ATOM     44  CBC LSW d          41.407   8.943 109.629  0.00  0.00     0.249 C 
ATOM     45  OAD LSW d          40.284   8.475 109.821  0.00  0.00    -0.271 OA
ATOM     46  NAX LSW d          42.342   8.969 110.584  0.00  0.00    -0.344 N 
ATOM     47  H31 LSW d          43.254   9.324 110.382  0.00  0.00     0.163 HD
BRANCH  46  48
ATOM     48  CBJ LSW d          42.028   8.474 111.932  0.00  0.00     0.100 C 
ATOM     49  H33 LSW d          41.321   7.637 111.836  0.00  0.00     0.090 H 
BRANCH  48  50
ATOM     50  CAW LSW d          43.277   7.979 112.678  0.00  0.00    -0.011 C 
ATOM     51  H29 LSW d          43.802   7.268 112.023  0.00  0.00     0.044 H 
ATOM     52  H30 LSW d          43.923   8.849 112.868  0.00  0.00     0.044 H 
BRANCH  50  53
ATOM     53  CBE LSW d          43.030   7.305 113.973  0.00  0.00    -0.028 A 
ATOM     54  CAP LSW d          41.821   6.887 114.470  0.00  0.00    -0.015 A 
ATOM     55  NXZ LSW d          42.003   6.332 115.738  0.00  0.00    -0.365 N 
ATOM     56  H18 LSW d          40.865   6.976 113.955  0.00  0.00     0.112 H 
ATOM     57  CBF LSW d          43.335   6.392 116.056  0.00  0.00     0.042 A 
ATOM     58  H34 LSW d          41.260   5.942 116.335  0.00  0.00     0.165 HD
ATOM     59  CAN LSW d          44.001   5.967 117.208  0.00  0.00    -0.056 A 
ATOM     60  CBG LSW d          44.012   6.994 114.968  0.00  0.00    -0.002 A 
ATOM     61  CAJ LSW d          45.361   6.153 117.262  0.00  0.00    -0.081 A 
ATOM     62  H16 LSW d          43.464   5.507 118.030  0.00  0.00     0.086 H 
ATOM     63  CAK LSW d          46.067   6.746 116.195  0.00  0.00    -0.082 A 
ATOM     64  H12 LSW d          45.905   5.836 118.144  0.00  0.00     0.083 H 
ATOM     65  CAO LSW d          45.402   7.168 115.045  0.00  0.00    -0.070 A 
ATOM     66  H13 LSW d          47.141   6.876 116.270  0.00  0.00     0.083 H 
ATOM     67  H17 LSW d          45.948   7.623 114.226  0.00  0.00     0.084 H 
ENDBRANCH  50  53
ENDBRANCH  48  50
BRANCH  48  68
ATOM     68  CBB LSW d          41.380   9.586 112.766  0.00  0.00     0.197 C 
ATOM     69  OAC LSW d          42.110  10.487 113.251  0.00  0.00    -0.646 OA
ATOM     70  OAF LSW d          40.138   9.559 112.907  0.00  0.00    -0.646 OA
ENDBRANCH  48  68
ENDBRANCH  46  48
ENDBRANCH   1  44
TORSDOF 16
ENDMDL
MODEL 5
REMARK VINA RESULT:      -7.5      2.550      5.759
REMARK  16 active torsions:
REMARK  status: ('A' for Active; 'I' for Inactive)
REMARK    1  A    between atoms: CA_4  and  C_1 
REMARK    2  A    between atoms: N_2  and  CA_4 
REMARK    3  A    between atoms: CBI_33  and  N_2 
REMARK    4  A    between atoms: CA_4  and  CB_5 
REMARK    5  A    between atoms: CB_5  and  CAT_23 
REMARK    6  A    between atoms: CAQ_20  and  NAA_6 
REMARK    7  A    between atoms: CAR_21  and  CAQ_20 
REMARK    8  A    between atoms: CAS_22  and  CAR_21 
REMARK    9  A    between atoms: CAU_24  and  CAS_22 
REMARK   10  A    between atoms: CAT_23  and  CBD_29 
REMARK   11  A    between atoms: CBI_33  and  CAU_24 
REMARK   12  A    between atoms: CBE_30  and  CAW_25 
REMARK   13  A    between atoms: CAW_25  and  CBJ_34 
REMARK       I    between atoms: NAX_26  and  CBC_28 
REMARK   14  A    between atoms: CBJ_34  and  NAX_26 
REMARK   15  A    between atoms: CBJ_34  and  CBB_27 
REMARK   16  A    between atoms: CBC_28  and  CBI_33 
ROOT
ATOM      1  CBI LSW d          41.725   8.820 110.031  0.00  0.00     0.179 C 
ATOM      2  H32 LSW d          42.546   9.467 110.374  0.00  0.00     0.099 H 
ENDROOT
BRANCH   1   3
ATOM      3  N   LSW d          40.858   8.530 111.172  0.00  0.00    -0.048 N 
ATOM      4  H1  LSW d          39.926   8.863 110.981  0.00  0.00     0.279 HD
ATOM      5  H2  LSW d          40.833   7.535 111.333  0.00  0.00     0.279 HD
BRANCH   3   6
ATOM      6  CA  LSW d          41.388   9.208 112.364  0.00  0.00     0.185 C 
ATOM      7  H3  LSW d          40.597   9.263 113.127  0.00  0.00     0.101 H 
BRANCH   6   8
ATOM      8  C   LSW d          41.836  10.627 111.999  0.00  0.00     0.204 C 
ATOM      9  O   LSW d          41.102  11.590 112.307  0.00  0.00    -0.646 OA
ATOM     10  OXT LSW d          42.927  10.788 111.410  0.00  0.00    -0.646 OA
ENDBRANCH   6   8
BRANCH   6  11
ATOM     11  CB  LSW d          42.579   8.429 112.931  0.00  0.00    -0.025 C 
ATOM     12  H4  LSW d          43.094   9.051 113.678  0.00  0.00     0.037 H 
ATOM     13  H5  LSW d          43.274   8.185 112.114  0.00  0.00     0.037 H 
BRANCH  11  14
ATOM     14  CAT LSW d          42.108   7.132 113.595  0.00  0.00    -0.039 C 
ATOM     15  H25 LSW d          42.173   6.316 112.860  0.00  0.00     0.040 H 
ATOM     16  H26 LSW d          41.062   7.258 113.912  0.00  0.00     0.040 H 
BRANCH  14  17
ATOM     17  CBD LSW d          42.949   6.757 114.820  0.00  0.00    -0.058 A 
ATOM     18  CAL LSW d          44.266   7.194 114.911  0.00  0.00    -0.077 A 
ATOM     19  CAH LSW d          45.022   6.910 116.043  0.00  0.00    -0.082 A 
ATOM     20  H14 LSW d          44.706   7.757 114.096  0.00  0.00     0.084 H 
ATOM     21  CAG LSW d          44.460   6.185 117.088  0.00  0.00    -0.083 A 
ATOM     22  H10 LSW d          46.047   7.254 116.111  0.00  0.00     0.083 H 
ATOM     23  CAI LSW d          43.144   5.745 116.998  0.00  0.00    -0.082 A 
ATOM     24  H9  LSW d          45.048   5.964 117.972  0.00  0.00     0.083 H 
ATOM     25  CAM LSW d          42.389   6.031 115.865  0.00  0.00    -0.077 A 
ATOM     26  H11 LSW d          42.706   5.178 117.812  0.00  0.00     0.083 H 
ATOM     27  H15 LSW d          41.364   5.687 115.797  0.00  0.00     0.084 H 
ENDBRANCH  14  17
ENDBRANCH  11  14
ENDBRANCH   6  11
ENDBRANCH   3   6
ENDBRANCH   1   3
BRANCH   1  28
ATOM     28  CAU LSW d          42.327   7.517 109.471  0.00  0.00    -0.030 C 
ATOM     29  H27 LSW d          43.229   7.286 110.055  0.00  0.00     0.036 H 
ATOM     30  H28 LSW d          41.584   6.718 109.612  0.00  0.00     0.036 H 
BRANCH  28  31
ATOM     31  CAS LSW d          42.724   7.533 107.978  0.00  0.00    -0.061 C 
ATOM     32  H23 LSW d          42.609   8.552 107.580  0.00  0.00     0.033 H 
ATOM     33  H24 LSW d          43.772   7.215 107.875  0.00  0.00     0.033 H 
BRANCH  31  34
ATOM     34  CAR LSW d          41.813   6.567 107.189  0.00  0.00    -0.043 C 
ATOM     35  H21 LSW d          41.219   7.153 106.472  0.00  0.00     0.035 H 
ATOM     36  H22 LSW d          42.449   5.856 106.641  0.00  0.00     0.035 H 
BRANCH  34  37
ATOM     37  CAQ LSW d          40.850   5.771 108.087  0.00  0.00     0.080 C 
ATOM     38  H19 LSW d          40.912   4.706 107.821  0.00  0.00     0.075 H 
ATOM     39  H20 LSW d          41.149   5.906 109.137  0.00  0.00     0.075 H 
BRANCH  37  40
ATOM     40  NAA LSW d          39.433   6.232 107.922  0.00  0.00    -0.079 N 
ATOM     41  H6  LSW d          38.927   5.567 107.358  0.00  0.00     0.274 HD
ATOM     42  H7  LSW d          39.423   7.132 107.469  0.00  0.00     0.274 HD
ATOM     43  H8  LSW d          38.997   6.306 108.827  0.00  0.00     0.274 HD
ENDBRANCH  37  40
ENDBRANCH  34  37
ENDBRANCH  31  34
ENDBRANCH  28  31
ENDBRANCH   1  28
BRANCH   1  44
ATOM     44  CBC LSW d          40.950   9.556 108.935  0.00  0.00     0.249 C 
ATOM     45  OAD LSW d          39.860   9.123 108.561  0.00  0.00    -0.271 OA
ATOM     46  NAX LSW d          41.487  10.670 108.428  0.00  0.00    -0.344 N 
ATOM     47  H31 LSW d          42.358  11.012 108.782  0.00  0.00     0.163 HD
BRANCH  46  48
ATOM     48  CBJ LSW d          40.798  11.393 107.351  0.00  0.00     0.100 C 
ATOM     49  H33 LSW d          39.727  11.147 107.401  0.00  0.00     0.090 H 
BRANCH  48  50
ATOM     50  CAW LSW d          40.959  12.917 107.473  0.00  0.00    -0.011 C 
ATOM     51  H29 LSW d          41.671  13.244 106.701  0.00  0.00     0.044 H 
ATOM     52  H30 LSW d          39.976  13.376 107.285  0.00  0.00     0.044 H 
BRANCH  50  53
ATOM     53  CBE LSW d          41.447  13.412 108.780  0.00  0.00    -0.028 A 
ATOM     54  CAP LSW d          40.696  13.953 109.793  0.00  0.00    -0.015 A 
ATOM     55  NXZ LSW d          41.532  14.331 110.845  0.00  0.00    -0.365 N 
ATOM     56  H18 LSW d          39.613  14.070 109.778  0.00  0.00     0.112 H 
ATOM     57  CBF LSW d          42.826  14.030 110.508  0.00  0.00     0.042 A 
ATOM     58  H34 LSW d          41.227  14.765 111.728  0.00  0.00     0.165 HD
ATOM     59  CAN LSW d          44.007  14.221 111.228  0.00  0.00    -0.056 A 
ATOM     60  CBG LSW d          42.811  13.446 109.217  0.00  0.00    -0.002 A 
ATOM     61  CAJ LSW d          45.183  13.821 110.640  0.00  0.00    -0.081 A 
ATOM     62  H16 LSW d          43.997  14.669 112.215  0.00  0.00     0.086 H 
ATOM     63  CAK LSW d          45.204  13.233 109.358  0.00  0.00    -0.082 A 
ATOM     64  H12 LSW d          46.116  13.959 111.174  0.00  0.00     0.083 H 
ATOM     65  CAO LSW d          44.024  13.041 108.641  0.00  0.00    -0.070 A 
ATOM     66  H13 LSW d          46.149  12.926 108.925  0.00  0.00     0.083 H 
ATOM     67  H17 LSW d          44.043  12.587 107.656  0.00  0.00     0.084 H 
ENDBRANCH  50  53
ENDBRANCH  48  50
BRANCH  48  68
ATOM     68  CBB LSW d          41.349  10.961 105.986  0.00  0.00     0.197 C 
ATOM     69  OAC LSW d          42.276  11.631 105.465  0.00  0.00    -0.646 OA
ATOM     70  OAF LSW d          40.863   9.936 105.460  0.00  0.00    -0.646 OA
ENDBRANCH  48  68
ENDBRANCH  46  48
ENDBRANCH   1  44
TORSDOF 16
ENDMDL
MODEL 6
REMARK VINA RESULT:      -7.1      2.354      8.608
REMARK  16 active torsions:
REMARK  status: ('A' for Active; 'I' for Inactive)
REMARK    1  A    between atoms: CA_4  and  C_1 
REMARK    2  A    between atoms: N_2  and  CA_4 
REMARK    3  A    between atoms: CBI_33  and  N_2 
REMARK    4  A    between atoms: CA_4  and  CB_5 
REMARK    5  A    between atoms: CB_5  and  CAT_23 
REMARK    6  A    between atoms: CAQ_20  and  NAA_6 
REMARK    7  A    between atoms: CAR_21  and  CAQ_20 
REMARK    8  A    between atoms: CAS_22  and  CAR_21 
REMARK    9  A    between atoms: CAU_24  and  CAS_22 
REMARK   10  A    between atoms: CAT_23  and  CBD_29 
REMARK   11  A    between atoms: CBI_33  and  CAU_24 
REMARK   12  A    between atoms: CBE_30  and  CAW_25 
REMARK   13  A    between atoms: CAW_25  and  CBJ_34 
REMARK       I    between atoms: NAX_26  and  CBC_28 
REMARK   14  A    between atoms: CBJ_34  and  NAX_26 
REMARK   15  A    between atoms: CBJ_34  and  CBB_27 
REMARK   16  A    between atoms: CBC_28  and  CBI_33 
ROOT
ATOM      1  CBI LSW d          40.097   8.240 108.778  0.00  0.00     0.179 C 
ATOM      2  H32 LSW d          40.318   9.174 108.240  0.00  0.00     0.099 H 
ENDROOT
BRANCH   1   3
ATOM      3  N   LSW d          41.009   7.203 108.300  0.00  0.00    -0.048 N 
ATOM      4  H1  LSW d          41.488   6.787 109.083  0.00  0.00     0.279 HD
ATOM      5  H2  LSW d          40.486   6.493 107.810  0.00  0.00     0.279 HD
BRANCH   3   6
ATOM      6  CA  LSW d          41.989   7.808 107.387  0.00  0.00     0.185 C 
ATOM      7  H3  LSW d          41.978   7.259 106.433  0.00  0.00     0.101 H 
BRANCH   6   8
ATOM      8  C   LSW d          43.391   7.724 108.000  0.00  0.00     0.204 C 
ATOM      9  O   LSW d          43.523   7.228 109.140  0.00  0.00    -0.646 OA
ATOM     10  OXT LSW d          44.368   8.144 107.344  0.00  0.00    -0.646 OA
ENDBRANCH   6   8
BRANCH   6  11
ATOM     11  CB  LSW d          41.635   9.275 107.125  0.00  0.00    -0.025 C 
ATOM     12  H4  LSW d          40.558   9.422 107.293  0.00  0.00     0.037 H 
ATOM     13  H5  LSW d          41.881   9.525 106.082  0.00  0.00     0.037 H 
BRANCH  11  14
ATOM     14  CAT LSW d          42.422  10.195 108.061  0.00  0.00    -0.039 C 
ATOM     15  H25 LSW d          43.487  10.147 107.790  0.00  0.00     0.040 H 
ATOM     16  H26 LSW d          42.290   9.842 109.095  0.00  0.00     0.040 H 
BRANCH  14  17
ATOM     17  CBD LSW d          41.961  11.654 107.980  0.00  0.00    -0.058 A 
ATOM     18  CAL LSW d          41.247  12.211 109.036  0.00  0.00    -0.077 A 
ATOM     19  CAH LSW d          40.874  13.550 109.000  0.00  0.00    -0.082 A 
ATOM     20  H14 LSW d          40.981  11.599 109.890  0.00  0.00     0.084 H 
ATOM     21  CAG LSW d          41.212  14.336 107.904  0.00  0.00    -0.083 A 
ATOM     22  H10 LSW d          40.319  13.980 109.826  0.00  0.00     0.083 H 
ATOM     23  CAI LSW d          41.923  13.780 106.846  0.00  0.00    -0.082 A 
ATOM     24  H9  LSW d          40.922  15.380 107.875  0.00  0.00     0.083 H 
ATOM     25  CAM LSW d          42.297  12.441 106.884  0.00  0.00    -0.077 A 
ATOM     26  H11 LSW d          42.186  14.391 105.990  0.00  0.00     0.083 H 
ATOM     27  H15 LSW d          42.851  12.010 106.058  0.00  0.00     0.084 H 
ENDBRANCH  14  17
ENDBRANCH  11  14
ENDBRANCH   6  11
ENDBRANCH   3   6
ENDBRANCH   1   3
BRANCH   1  28
ATOM     28  CAU LSW d          38.636   7.843 108.491  0.00  0.00    -0.030 C 
ATOM     29  H27 LSW d          38.417   6.932 109.068  0.00  0.00     0.036 H 
ATOM     30  H28 LSW d          37.991   8.663 108.840  0.00  0.00     0.036 H 
BRANCH  28  31
ATOM     31  CAS LSW d          38.281   7.561 107.014  0.00  0.00    -0.061 C 
ATOM     32  H23 LSW d          39.143   7.094 106.514  0.00  0.00     0.033 H 
ATOM     33  H24 LSW d          37.418   6.880 106.969  0.00  0.00     0.033 H 
BRANCH  31  34
ATOM     34  CAR LSW d          37.928   8.886 106.303  0.00  0.00    -0.043 C 
ATOM     35  H21 LSW d          38.675   9.071 105.517  0.00  0.00     0.035 H 
ATOM     36  H22 LSW d          36.933   8.783 105.845  0.00  0.00     0.035 H 
BRANCH  34  37
ATOM     37  CAQ LSW d          37.907  10.096 107.253  0.00  0.00     0.080 C 
ATOM     38  H19 LSW d          36.862  10.376 107.451  0.00  0.00     0.075 H 
ATOM     39  H20 LSW d          38.399   9.818 108.196  0.00  0.00     0.075 H 
BRANCH  37  40
ATOM     40  NAA LSW d          38.621  11.274 106.661  0.00  0.00    -0.079 N 
ATOM     41  H6  LSW d          38.229  11.485 105.757  0.00  0.00     0.274 HD
ATOM     42  H7  LSW d          39.601  11.058 106.561  0.00  0.00     0.274 HD
ATOM     43  H8  LSW d          38.514  12.071 107.269  0.00  0.00     0.274 HD
ENDBRANCH  37  40
ENDBRANCH  34  37
ENDBRANCH  31  34
ENDBRANCH  28  31
ENDBRANCH   1  28
BRANCH   1  44
ATOM     44  CBC LSW d          40.291   8.483 110.277  0.00  0.00     0.249 C 
ATOM     45  OAD LSW d          39.393   9.014 110.932  0.00  0.00    -0.271 OA
ATOM     46  NAX LSW d          41.441   8.087 110.832  0.00  0.00    -0.344 N 
ATOM     47  H31 LSW d          42.132   7.627 110.276  0.00  0.00     0.163 HD
BRANCH  46  48
ATOM     48  CBJ LSW d          41.688   8.329 112.260  0.00  0.00     0.100 C 
ATOM     49  H33 LSW d          40.798   8.011 112.822  0.00  0.00     0.090 H 
BRANCH  48  50
ATOM     50  CAW LSW d          42.905   7.549 112.783  0.00  0.00    -0.011 C 
ATOM     51  H29 LSW d          43.063   6.686 112.120  0.00  0.00     0.044 H 
ATOM     52  H30 LSW d          43.779   8.216 112.732  0.00  0.00     0.044 H 
BRANCH  50  53
ATOM     53  CBE LSW d          42.800   7.043 114.170  0.00  0.00    -0.028 A 
ATOM     54  CAP LSW d          41.653   6.687 114.835  0.00  0.00    -0.015 A 
ATOM     55  NXZ LSW d          41.970   6.296 116.137  0.00  0.00    -0.365 N 
ATOM     56  H18 LSW d          40.650   6.706 114.412  0.00  0.00     0.112 H 
ATOM     57  CBF LSW d          43.327   6.400 116.309  0.00  0.00     0.042 A 
ATOM     58  H34 LSW d          41.297   5.981 116.851  0.00  0.00     0.165 HD
ATOM     59  CAN LSW d          44.111   6.126 117.432  0.00  0.00    -0.056 A 
ATOM     60  CBG LSW d          43.882   6.863 115.091  0.00  0.00    -0.002 A 
ATOM     61  CAJ LSW d          45.467   6.322 117.324  0.00  0.00    -0.081 A 
ATOM     62  H16 LSW d          43.666   5.771 118.355  0.00  0.00     0.086 H 
ATOM     63  CAK LSW d          46.053   6.779 116.125  0.00  0.00    -0.082 A 
ATOM     64  H12 LSW d          46.100   6.121 118.180  0.00  0.00     0.083 H 
ATOM     65  CAO LSW d          45.269   7.051 115.005  0.00  0.00    -0.070 A 
ATOM     66  H13 LSW d          47.127   6.922 116.074  0.00  0.00     0.083 H 
ATOM     67  H17 LSW d          45.723   7.400 114.084  0.00  0.00     0.084 H 
ENDBRANCH  50  53
ENDBRANCH  48  50
BRANCH  48  68
ATOM     68  CBB LSW d          41.932   9.823 112.510  0.00  0.00     0.197 C 
ATOM     69  OAC LSW d          42.596  10.479 111.669  0.00  0.00    -0.646 OA
ATOM     70  OAF LSW d          41.432  10.330 113.538  0.00  0.00    -0.646 OA
ENDBRANCH  48  68
ENDBRANCH  46  48
ENDBRANCH   1  44
TORSDOF 16
ENDMDL
MODEL 7
REMARK VINA RESULT:      -7.0      2.403      5.675
REMARK  16 active torsions:
REMARK  status: ('A' for Active; 'I' for Inactive)
REMARK    1  A    between atoms: CA_4  and  C_1 
REMARK    2  A    between atoms: N_2  and  CA_4 
REMARK    3  A    between atoms: CBI_33  and  N_2 
REMARK    4  A    between atoms: CA_4  and  CB_5 
REMARK    5  A    between atoms: CB_5  and  CAT_23 
REMARK    6  A    between atoms: CAQ_20  and  NAA_6 
REMARK    7  A    between atoms: CAR_21  and  CAQ_20 
REMARK    8  A    between atoms: CAS_22  and  CAR_21 
REMARK    9  A    between atoms: CAU_24  and  CAS_22 
REMARK   10  A    between atoms: CAT_23  and  CBD_29 
REMARK   11  A    between atoms: CBI_33  and  CAU_24 
REMARK   12  A    between atoms: CBE_30  and  CAW_25 
REMARK   13  A    between atoms: CAW_25  and  CBJ_34 
REMARK       I    between atoms: NAX_26  and  CBC_28 
REMARK   14  A    between atoms: CBJ_34  and  NAX_26 
REMARK   15  A    between atoms: CBJ_34  and  CBB_27 
REMARK   16  A    between atoms: CBC_28  and  CBI_33 
ROOT
ATOM      1  CBI LSW d          41.892   8.620 109.544  0.00  0.00     0.179 C 
ATOM      2  H32 LSW d          42.880   8.759 110.007  0.00  0.00     0.099 H 
ENDROOT
BRANCH   1   3
ATOM      3  N   LSW d          40.941   8.239 110.588  0.00  0.00    -0.048 N 
ATOM      4  H1  LSW d          40.101   8.788 110.495  0.00  0.00     0.279 HD
ATOM      5  H2  LSW d          40.715   7.261 110.498  0.00  0.00     0.279 HD
BRANCH   3   6
ATOM      6  CA  LSW d          41.548   8.485 111.904  0.00  0.00     0.185 C 
ATOM      7  H3  LSW d          40.797   8.296 112.685  0.00  0.00     0.101 H 
BRANCH   6   8
ATOM      8  C   LSW d          42.015   9.941 111.996  0.00  0.00     0.204 C 
ATOM      9  O   LSW d          43.092  10.266 111.449  0.00  0.00    -0.646 OA
ATOM     10  OXT LSW d          41.307  10.771 112.607  0.00  0.00    -0.646 OA
ENDBRANCH   6   8
BRANCH   6  11
ATOM     11  CB  LSW d          42.743   7.552 112.120  0.00  0.00    -0.025 C 
ATOM     12  H4  LSW d          43.347   7.520 111.201  0.00  0.00     0.037 H 
ATOM     13  H5  LSW d          42.375   6.542 112.353  0.00  0.00     0.037 H 
BRANCH  11  14
ATOM     14  CAT LSW d          43.613   8.050 113.277  0.00  0.00    -0.039 C 
ATOM     15  H25 LSW d          43.298   9.071 113.541  0.00  0.00     0.040 H 
ATOM     16  H26 LSW d          44.663   8.063 112.947  0.00  0.00     0.040 H 
BRANCH  14  17
ATOM     17  CBD LSW d          43.502   7.165 114.522  0.00  0.00    -0.058 A 
ATOM     18  CAL LSW d          44.595   7.031 115.372  0.00  0.00    -0.077 A 
ATOM     19  CAH LSW d          44.490   6.279 116.537  0.00  0.00    -0.082 A 
ATOM     20  H14 LSW d          45.533   7.516 115.126  0.00  0.00     0.084 H 
ATOM     21  CAG LSW d          43.288   5.655 116.853  0.00  0.00    -0.083 A 
ATOM     22  H10 LSW d          45.343   6.179 117.197  0.00  0.00     0.083 H 
ATOM     23  CAI LSW d          42.195   5.785 116.003  0.00  0.00    -0.082 A 
ATOM     24  H9  LSW d          43.204   5.069 117.761  0.00  0.00     0.083 H 
ATOM     25  CAM LSW d          42.302   6.539 114.840  0.00  0.00    -0.077 A 
ATOM     26  H11 LSW d          41.258   5.298 116.248  0.00  0.00     0.083 H 
ATOM     27  H15 LSW d          41.449   6.639 114.178  0.00  0.00     0.084 H 
ENDBRANCH  14  17
ENDBRANCH  11  14
ENDBRANCH   6  11
ENDBRANCH   3   6
ENDBRANCH   1   3
BRANCH   1  28
ATOM     28  CAU LSW d          41.998   7.506 108.484  0.00  0.00    -0.030 C 
ATOM     29  H27 LSW d          42.026   7.986 107.495  0.00  0.00     0.036 H 
ATOM     30  H28 LSW d          42.941   6.967 108.658  0.00  0.00     0.036 H 
BRANCH  28  31
ATOM     31  CAS LSW d          40.857   6.465 108.469  0.00  0.00    -0.061 C 
ATOM     32  H23 LSW d          41.286   5.452 108.442  0.00  0.00     0.033 H 
ATOM     33  H24 LSW d          40.245   6.579 109.376  0.00  0.00     0.033 H 
BRANCH  31  34
ATOM     34  CAR LSW d          39.973   6.682 107.221  0.00  0.00    -0.043 C 
ATOM     35  H21 LSW d          40.616   7.000 106.388  0.00  0.00     0.035 H 
ATOM     36  H22 LSW d          39.487   5.729 106.966  0.00  0.00     0.035 H 
BRANCH  34  37
ATOM     37  CAQ LSW d          38.882   7.747 107.429  0.00  0.00     0.080 C 
ATOM     38  H19 LSW d          39.322   8.613 107.947  0.00  0.00     0.075 H 
ATOM     39  H20 LSW d          38.499   8.062 106.448  0.00  0.00     0.075 H 
BRANCH  37  40
ATOM     40  NAA LSW d          37.743   7.219 108.248  0.00  0.00    -0.079 N 
ATOM     41  H6  LSW d          36.876   7.595 107.900  0.00  0.00     0.274 HD
ATOM     42  H7  LSW d          37.866   7.493 109.210  0.00  0.00     0.274 HD
ATOM     43  H8  LSW d          37.723   6.213 108.185  0.00  0.00     0.274 HD
ENDBRANCH  37  40
ENDBRANCH  34  37
ENDBRANCH  31  34
ENDBRANCH  28  31
ENDBRANCH   1  28
BRANCH   1  44
ATOM     44  CBC LSW d          41.473   9.936 108.884  0.00  0.00     0.249 C 
ATOM     45  OAD LSW d          40.285  10.260 108.864  0.00  0.00    -0.271 OA
ATOM     46  NAX LSW d          42.431  10.706 108.359  0.00  0.00    -0.344 N 
ATOM     47  H31 LSW d          43.389  10.428 108.426  0.00  0.00     0.163 HD
BRANCH  46  48
ATOM     48  CBJ LSW d          42.077  11.963 107.686  0.00  0.00     0.100 C 
ATOM     49  H33 LSW d          41.086  12.278 108.044  0.00  0.00     0.090 H 
BRANCH  48  50
ATOM     50  CAW LSW d          43.084  13.086 107.974  0.00  0.00    -0.011 C 
ATOM     51  H29 LSW d          44.033  12.823 107.483  0.00  0.00     0.044 H 
ATOM     52  H30 LSW d          42.689  14.015 107.535  0.00  0.00     0.044 H 
BRANCH  50  53
ATOM     53  CBE LSW d          43.370  13.346 109.404  0.00  0.00    -0.028 A 
ATOM     54  CAP LSW d          44.594  13.304 110.023  0.00  0.00    -0.015 A 
ATOM     55  NXZ LSW d          44.439  13.572 111.384  0.00  0.00    -0.365 N 
ATOM     56  H18 LSW d          45.541  13.096 109.528  0.00  0.00     0.112 H 
ATOM     57  CBF LSW d          43.109  13.787 111.641  0.00  0.00     0.042 A 
ATOM     58  H34 LSW d          45.197  13.602 112.081  0.00  0.00     0.165 HD
ATOM     59  CAN LSW d          42.465  14.085 112.844  0.00  0.00    -0.056 A 
ATOM     60  CBG LSW d          42.407  13.657 110.417  0.00  0.00    -0.002 A 
ATOM     61  CAJ LSW d          41.102  14.252 112.812  0.00  0.00    -0.081 A 
ATOM     62  H16 LSW d          43.022  14.181 113.770  0.00  0.00     0.086 H 
ATOM     63  CAK LSW d          40.372  14.133 111.611  0.00  0.00    -0.082 A 
ATOM     64  H12 LSW d          40.575  14.481 113.731  0.00  0.00     0.083 H 
ATOM     65  CAO LSW d          41.016  13.837 110.410  0.00  0.00    -0.070 A 
ATOM     66  H13 LSW d          39.297  14.273 111.621  0.00  0.00     0.083 H 
ATOM     67  H17 LSW d          40.452  13.748 109.488  0.00  0.00     0.084 H 
ENDBRANCH  50  53
ENDBRANCH  48  50
BRANCH  48  68
ATOM     68  CBB LSW d          42.017  11.751 106.167  0.00  0.00     0.197 C 
ATOM     69  OAC LSW d          41.218  10.898 105.704  0.00  0.00    -0.646 OA
ATOM     70  OAF LSW d          42.756  12.460 105.451  0.00  0.00    -0.646 OA
ENDBRANCH  48  68
ENDBRANCH  46  48
ENDBRANCH   1  44
TORSDOF 16
ENDMDL
MODEL 8
REMARK VINA RESULT:      -6.7      1.990      9.068
REMARK  16 active torsions:
REMARK  status: ('A' for Active; 'I' for Inactive)
REMARK    1  A    between atoms: CA_4  and  C_1 
REMARK    2  A    between atoms: N_2  and  CA_4 
REMARK    3  A    between atoms: CBI_33  and  N_2 
REMARK    4  A    between atoms: CA_4  and  CB_5 
REMARK    5  A    between atoms: CB_5  and  CAT_23 
REMARK    6  A    between atoms: CAQ_20  and  NAA_6 
REMARK    7  A    between atoms: CAR_21  and  CAQ_20 
REMARK    8  A    between atoms: CAS_22  and  CAR_21 
REMARK    9  A    between atoms: CAU_24  and  CAS_22 
REMARK   10  A    between atoms: CAT_23  and  CBD_29 
REMARK   11  A    between atoms: CBI_33  and  CAU_24 
REMARK   12  A    between atoms: CBE_30  and  CAW_25 
REMARK   13  A    between atoms: CAW_25  and  CBJ_34 
REMARK       I    between atoms: NAX_26  and  CBC_28 
REMARK   14  A    between atoms: CBJ_34  and  NAX_26 
REMARK   15  A    between atoms: CBJ_34  and  CBB_27 
REMARK   16  A    between atoms: CBC_28  and  CBI_33 
ROOT
ATOM      1  CBI LSW d          42.448   7.951 111.724  0.00  0.00     0.179 C 
ATOM      2  H32 LSW d          41.447   8.407 111.731  0.00  0.00     0.099 H 
ENDROOT
BRANCH   1   3
ATOM      3  N   LSW d          43.438   9.013 111.551  0.00  0.00    -0.048 N 
ATOM      4  H1  LSW d          43.263   9.750 112.216  0.00  0.00     0.279 HD
ATOM      5  H2  LSW d          44.363   8.639 111.699  0.00  0.00     0.279 HD
BRANCH   3   6
ATOM      6  CA  LSW d          43.336   9.548 110.186  0.00  0.00     0.185 C 
ATOM      7  H3  LSW d          42.537   9.014 109.651  0.00  0.00     0.101 H 
BRANCH   6   8
ATOM      8  C   LSW d          44.662   9.341 109.447  0.00  0.00     0.204 C 
ATOM      9  O   LSW d          45.042   8.176 109.201  0.00  0.00    -0.646 OA
ATOM     10  OXT LSW d          45.328  10.342 109.100  0.00  0.00    -0.646 OA
ENDBRANCH   6   8
BRANCH   6  11
ATOM     11  CB  LSW d          43.003  11.042 110.225  0.00  0.00    -0.025 C 
ATOM     12  H4  LSW d          43.938  11.621 110.219  0.00  0.00     0.037 H 
ATOM     13  H5  LSW d          42.440  11.263 111.144  0.00  0.00     0.037 H 
BRANCH  11  14
ATOM     14  CAT LSW d          42.158  11.439 109.011  0.00  0.00    -0.039 C 
ATOM     15  H25 LSW d          42.729  11.213 108.097  0.00  0.00     0.040 H 
ATOM     16  H26 LSW d          41.956  12.519 109.060  0.00  0.00     0.040 H 
BRANCH  14  17
ATOM     17  CBD LSW d          40.822  10.692 108.952  0.00  0.00    -0.058 A 
ATOM     18  CAL LSW d          40.172  10.538 107.732  0.00  0.00    -0.077 A 
ATOM     19  CAH LSW d          38.989   9.812 107.654  0.00  0.00    -0.082 A 
ATOM     20  H14 LSW d          40.590  10.986 106.837  0.00  0.00     0.084 H 
ATOM     21  CAG LSW d          38.450   9.239 108.801  0.00  0.00    -0.083 A 
ATOM     22  H10 LSW d          38.487   9.693 106.701  0.00  0.00     0.083 H 
ATOM     23  CAI LSW d          39.097   9.394 110.023  0.00  0.00    -0.082 A 
ATOM     24  H9  LSW d          37.528   8.672 108.743  0.00  0.00     0.083 H 
ATOM     25  CAM LSW d          40.281  10.120 110.098  0.00  0.00    -0.077 A 
ATOM     26  H11 LSW d          38.677   8.949 110.918  0.00  0.00     0.083 H 
ATOM     27  H15 LSW d          40.784  10.240 111.051  0.00  0.00     0.084 H 
ENDBRANCH  14  17
ENDBRANCH  11  14
ENDBRANCH   6  11
ENDBRANCH   3   6
ENDBRANCH   1   3
BRANCH   1  28
ATOM     28  CAU LSW d          42.525   6.952 110.554  0.00  0.00    -0.030 C 
ATOM     29  H27 LSW d          43.372   7.246 109.917  0.00  0.00     0.036 H 
ATOM     30  H28 LSW d          42.713   5.954 110.977  0.00  0.00     0.036 H 
BRANCH  28  31
ATOM     31  CAS LSW d          41.273   6.853 109.655  0.00  0.00    -0.061 C 
ATOM     32  H23 LSW d          40.748   5.908 109.862  0.00  0.00     0.033 H 
ATOM     33  H24 LSW d          40.602   7.698 109.867  0.00  0.00     0.033 H 
BRANCH  31  34
ATOM     34  CAR LSW d          41.696   6.891 108.170  0.00  0.00    -0.043 C 
ATOM     35  H21 LSW d          42.127   7.879 107.954  0.00  0.00     0.035 H 
ATOM     36  H22 LSW d          42.458   6.115 108.004  0.00  0.00     0.035 H 
BRANCH  34  37
ATOM     37  CAQ LSW d          40.527   6.644 107.200  0.00  0.00     0.080 C 
ATOM     38  H19 LSW d          40.322   7.573 106.646  0.00  0.00     0.075 H 
ATOM     39  H20 LSW d          40.812   5.851 106.493  0.00  0.00     0.075 H 
BRANCH  37  40
ATOM     40  NAA LSW d          39.285   6.226 107.927  0.00  0.00    -0.079 N 
ATOM     41  H6  LSW d          38.970   5.338 107.569  0.00  0.00     0.274 HD
ATOM     42  H7  LSW d          38.566   6.918 107.789  0.00  0.00     0.274 HD
ATOM     43  H8  LSW d          39.485   6.140 108.911  0.00  0.00     0.274 HD
ENDBRANCH  37  40
ENDBRANCH  34  37
ENDBRANCH  31  34
ENDBRANCH  28  31
ENDBRANCH   1  28
BRANCH   1  44
ATOM     44  CBC LSW d          42.661   7.223 113.053  0.00  0.00     0.249 C 
ATOM     45  OAD LSW d          42.471   6.008 113.122  0.00  0.00    -0.271 OA
ATOM     46  NAX LSW d          43.070   7.942 114.104  0.00  0.00    -0.344 N 
ATOM     47  H31 LSW d          43.249   8.920 114.001  0.00  0.00     0.163 HD
BRANCH  46  48
ATOM     48  CBJ LSW d          43.257   7.294 115.409  0.00  0.00     0.100 C 
ATOM     49  H33 LSW d          42.746   7.902 116.171  0.00  0.00     0.090 H 
BRANCH  48  50
ATOM     50  CAW LSW d          42.677   5.872 115.444  0.00  0.00    -0.011 C 
ATOM     51  H29 LSW d          41.623   5.929 115.133  0.00  0.00     0.044 H 
ATOM     52  H30 LSW d          43.239   5.260 114.723  0.00  0.00     0.044 H 
BRANCH  50  53
ATOM     53  CBE LSW d          42.726   5.187 116.756  0.00  0.00    -0.028 A 
ATOM     54  CAP LSW d          41.783   5.241 117.753  0.00  0.00    -0.015 A 
ATOM     55  NXZ LSW d          42.215   4.489 118.846  0.00  0.00    -0.365 N 
ATOM     56  H18 LSW d          40.842   5.787 117.698  0.00  0.00     0.112 H 
ATOM     57  CBF LSW d          43.440   3.948 118.551  0.00  0.00     0.042 A 
ATOM     58  H34 LSW d          41.700   4.362 119.729  0.00  0.00     0.165 HD
ATOM     59  CAN LSW d          44.268   3.130 119.323  0.00  0.00    -0.056 A 
ATOM     60  CBG LSW d          43.791   4.362 117.243  0.00  0.00    -0.002 A 
ATOM     61  CAJ LSW d          45.460   2.728 118.771  0.00  0.00    -0.081 A 
ATOM     62  H16 LSW d          43.980   2.823 120.323  0.00  0.00     0.086 H 
ATOM     63  CAK LSW d          45.839   3.120 117.469  0.00  0.00    -0.082 A 
ATOM     64  H12 LSW d          46.124   2.096 119.347  0.00  0.00     0.083 H 
ATOM     65  CAO LSW d          45.011   3.935 116.699  0.00  0.00    -0.070 A 
ATOM     66  H13 LSW d          46.786   2.783 117.063  0.00  0.00     0.083 H 
ATOM     67  H17 LSW d          45.304   4.232 115.698  0.00  0.00     0.084 H 
ENDBRANCH  50  53
ENDBRANCH  48  50
BRANCH  48  68
ATOM     68  CBB LSW d          44.750   7.212 115.750  0.00  0.00     0.197 C 
ATOM     69  OAC LSW d          45.135   7.585 116.887  0.00  0.00    -0.646 OA
ATOM     70  OAF LSW d          45.521   6.750 114.881  0.00  0.00    -0.646 OA
ENDBRANCH  48  68
ENDBRANCH  46  48
ENDBRANCH   1  44
TORSDOF 16
ENDMDL
MODEL 9
REMARK VINA RESULT:      -6.1      1.606      2.291
REMARK  16 active torsions:
REMARK  status: ('A' for Active; 'I' for Inactive)
REMARK    1  A    between atoms: CA_4  and  C_1 
REMARK    2  A    between atoms: N_2  and  CA_4 
REMARK    3  A    between atoms: CBI_33  and  N_2 
REMARK    4  A    between atoms: CA_4  and  CB_5 
REMARK    5  A    between atoms: CB_5  and  CAT_23 
REMARK    6  A    between atoms: CAQ_20  and  NAA_6 
REMARK    7  A    between atoms: CAR_21  and  CAQ_20 
REMARK    8  A    between atoms: CAS_22  and  CAR_21 
REMARK    9  A    between atoms: CAU_24  and  CAS_22 
REMARK   10  A    between atoms: CAT_23  and  CBD_29 
REMARK   11  A    between atoms: CBI_33  and  CAU_24 
REMARK   12  A    between atoms: CBE_30  and  CAW_25 
REMARK   13  A    between atoms: CAW_25  and  CBJ_34 
REMARK       I    between atoms: NAX_26  and  CBC_28 
REMARK   14  A    between atoms: CBJ_34  and  NAX_26 
REMARK   15  A    between atoms: CBJ_34  and  CBB_27 
REMARK   16  A    between atoms: CBC_28  and  CBI_33 
ROOT
ATOM      1  CBI LSW d          41.705   8.376 112.642  0.00  0.00     0.179 C 
ATOM      2  H32 LSW d          41.000   7.581 112.929  0.00  0.00     0.099 H 
ENDROOT
BRANCH   1   3
ATOM      3  N   LSW d          42.642   8.584 113.744  0.00  0.00    -0.048 N 
ATOM      4  H1  LSW d          43.282   9.326 113.509  0.00  0.00     0.279 HD
ATOM      5  H2  LSW d          42.133   8.831 114.579  0.00  0.00     0.279 HD
BRANCH   3   6
ATOM      6  CA  LSW d          43.394   7.342 113.977  0.00  0.00     0.185 C 
ATOM      7  H3  LSW d          43.788   6.976 113.017  0.00  0.00     0.101 H 
BRANCH   6   8
ATOM      8  C   LSW d          42.468   6.280 114.579  0.00  0.00     0.204 C 
ATOM      9  O   LSW d          42.821   5.081 114.546  0.00  0.00    -0.646 OA
ATOM     10  OXT LSW d          41.387   6.637 115.096  0.00  0.00    -0.646 OA
ENDBRANCH   6   8
BRANCH   6  11
ATOM     11  CB  LSW d          44.562   7.600 114.934  0.00  0.00    -0.025 C 
ATOM     12  H4  LSW d          44.951   8.615 114.763  0.00  0.00     0.037 H 
ATOM     13  H5  LSW d          45.357   6.864 114.740  0.00  0.00     0.037 H 
BRANCH  11  14
ATOM     14  CAT LSW d          44.105   7.475 116.390  0.00  0.00    -0.039 C 
ATOM     15  H25 LSW d          43.173   6.890 116.417  0.00  0.00     0.040 H 
ATOM     16  H26 LSW d          43.917   8.483 116.787  0.00  0.00     0.040 H 
BRANCH  14  17
ATOM     17  CBD LSW d          45.144   6.784 117.277  0.00  0.00    -0.058 A 
ATOM     18  CAL LSW d          45.958   7.547 118.108  0.00  0.00    -0.077 A 
ATOM     19  CAH LSW d          46.865   6.929 118.961  0.00  0.00    -0.082 A 
ATOM     20  H14 LSW d          45.886   8.629 118.089  0.00  0.00     0.084 H 
ATOM     21  CAG LSW d          46.962   5.542 118.985  0.00  0.00    -0.083 A 
ATOM     22  H10 LSW d          47.496   7.528 119.608  0.00  0.00     0.083 H 
ATOM     23  CAI LSW d          46.150   4.777 118.153  0.00  0.00    -0.082 A 
ATOM     24  H9  LSW d          47.667   5.058 119.650  0.00  0.00     0.083 H 
ATOM     25  CAM LSW d          45.243   5.397 117.301  0.00  0.00    -0.077 A 
ATOM     26  H11 LSW d          46.226   3.696 118.170  0.00  0.00     0.083 H 
ATOM     27  H15 LSW d          44.612   4.799 116.654  0.00  0.00     0.084 H 
ENDBRANCH  14  17
ENDBRANCH  11  14
ENDBRANCH   6  11
ENDBRANCH   3   6
ENDBRANCH   1   3
BRANCH   1  28
ATOM     28  CAU LSW d          40.907   9.665 112.367  0.00  0.00    -0.030 C 
ATOM     29  H27 LSW d          40.997   9.893 111.295  0.00  0.00     0.036 H 
ATOM     30  H28 LSW d          39.854   9.466 112.613  0.00  0.00     0.036 H 
BRANCH  28  31
ATOM     31  CAS LSW d          41.344  10.921 113.153  0.00  0.00    -0.061 C 
ATOM     32  H23 LSW d          40.680  11.060 114.019  0.00  0.00     0.033 H 
ATOM     33  H24 LSW d          42.379  10.793 113.502  0.00  0.00     0.033 H 
BRANCH  31  34
ATOM     34  CAR LSW d          41.260  12.162 112.236  0.00  0.00    -0.043 C 
ATOM     35  H21 LSW d          40.717  11.884 111.320  0.00  0.00     0.035 H 
ATOM     36  H22 LSW d          40.706  12.951 112.765  0.00  0.00     0.035 H 
BRANCH  34  37
ATOM     37  CAQ LSW d          42.639  12.716 111.838  0.00  0.00     0.080 C 
ATOM     38  H19 LSW d          42.738  13.740 112.227  0.00  0.00     0.075 H 
ATOM     39  H20 LSW d          43.420  12.078 112.278  0.00  0.00     0.075 H 
BRANCH  37  40
ATOM     40  NAA LSW d          42.815  12.742 110.349  0.00  0.00    -0.079 N 
ATOM     41  H6  LSW d          43.682  12.290 110.105  0.00  0.00     0.274 HD
ATOM     42  H7  LSW d          42.833  13.698 110.030  0.00  0.00     0.274 HD
ATOM     43  H8  LSW d          42.048  12.256 109.912  0.00  0.00     0.274 HD
ENDBRANCH  37  40
ENDBRANCH  34  37
ENDBRANCH  31  34
ENDBRANCH  28  31
ENDBRANCH   1  28
BRANCH   1  44
ATOM     44  CBC LSW d          42.446   7.936 111.377  0.00  0.00     0.249 C 
ATOM     45  OAD LSW d          42.519   6.740 111.095  0.00  0.00    -0.271 OA
ATOM     46  NAX LSW d          42.981   8.885 110.602  0.00  0.00    -0.344 N 
ATOM     47  H31 LSW d          42.871   9.849 110.843  0.00  0.00     0.163 HD
BRANCH  46  48
ATOM     48  CBJ LSW d          43.731   8.512 109.395  0.00  0.00     0.100 C 
ATOM     49  H33 LSW d          44.150   7.506 109.547  0.00  0.00     0.090 H 
BRANCH  48  50
ATOM     50  CAW LSW d          42.845   8.491 108.139  0.00  0.00    -0.011 C 
ATOM     51  H29 LSW d          43.463   8.808 107.285  0.00  0.00     0.044 H 
ATOM     52  H30 LSW d          42.506   7.456 107.983  0.00  0.00     0.044 H 
BRANCH  50  53
ATOM     53  CBE LSW d          41.647   9.360 108.180  0.00  0.00    -0.028 A 
ATOM     54  CAP LSW d          40.413   9.042 108.691  0.00  0.00    -0.015 A 
ATOM     55  NXZ LSW d          39.541  10.117 108.508  0.00  0.00    -0.365 N 
ATOM     56  H18 LSW d          40.154   8.098 109.167  0.00  0.00     0.112 H 
ATOM     57  CBF LSW d          40.217  11.129 107.877  0.00  0.00     0.042 A 
ATOM     58  H34 LSW d          38.552  10.144 108.798  0.00  0.00     0.165 HD
ATOM     59  CAN LSW d          39.773  12.393 107.481  0.00  0.00    -0.056 A 
ATOM     60  CBG LSW d          41.546  10.690 107.660  0.00  0.00    -0.002 A 
ATOM     61  CAJ LSW d          40.677  13.219 106.859  0.00  0.00    -0.081 A 
ATOM     62  H16 LSW d          38.751  12.710 107.659  0.00  0.00     0.086 H 
ATOM     63  CAK LSW d          42.009  12.815 106.629  0.00  0.00    -0.082 A 
ATOM     64  H12 LSW d          40.360  14.204 106.538  0.00  0.00     0.083 H 
ATOM     65  CAO LSW d          42.452  11.554 107.027  0.00  0.00    -0.070 A 
ATOM     66  H13 LSW d          42.697  13.493 106.137  0.00  0.00     0.083 H 
ATOM     67  H17 LSW d          43.477  11.247 106.850  0.00  0.00     0.084 H 
ENDBRANCH  50  53
ENDBRANCH  48  50
BRANCH  48  68
ATOM     68  CBB LSW d          44.878   9.502 109.156  0.00  0.00     0.197 C 
ATOM     69  OAC LSW d          45.877   9.126 108.492  0.00  0.00    -0.646 OA
ATOM     70  OAF LSW d          44.755  10.658 109.618  0.00  0.00    -0.646 OA
ENDBRANCH  48  68
ENDBRANCH  46  48
ENDBRANCH   1  44
TORSDOF 16
ENDMDL
