MODEL 1
REMARK VINA RESULT:      -7.0      0.000      0.000
REMARK  21 active torsions:
REMARK  status: ('A' for Active; 'I' for Inactive)
REMARK    1  A    between atoms: C12_6  and  C3_3 
REMARK    2  A    between atoms: O13_7  and  C12_6 
REMARK    3  A    between atoms: C16_8  and  O13_7 
REMARK    4  A    between atoms: C5_11  and  N11_10 
REMARK    5  A    between atoms: CA_13  and  N_12 
REMARK    6  A    between atoms: CA_13  and  CB_16 
REMARK    7  A    between atoms: C_14  and  CA_13 
REMARK       I    between atoms: N_28  and  C_14 
REMARK    8  A    between atoms: CB_16  and  CG_17 
REMARK    9  A    between atoms: CZ_22  and  OH_23 
REMARK   10  A    between atoms: OH_23  and  P_24 
REMARK   11  A    between atoms: CA_29  and  N_28 
REMARK   12  A    between atoms: CA_29  and  CB_33 
REMARK   13  A    between atoms: C_31  and  CA_29 
REMARK   14  A    between atoms: CA_29  and  CH3_30 
REMARK       I    between atoms: C_31  and  N_45 
REMARK   15  A    between atoms: CB_33  and  CG_34 
REMARK   16  A    between atoms: CZ_39  and  OH_40 
REMARK   17  A    between atoms: OH_40  and  P_41 
REMARK   18  A    between atoms: N_45  and  CA_46 
REMARK   19  A    between atoms: CA_46  and  C_47 
REMARK   20  A    between atoms: CA_46  and  CB_49 
REMARK   21  A    between atoms: CB_49  and  CG_50 
REMARK       I    between atoms: CG_50  and  ND2_52 
ROOT
ATOM      1  C   MOL d         -27.830  44.714  32.367  0.00  0.00     0.241 C 
ATOM      2  O   MOL d         -28.847  44.898  31.647  0.00  0.00    -0.271 OA
ATOM      3  N   MOL d         -27.123  45.643  32.937  0.00  0.00    -0.341 N 
ATOM      4  H17 MOL d         -26.379  45.380  33.550  0.00  0.00     0.163 HD
ENDROOT
BRANCH   1   5
ATOM      5  CA  MOL d         -27.364  43.373  32.829  0.00  0.00     0.094 C 
ATOM      6  H10 MOL d         -26.412  43.417  33.378  0.00  0.00     0.088 H 
BRANCH   5   7
ATOM      7  N   MOL d         -28.432  42.980  33.669  0.00  0.00    -0.335 N 
ATOM      8  C16 MOL d         -28.350  42.521  34.895  0.00  0.00     0.292 C 
ATOM      9  O18 MOL d         -27.352  42.972  35.727  0.00  0.00    -0.143 OA
ATOM     10  H9  MOL d         -29.352  43.062  33.285  0.00  0.00     0.164 HD
BRANCH   8  11
ATOM     11  O13 MOL d         -29.511  42.095  35.309  0.00  0.00    -0.310 OA
BRANCH  11  12
ATOM     12  C12 MOL d         -30.454  41.236  34.648  0.00  0.00     0.053 C 
ATOM     13  H5  MOL d         -31.409  41.362  35.179  0.00  0.00     0.082 H 
ATOM     14  H6  MOL d         -30.551  41.617  33.621  0.00  0.00     0.082 H 
BRANCH  12  15
ATOM     15  C3  MOL d         -30.236  39.772  34.529  0.00  0.00    -0.032 A 
ATOM     16  C2  MOL d         -30.631  38.868  35.532  0.00  0.00    -0.075 A 
ATOM     17  C1  MOL d         -30.411  37.476  35.324  0.00  0.00    -0.080 A 
ATOM     18  H2  MOL d         -31.093  39.225  36.445  0.00  0.00     0.084 H 
ATOM     19  C6  MOL d         -29.781  37.024  34.131  0.00  0.00    -0.058 A 
ATOM     20  H1  MOL d         -30.725  36.760  36.076  0.00  0.00     0.083 H 
ATOM     21  C5  MOL d         -29.383  37.955  33.153  0.00  0.00     0.026 A 
ATOM     22  H4  MOL d         -29.607  35.965  33.977  0.00  0.00     0.086 H 
ATOM     23  C4  MOL d         -29.618  39.322  33.350  0.00  0.00    -0.050 A 
ATOM     24  H3  MOL d         -29.322  40.035  32.589  0.00  0.00     0.087 H 
BRANCH  21  25
ATOM     25  N11 MOL d         -28.770  37.552  32.017  0.00  0.00    -0.399 N 
ATOM     26  H7  MOL d         -28.235  38.227  31.453  0.00  0.00     0.156 HD
ATOM     27  H8  MOL d         -28.838  36.569  31.716  0.00  0.00     0.156 HD
ENDBRANCH  21  25
ENDBRANCH  12  15
ENDBRANCH  11  12
ENDBRANCH   8  11
ENDBRANCH   5   7
BRANCH   5  28
ATOM     28  CB  MOL d         -27.223  42.475  31.566  0.00  0.00    -0.014 C 
ATOM     29  H11 MOL d         -26.844  43.089  30.735  0.00  0.00     0.043 H 
ATOM     30  H12 MOL d         -28.213  42.075  31.303  0.00  0.00     0.043 H 
BRANCH  28  31
ATOM     31  CG  MOL d         -26.266  41.308  31.791  0.00  0.00    -0.056 A 
ATOM     32  CD2 MOL d         -26.435  40.074  31.111  0.00  0.00    -0.074 A 
ATOM     33  CE2 MOL d         -25.529  39.006  31.319  0.00  0.00    -0.050 A 
ATOM     34  H14 MOL d         -27.266  39.948  30.426  0.00  0.00     0.084 H 
ATOM     35  CZ  MOL d         -24.452  39.258  32.222  0.00  0.00     0.082 A 
ATOM     36  H16 MOL d         -25.646  38.051  30.820  0.00  0.00     0.087 H 
ATOM     37  CE1 MOL d         -24.266  40.466  32.894  0.00  0.00    -0.050 A 
ATOM     38  CD1 MOL d         -25.174  41.488  32.680  0.00  0.00    -0.074 A 
ATOM     39  H15 MOL d         -23.428  40.602  33.569  0.00  0.00     0.087 H 
ATOM     40  H13 MOL d         -25.052  42.435  33.195  0.00  0.00     0.084 H 
BRANCH  35  41
ATOM     41  OH  MOL d         -23.524  38.231  32.459  0.00  0.00    -0.240 OA
BRANCH  41  42
ATOM     42  P   MOL d         -23.520  37.238  33.612  0.00  0.00     0.427 P 
ATOM     43  O3P MOL d         -22.391  36.201  33.367  0.00  0.00    -0.617 OA
ATOM     44  O2P MOL d         -23.365  37.863  34.915  0.00  0.00    -0.617 OA
ATOM     45  O1P MOL d         -24.787  36.550  33.559  0.00  0.00    -0.617 OA
ENDBRANCH  41  42
ENDBRANCH  35  41
ENDBRANCH  28  31
ENDBRANCH   5  28
ENDBRANCH   1   5
BRANCH   3  46
ATOM     46  CA  MOL d         -27.382  47.031  32.712  0.00  0.00     0.114 C 
BRANCH  46  47
ATOM     47  CB  MOL d         -26.112  47.706  33.343  0.00  0.00    -0.009 C 
ATOM     48  H21 MOL d         -25.571  48.227  32.540  0.00  0.00     0.044 H 
ATOM     49  H22 MOL d         -25.476  46.909  33.757  0.00  0.00     0.044 H 
BRANCH  47  50
ATOM     50  CG  MOL d         -26.386  48.718  34.461  0.00  0.00    -0.055 A 
ATOM     51  CD2 MOL d         -26.677  50.049  34.140  0.00  0.00    -0.074 A 
ATOM     52  CE2 MOL d         -26.952  51.022  35.139  0.00  0.00    -0.050 A 
ATOM     53  H24 MOL d         -26.694  50.347  33.098  0.00  0.00     0.084 H 
ATOM     54  CZ  MOL d         -26.913  50.570  36.464  0.00  0.00     0.082 A 
ATOM     55  H26 MOL d         -27.177  52.052  34.890  0.00  0.00     0.087 H 
ATOM     56  CE1 MOL d         -26.629  49.237  36.818  0.00  0.00    -0.050 A 
ATOM     57  CD1 MOL d         -26.361  48.302  35.817  0.00  0.00    -0.074 A 
ATOM     58  H25 MOL d         -26.618  48.938  37.860  0.00  0.00     0.087 H 
ATOM     59  H23 MOL d         -26.137  47.273  36.071  0.00  0.00     0.084 H 
BRANCH  54  60
ATOM     60  OH  MOL d         -27.179  51.534  37.456  0.00  0.00    -0.240 OA
BRANCH  60  61
ATOM     61  P   MOL d         -28.236  52.779  37.173  0.00  0.00     0.427 P 
ATOM     62  O3P MOL d         -27.488  54.005  36.773  0.00  0.00    -0.617 OA
ATOM     63  O2P MOL d         -29.138  52.405  36.058  0.00  0.00    -0.617 OA
ATOM     64  O1P MOL d         -28.916  53.001  38.463  0.00  0.00    -0.617 OA
ENDBRANCH  60  61
ENDBRANCH  54  60
ENDBRANCH  47  50
ENDBRANCH  46  47
BRANCH  46  65
ATOM     65  C   MOL d         -27.384  47.404  31.208  0.00  0.00     0.246 C 
ATOM     66  O   MOL d         -26.350  47.280  30.522  0.00  0.00    -0.271 OA
ATOM     67  N   MOL d         -28.489  47.909  30.692  0.00  0.00    -0.344 N 
ATOM     68  H27 MOL d         -29.303  48.031  31.260  0.00  0.00     0.163 HD
BRANCH  67  69
ATOM     69  CA  MOL d         -28.506  48.285  29.295  0.00  0.00     0.104 C 
ATOM     70  H28 MOL d         -27.753  47.692  28.756  0.00  0.00     0.090 H 
BRANCH  69  71
ATOM     71  C   MOL d         -28.164  49.771  29.177  0.00  0.00     0.197 C 
ATOM     72  OXT MOL d         -27.005  50.047  28.877  0.00  0.00    -0.646 OA
ATOM     73  O   MOL d         -29.037  50.671  29.394  0.00  0.00    -0.646 OA
ENDBRANCH  69  71
BRANCH  69  74
ATOM     74  CB  MOL d         -29.899  48.033  28.654  0.00  0.00     0.037 C 
ATOM     75  H29 MOL d         -29.784  48.020  27.561  0.00  0.00     0.051 H 
ATOM     76  H30 MOL d         -30.571  48.855  28.942  0.00  0.00     0.051 H 
BRANCH  74  77
ATOM     77  CG  MOL d         -30.550  46.670  29.108  0.00  0.00     0.217 C 
ATOM     78  OD1 MOL d         -30.048  45.624  28.827  0.00  0.00    -0.274 OA
ATOM     79  ND2 MOL d         -31.672  46.744  29.768  0.00  0.00    -0.370 N 
ATOM     80  H31 MOL d         -32.125  45.908  30.078  0.00  0.00     0.159 HD
ATOM     81  H32 MOL d         -32.079  47.636  29.965  0.00  0.00     0.159 HD
ENDBRANCH  74  77
ENDBRANCH  69  74
ENDBRANCH  67  69
ENDBRANCH  46  65
BRANCH  46  82
ATOM     82  CH3 MOL d         -28.522  47.535  33.638  0.00  0.00    -0.044 C 
ATOM     83  H18 MOL d         -28.817  48.551  33.337  0.00  0.00     0.031 H 
ATOM     84  H19 MOL d         -28.170  47.549  34.680  0.00  0.00     0.031 H 
ATOM     85  H20 MOL d         -29.388  46.862  33.553  0.00  0.00     0.031 H 
ENDBRANCH  46  82
ENDBRANCH   3  46
TORSDOF 21
ENDMDL
MODEL 2
REMARK VINA RESULT:      -6.4      2.901     10.684
REMARK  21 active torsions:
REMARK  status: ('A' for Active; 'I' for Inactive)
REMARK    1  A    between atoms: C12_6  and  C3_3 
REMARK    2  A    between atoms: O13_7  and  C12_6 
REMARK    3  A    between atoms: C16_8  and  O13_7 
REMARK    4  A    between atoms: C5_11  and  N11_10 
REMARK    5  A    between atoms: CA_13  and  N_12 
REMARK    6  A    between atoms: CA_13  and  CB_16 
REMARK    7  A    between atoms: C_14  and  CA_13 
REMARK       I    between atoms: N_28  and  C_14 
REMARK    8  A    between atoms: CB_16  and  CG_17 
REMARK    9  A    between atoms: CZ_22  and  OH_23 
REMARK   10  A    between atoms: OH_23  and  P_24 
REMARK   11  A    between atoms: CA_29  and  N_28 
REMARK   12  A    between atoms: CA_29  and  CB_33 
REMARK   13  A    between atoms: C_31  and  CA_29 
REMARK   14  A    between atoms: CA_29  and  CH3_30 
REMARK       I    between atoms: C_31  and  N_45 
REMARK   15  A    between atoms: CB_33  and  CG_34 
REMARK   16  A    between atoms: CZ_39  and  OH_40 
REMARK   17  A    between atoms: OH_40  and  P_41 
REMARK   18  A    between atoms: N_45  and  CA_46 
REMARK   19  A    between atoms: CA_46  and  C_47 
REMARK   20  A    between atoms: CA_46  and  CB_49 
REMARK   21  A    between atoms: CB_49  and  CG_50 
REMARK       I    between atoms: CG_50  and  ND2_52 
ROOT
ATOM      1  C   MOL d         -28.018  45.347  33.362  0.00  0.00     0.241 C 
ATOM      2  O   MOL d         -28.622  45.275  34.465  0.00  0.00    -0.271 OA
ATOM      3  N   MOL d         -27.642  44.338  32.634  0.00  0.00    -0.341 N 
ATOM      4  H17 MOL d         -27.235  44.511  31.738  0.00  0.00     0.163 HD
ENDROOT
BRANCH   1   5
ATOM      5  CA  MOL d         -27.784  46.619  32.617  0.00  0.00     0.094 C 
ATOM      6  H10 MOL d         -27.727  46.473  31.529  0.00  0.00     0.088 H 
BRANCH   5   7
ATOM      7  N   MOL d         -28.923  47.371  32.983  0.00  0.00    -0.335 N 
ATOM      8  C16 MOL d         -29.990  47.603  32.254  0.00  0.00     0.292 C 
ATOM      9  O18 MOL d         -30.426  46.650  31.363  0.00  0.00    -0.143 OA
ATOM     10  H9  MOL d         -28.916  47.771  33.899  0.00  0.00     0.164 HD
BRANCH   8  11
ATOM     11  O13 MOL d         -30.768  48.474  32.833  0.00  0.00    -0.310 OA
BRANCH  11  12
ATOM     12  C12 MOL d         -30.421  49.672  33.545  0.00  0.00     0.053 C 
ATOM     13  H5  MOL d         -29.365  49.874  33.311  0.00  0.00     0.082 H 
ATOM     14  H6  MOL d         -31.049  50.473  33.125  0.00  0.00     0.082 H 
BRANCH  12  15
ATOM     15  C3  MOL d         -30.547  49.776  35.021  0.00  0.00    -0.032 A 
ATOM     16  C2  MOL d         -30.678  51.012  35.679  0.00  0.00    -0.075 A 
ATOM     17  C1  MOL d         -30.824  51.021  37.096  0.00  0.00    -0.080 A 
ATOM     18  H2  MOL d         -30.670  51.940  35.119  0.00  0.00     0.084 H 
ATOM     19  C6  MOL d         -30.809  49.797  37.822  0.00  0.00    -0.058 A 
ATOM     20  H1  MOL d         -30.946  51.961  37.622  0.00  0.00     0.083 H 
ATOM     21  C5  MOL d         -30.660  48.578  37.135  0.00  0.00     0.026 A 
ATOM     22  H4  MOL d         -30.912  49.805  38.901  0.00  0.00     0.086 H 
ATOM     23  C4  MOL d         -30.537  48.569  35.740  0.00  0.00    -0.050 A 
ATOM     24  H3  MOL d         -30.435  47.627  35.213  0.00  0.00     0.087 H 
BRANCH  21  25
ATOM     25  N11 MOL d         -30.629  47.402  37.803  0.00  0.00    -0.399 N 
ATOM     26  H7  MOL d         -31.384  46.713  37.670  0.00  0.00     0.156 HD
ATOM     27  H8  MOL d         -29.851  47.195  38.446  0.00  0.00     0.156 HD
ENDBRANCH  21  25
ENDBRANCH  12  15
ENDBRANCH  11  12
ENDBRANCH   8  11
ENDBRANCH   5   7
BRANCH   5  28
ATOM     28  CB  MOL d         -26.456  47.228  33.155  0.00  0.00    -0.014 C 
ATOM     29  H11 MOL d         -25.909  47.683  32.315  0.00  0.00     0.043 H 
ATOM     30  H12 MOL d         -25.849  46.422  33.594  0.00  0.00     0.043 H 
BRANCH  28  31
ATOM     31  CG  MOL d         -26.699  48.295  34.218  0.00  0.00    -0.056 A 
ATOM     32  CD2 MOL d         -26.769  47.960  35.595  0.00  0.00    -0.074 A 
ATOM     33  CE2 MOL d         -26.980  48.965  36.572  0.00  0.00    -0.050 A 
ATOM     34  H14 MOL d         -26.661  46.927  35.903  0.00  0.00     0.084 H 
ATOM     35  CZ  MOL d         -27.096  50.303  36.087  0.00  0.00     0.082 A 
ATOM     36  H16 MOL d         -27.050  48.731  37.628  0.00  0.00     0.087 H 
ATOM     37  CE1 MOL d         -27.022  50.651  34.738  0.00  0.00    -0.050 A 
ATOM     38  CD1 MOL d         -26.827  49.647  33.805  0.00  0.00    -0.074 A 
ATOM     39  H15 MOL d         -27.115  51.685  34.427  0.00  0.00     0.087 H 
ATOM     40  H13 MOL d         -26.772  49.894  32.751  0.00  0.00     0.084 H 
BRANCH  35  41
ATOM     41  OH  MOL d         -27.301  51.335  37.016  0.00  0.00    -0.240 OA
BRANCH  41  42
ATOM     42  P   MOL d         -27.174  52.833  36.774  0.00  0.00     0.427 P 
ATOM     43  O3P MOL d         -25.735  53.132  36.275  0.00  0.00    -0.617 OA
ATOM     44  O2P MOL d         -28.157  53.354  35.838  0.00  0.00    -0.617 OA
ATOM     45  O1P MOL d         -27.352  53.468  38.057  0.00  0.00    -0.617 OA
ENDBRANCH  41  42
ENDBRANCH  35  41
ENDBRANCH  28  31
ENDBRANCH   5  28
ENDBRANCH   1   5
BRANCH   3  46
ATOM     46  CA  MOL d         -27.794  42.989  33.081  0.00  0.00     0.114 C 
BRANCH  46  47
ATOM     47  CB  MOL d         -29.351  42.794  33.006  0.00  0.00    -0.009 C 
ATOM     48  H21 MOL d         -29.612  42.547  31.967  0.00  0.00     0.044 H 
ATOM     49  H22 MOL d         -29.824  43.747  33.286  0.00  0.00     0.044 H 
BRANCH  47  50
ATOM     50  CG  MOL d         -29.927  41.698  33.911  0.00  0.00    -0.055 A 
ATOM     51  CD2 MOL d         -30.650  42.049  35.056  0.00  0.00    -0.074 A 
ATOM     52  CE2 MOL d         -31.215  41.071  35.918  0.00  0.00    -0.050 A 
ATOM     53  H24 MOL d         -30.783  43.099  35.293  0.00  0.00     0.084 H 
ATOM     54  CZ  MOL d         -31.005  39.735  35.554  0.00  0.00     0.082 A 
ATOM     55  H26 MOL d         -31.775  41.343  36.806  0.00  0.00     0.087 H 
ATOM     56  CE1 MOL d         -30.286  39.352  34.405  0.00  0.00    -0.050 A 
ATOM     57  CD1 MOL d         -29.740  40.333  33.576  0.00  0.00    -0.074 A 
ATOM     58  H25 MOL d         -30.159  38.302  34.165  0.00  0.00     0.087 H 
ATOM     59  H23 MOL d         -29.182  40.056  32.690  0.00  0.00     0.084 H 
BRANCH  54  60
ATOM     60  OH  MOL d         -31.559  38.764  36.411  0.00  0.00    -0.240 OA
BRANCH  60  61
ATOM     61  P   MOL d         -30.660  38.088  37.629  0.00  0.00     0.427 P 
ATOM     62  O3P MOL d         -31.408  36.959  38.250  0.00  0.00    -0.617 OA
ATOM     63  O2P MOL d         -29.401  37.550  37.060  0.00  0.00    -0.617 OA
ATOM     64  O1P MOL d         -30.475  39.172  38.611  0.00  0.00    -0.617 OA
ENDBRANCH  60  61
ENDBRANCH  54  60
ENDBRANCH  47  50
ENDBRANCH  46  47
BRANCH  46  65
ATOM     65  C   MOL d         -27.169  41.960  32.104  0.00  0.00     0.246 C 
ATOM     66  O   MOL d         -27.482  41.959  30.898  0.00  0.00    -0.271 OA
ATOM     67  N   MOL d         -26.347  41.053  32.597  0.00  0.00    -0.344 N 
ATOM     68  H27 MOL d         -26.127  41.046  33.573  0.00  0.00     0.163 HD
BRANCH  67  69
ATOM     69  CA  MOL d         -25.769  40.069  31.708  0.00  0.00     0.104 C 
ATOM     70  H28 MOL d         -26.039  40.322  30.672  0.00  0.00     0.090 H 
BRANCH  69  71
ATOM     71  C   MOL d         -26.332  38.691  32.059  0.00  0.00     0.197 C 
ATOM     72  OXT MOL d         -26.335  37.852  31.160  0.00  0.00    -0.646 OA
ATOM     73  O   MOL d         -26.788  38.437  33.219  0.00  0.00    -0.646 OA
ENDBRANCH  69  71
BRANCH  69  74
ATOM     74  CB  MOL d         -24.220  40.030  31.830  0.00  0.00     0.037 C 
ATOM     75  H29 MOL d         -23.788  40.581  30.982  0.00  0.00     0.051 H 
ATOM     76  H30 MOL d         -23.893  38.981  31.791  0.00  0.00     0.051 H 
BRANCH  74  77
ATOM     77  CG  MOL d         -23.689  40.672  33.168  0.00  0.00     0.217 C 
ATOM     78  OD1 MOL d         -23.878  40.143  34.223  0.00  0.00    -0.274 OA
ATOM     79  ND2 MOL d         -23.070  41.815  33.069  0.00  0.00    -0.370 N 
ATOM     80  H31 MOL d         -22.715  42.264  33.889  0.00  0.00     0.159 HD
ATOM     81  H32 MOL d         -22.951  42.243  32.173  0.00  0.00     0.159 HD
ENDBRANCH  74  77
ENDBRANCH  69  74
ENDBRANCH  67  69
ENDBRANCH  46  65
BRANCH  46  82
ATOM     82  CH3 MOL d         -27.518  42.880  34.605  0.00  0.00    -0.044 C 
ATOM     83  H18 MOL d         -26.433  42.915  34.784  0.00  0.00     0.031 H 
ATOM     84  H19 MOL d         -27.921  41.929  34.984  0.00  0.00     0.031 H 
ATOM     85  H20 MOL d         -28.002  43.718  35.126  0.00  0.00     0.031 H 
ENDBRANCH  46  82
ENDBRANCH   3  46
TORSDOF 21
ENDMDL
MODEL 3
REMARK VINA RESULT:      -6.2      2.771      4.785
REMARK  21 active torsions:
REMARK  status: ('A' for Active; 'I' for Inactive)
REMARK    1  A    between atoms: C12_6  and  C3_3 
REMARK    2  A    between atoms: O13_7  and  C12_6 
REMARK    3  A    between atoms: C16_8  and  O13_7 
REMARK    4  A    between atoms: C5_11  and  N11_10 
REMARK    5  A    between atoms: CA_13  and  N_12 
REMARK    6  A    between atoms: CA_13  and  CB_16 
REMARK    7  A    between atoms: C_14  and  CA_13 
REMARK       I    between atoms: N_28  and  C_14 
REMARK    8  A    between atoms: CB_16  and  CG_17 
REMARK    9  A    between atoms: CZ_22  and  OH_23 
REMARK   10  A    between atoms: OH_23  and  P_24 
REMARK   11  A    between atoms: CA_29  and  N_28 
REMARK   12  A    between atoms: CA_29  and  CB_33 
REMARK   13  A    between atoms: C_31  and  CA_29 
REMARK   14  A    between atoms: CA_29  and  CH3_30 
REMARK       I    between atoms: C_31  and  N_45 
REMARK   15  A    between atoms: CB_33  and  CG_34 
REMARK   16  A    between atoms: CZ_39  and  OH_40 
REMARK   17  A    between atoms: OH_40  and  P_41 
REMARK   18  A    between atoms: N_45  and  CA_46 
REMARK   19  A    between atoms: CA_46  and  C_47 
REMARK   20  A    between atoms: CA_46  and  CB_49 
REMARK   21  A    between atoms: CB_49  and  CG_50 
REMARK       I    between atoms: CG_50  and  ND2_52 
ROOT
ATOM      1  C   MOL d         -30.631  45.819  32.731  0.00  0.00     0.241 C 
ATOM      2  O   MOL d         -31.317  46.534  31.953  0.00  0.00    -0.271 OA
ATOM      3  N   MOL d         -29.813  46.255  33.642  0.00  0.00    -0.341 N 
ATOM      4  H17 MOL d         -29.375  45.599  34.255  0.00  0.00     0.163 HD
ENDROOT
BRANCH   1   5
ATOM      5  CA  MOL d         -30.774  44.338  32.852  0.00  0.00     0.094 C 
ATOM      6  H10 MOL d         -31.475  43.915  32.117  0.00  0.00     0.088 H 
BRANCH   5   7
ATOM      7  N   MOL d         -29.449  43.908  32.615  0.00  0.00    -0.335 N 
ATOM      8  C16 MOL d         -29.005  43.236  31.579  0.00  0.00     0.292 C 
ATOM      9  O18 MOL d         -29.572  43.438  30.342  0.00  0.00    -0.143 OA
ATOM     10  H9  MOL d         -28.773  44.143  33.314  0.00  0.00     0.164 HD
BRANCH   8  11
ATOM     11  O13 MOL d         -27.771  42.856  31.765  0.00  0.00    -0.310 OA
BRANCH  11  12
ATOM     12  C12 MOL d         -27.177  41.564  31.567  0.00  0.00     0.053 C 
ATOM     13  H5  MOL d         -27.909  40.829  31.933  0.00  0.00     0.082 H 
ATOM     14  H6  MOL d         -27.051  41.446  30.480  0.00  0.00     0.082 H 
BRANCH  12  15
ATOM     15  C3  MOL d         -25.876  41.193  32.178  0.00  0.00    -0.032 A 
ATOM     16  C2  MOL d         -25.095  42.113  32.901  0.00  0.00    -0.075 A 
ATOM     17  C1  MOL d         -23.873  41.667  33.480  0.00  0.00    -0.080 A 
ATOM     18  H2  MOL d         -25.418  43.141  33.014  0.00  0.00     0.084 H 
ATOM     19  C6  MOL d         -23.449  40.320  33.302  0.00  0.00    -0.058 A 
ATOM     20  H1  MOL d         -23.264  42.354  34.058  0.00  0.00     0.083 H 
ATOM     21  C5  MOL d         -24.245  39.428  32.561  0.00  0.00     0.026 A 
ATOM     22  H4  MOL d         -22.515  39.983  33.738  0.00  0.00     0.086 H 
ATOM     23  C4  MOL d         -25.457  39.862  32.008  0.00  0.00    -0.050 A 
ATOM     24  H3  MOL d         -26.074  39.169  31.448  0.00  0.00     0.087 H 
BRANCH  21  25
ATOM     25  N11 MOL d         -23.858  38.147  32.366  0.00  0.00    -0.399 N 
ATOM     26  H7  MOL d         -23.741  37.784  31.409  0.00  0.00     0.156 HD
ATOM     27  H8  MOL d         -23.680  37.533  33.175  0.00  0.00     0.156 HD
ENDBRANCH  21  25
ENDBRANCH  12  15
ENDBRANCH  11  12
ENDBRANCH   8  11
ENDBRANCH   5   7
BRANCH   5  28
ATOM     28  CB  MOL d         -31.259  44.041  34.301  0.00  0.00    -0.014 C 
ATOM     29  H11 MOL d         -32.282  44.428  34.419  0.00  0.00     0.043 H 
ATOM     30  H12 MOL d         -30.590  44.551  35.010  0.00  0.00     0.043 H 
BRANCH  28  31
ATOM     31  CG  MOL d         -31.260  42.547  34.614  0.00  0.00    -0.056 A 
ATOM     32  CD2 MOL d         -31.594  41.587  33.625  0.00  0.00    -0.074 A 
ATOM     33  CE2 MOL d         -31.575  40.203  33.928  0.00  0.00    -0.050 A 
ATOM     34  H14 MOL d         -31.866  41.915  32.628  0.00  0.00     0.084 H 
ATOM     35  CZ  MOL d         -31.190  39.852  35.257  0.00  0.00     0.082 A 
ATOM     36  H16 MOL d         -31.839  39.453  33.191  0.00  0.00     0.087 H 
ATOM     37  CE1 MOL d         -30.852  40.782  36.240  0.00  0.00    -0.050 A 
ATOM     38  CD1 MOL d         -30.890  42.128  35.919  0.00  0.00    -0.074 A 
ATOM     39  H15 MOL d         -30.565  40.458  37.235  0.00  0.00     0.087 H 
ATOM     40  H13 MOL d         -30.636  42.869  36.669  0.00  0.00     0.084 H 
BRANCH  35  41
ATOM     41  OH  MOL d         -31.151  38.493  35.605  0.00  0.00    -0.240 OA
BRANCH  41  42
ATOM     42  P   MOL d         -29.919  37.607  35.728  0.00  0.00     0.427 P 
ATOM     43  O3P MOL d         -28.823  38.150  34.773  0.00  0.00    -0.617 OA
ATOM     44  O2P MOL d         -29.410  37.508  37.086  0.00  0.00    -0.617 OA
ATOM     45  O1P MOL d         -30.314  36.297  35.269  0.00  0.00    -0.617 OA
ENDBRANCH  41  42
ENDBRANCH  35  41
ENDBRANCH  28  31
ENDBRANCH   5  28
ENDBRANCH   1   5
BRANCH   3  46
ATOM     46  CA  MOL d         -29.523  47.647  33.789  0.00  0.00     0.114 C 
BRANCH  46  47
ATOM     47  CB  MOL d         -28.582  47.652  35.047  0.00  0.00    -0.009 C 
ATOM     48  H21 MOL d         -27.625  47.195  34.755  0.00  0.00     0.044 H 
ATOM     49  H22 MOL d         -29.058  47.041  35.828  0.00  0.00     0.044 H 
BRANCH  47  50
ATOM     50  CG  MOL d         -28.283  49.032  35.645  0.00  0.00    -0.055 A 
ATOM     51  CD2 MOL d         -27.369  49.882  35.012  0.00  0.00    -0.074 A 
ATOM     52  CE2 MOL d         -27.068  51.175  35.520  0.00  0.00    -0.050 A 
ATOM     53  H24 MOL d         -26.876  49.545  34.108  0.00  0.00     0.084 H 
ATOM     54  CZ  MOL d         -27.740  51.548  36.690  0.00  0.00     0.082 A 
ATOM     55  H26 MOL d         -26.360  51.834  35.029  0.00  0.00     0.087 H 
ATOM     56  CE1 MOL d         -28.669  50.716  37.346  0.00  0.00    -0.050 A 
ATOM     57  CD1 MOL d         -28.944  49.450  36.828  0.00  0.00    -0.074 A 
ATOM     58  H25 MOL d         -29.166  51.057  38.248  0.00  0.00     0.087 H 
ATOM     59  H23 MOL d         -29.653  48.796  37.321  0.00  0.00     0.084 H 
BRANCH  54  60
ATOM     60  OH  MOL d         -27.439  52.827  37.198  0.00  0.00    -0.240 OA
BRANCH  60  61
ATOM     61  P   MOL d         -28.370  54.141  36.807  0.00  0.00     0.427 P 
ATOM     62  O3P MOL d         -28.562  55.007  38.006  0.00  0.00    -0.617 OA
ATOM     63  O2P MOL d         -27.672  54.938  35.770  0.00  0.00    -0.617 OA
ATOM     64  O1P MOL d         -29.663  53.577  36.380  0.00  0.00    -0.617 OA
ENDBRANCH  60  61
ENDBRANCH  54  60
ENDBRANCH  47  50
ENDBRANCH  46  47
BRANCH  46  65
ATOM     65  C   MOL d         -28.694  48.215  32.610  0.00  0.00     0.246 C 
ATOM     66  O   MOL d         -29.011  49.296  32.074  0.00  0.00    -0.271 OA
ATOM     67  N   MOL d         -27.686  47.497  32.154  0.00  0.00    -0.344 N 
ATOM     68  H27 MOL d         -27.460  46.617  32.574  0.00  0.00     0.163 HD
BRANCH  67  69
ATOM     69  CA  MOL d         -26.912  47.997  31.039  0.00  0.00     0.104 C 
ATOM     70  H28 MOL d         -26.929  49.097  31.057  0.00  0.00     0.090 H 
BRANCH  69  71
ATOM     71  C   MOL d         -27.539  47.500  29.735  0.00  0.00     0.197 C 
ATOM     72  OXT MOL d         -27.508  48.273  28.780  0.00  0.00    -0.646 OA
ATOM     73  O   MOL d         -28.079  46.351  29.656  0.00  0.00    -0.646 OA
ENDBRANCH  69  71
BRANCH  69  74
ATOM     74  CB  MOL d         -25.436  47.515  31.107  0.00  0.00     0.037 C 
ATOM     75  H29 MOL d         -25.391  46.473  30.756  0.00  0.00     0.051 H 
ATOM     76  H30 MOL d         -25.100  47.564  32.153  0.00  0.00     0.051 H 
BRANCH  74  77
ATOM     77  CG  MOL d         -24.460  48.384  30.225  0.00  0.00     0.217 C 
ATOM     78  OD1 MOL d         -23.866  47.904  29.307  0.00  0.00    -0.274 OA
ATOM     79  ND2 MOL d         -24.312  49.634  30.567  0.00  0.00    -0.370 N 
ATOM     80  H31 MOL d         -23.704  50.227  30.040  0.00  0.00     0.159 HD
ATOM     81  H32 MOL d         -24.806  49.998  31.356  0.00  0.00     0.159 HD
ENDBRANCH  74  77
ENDBRANCH  69  74
ENDBRANCH  67  69
ENDBRANCH  46  65
BRANCH  46  82
ATOM     82  CH3 MOL d         -30.770  48.417  34.304  0.00  0.00    -0.044 C 
ATOM     83  H18 MOL d         -30.678  48.583  35.387  0.00  0.00     0.031 H 
ATOM     84  H19 MOL d         -31.676  47.826  34.099  0.00  0.00     0.031 H 
ATOM     85  H20 MOL d         -30.841  49.386  33.789  0.00  0.00     0.031 H 
ENDBRANCH  46  82
ENDBRANCH   3  46
TORSDOF 21
ENDMDL
MODEL 4
REMARK VINA RESULT:      -6.1      2.073      3.307
REMARK  21 active torsions:
REMARK  status: ('A' for Active; 'I' for Inactive)
REMARK    1  A    between atoms: C12_6  and  C3_3 
REMARK    2  A    between atoms: O13_7  and  C12_6 
REMARK    3  A    between atoms: C16_8  and  O13_7 
REMARK    4  A    between atoms: C5_11  and  N11_10 
REMARK    5  A    between atoms: CA_13  and  N_12 
REMARK    6  A    between atoms: CA_13  and  CB_16 
REMARK    7  A    between atoms: C_14  and  CA_13 
REMARK       I    between atoms: N_28  and  C_14 
REMARK    8  A    between atoms: CB_16  and  CG_17 
REMARK    9  A    between atoms: CZ_22  and  OH_23 
REMARK   10  A    between atoms: OH_23  and  P_24 
REMARK   11  A    between atoms: CA_29  and  N_28 
REMARK   12  A    between atoms: CA_29  and  CB_33 
REMARK   13  A    between atoms: C_31  and  CA_29 
REMARK   14  A    between atoms: CA_29  and  CH3_30 
REMARK       I    between atoms: C_31  and  N_45 
REMARK   15  A    between atoms: CB_33  and  CG_34 
REMARK   16  A    between atoms: CZ_39  and  OH_40 
REMARK   17  A    between atoms: OH_40  and  P_41 
REMARK   18  A    between atoms: N_45  and  CA_46 
REMARK   19  A    between atoms: CA_46  and  C_47 
REMARK   20  A    between atoms: CA_46  and  CB_49 
REMARK   21  A    between atoms: CB_49  and  CG_50 
REMARK       I    between atoms: CG_50  and  ND2_52 
ROOT
ATOM      1  C   MOL d         -27.441  44.721  32.613  0.00  0.00     0.241 C 
ATOM      2  O   MOL d         -28.647  44.607  32.267  0.00  0.00    -0.271 OA
ATOM      3  N   MOL d         -26.852  45.825  32.963  0.00  0.00    -0.341 N 
ATOM      4  H17 MOL d         -25.909  45.789  33.292  0.00  0.00     0.163 HD
ENDROOT
BRANCH   1   5
ATOM      5  CA  MOL d         -26.525  43.566  32.847  0.00  0.00     0.094 C 
ATOM      6  H10 MOL d         -25.471  43.811  32.654  0.00  0.00     0.088 H 
BRANCH   5   7
ATOM      7  N   MOL d         -26.755  43.298  34.216  0.00  0.00    -0.335 N 
ATOM      8  C16 MOL d         -27.858  42.841  34.761  0.00  0.00     0.292 C 
ATOM      9  O18 MOL d         -28.654  41.968  34.058  0.00  0.00    -0.143 OA
ATOM     10  H9  MOL d         -25.992  43.477  34.838  0.00  0.00     0.164 HD
BRANCH   8  11
ATOM     11  O13 MOL d         -27.781  42.877  36.062  0.00  0.00    -0.310 OA
BRANCH  11  12
ATOM     12  C12 MOL d         -28.345  43.825  36.982  0.00  0.00     0.053 C 
ATOM     13  H5  MOL d         -28.529  43.275  37.917  0.00  0.00     0.082 H 
ATOM     14  H6  MOL d         -27.571  44.588  37.152  0.00  0.00     0.082 H 
BRANCH  12  15
ATOM     15  C3  MOL d         -29.598  44.564  36.682  0.00  0.00    -0.032 A 
ATOM     16  C2  MOL d         -30.740  43.928  36.164  0.00  0.00    -0.075 A 
ATOM     17  C1  MOL d         -31.911  44.706  35.931  0.00  0.00    -0.080 A 
ATOM     18  H2  MOL d         -30.730  42.867  35.946  0.00  0.00     0.084 H 
ATOM     19  C6  MOL d         -31.902  46.104  36.199  0.00  0.00    -0.058 A 
ATOM     20  H1  MOL d         -32.809  44.233  35.551  0.00  0.00     0.083 H 
ATOM     21  C5  MOL d         -30.738  46.714  36.703  0.00  0.00     0.026 A 
ATOM     22  H4  MOL d         -32.791  46.697  36.015  0.00  0.00     0.086 H 
ATOM     23  C4  MOL d         -29.594  45.944  36.949  0.00  0.00    -0.050 A 
ATOM     24  H3  MOL d         -28.703  46.414  37.349  0.00  0.00     0.087 H 
BRANCH  21  25
ATOM     25  N11 MOL d         -30.700  48.042  36.952  0.00  0.00    -0.399 N 
ATOM     26  H7  MOL d         -30.144  48.664  36.348  0.00  0.00     0.156 HD
ATOM     27  H8  MOL d         -31.228  48.433  37.746  0.00  0.00     0.156 HD
ENDBRANCH  21  25
ENDBRANCH  12  15
ENDBRANCH  11  12
ENDBRANCH   8  11
ENDBRANCH   5   7
BRANCH   5  28
ATOM     28  CB  MOL d         -26.995  42.411  31.915  0.00  0.00    -0.014 C 
ATOM     29  H11 MOL d         -26.956  42.759  30.872  0.00  0.00     0.043 H 
ATOM     30  H12 MOL d         -28.031  42.146  32.174  0.00  0.00     0.043 H 
BRANCH  28  31
ATOM     31  CG  MOL d         -26.122  41.167  32.051  0.00  0.00    -0.056 A 
ATOM     32  CD2 MOL d         -26.572  39.898  31.604  0.00  0.00    -0.074 A 
ATOM     33  CE2 MOL d         -25.743  38.755  31.723  0.00  0.00    -0.050 A 
ATOM     34  H14 MOL d         -27.559  39.802  31.167  0.00  0.00     0.084 H 
ATOM     35  CZ  MOL d         -24.452  38.969  32.294  0.00  0.00     0.082 A 
ATOM     36  H16 MOL d         -26.071  37.774  31.400  0.00  0.00     0.087 H 
ATOM     37  CE1 MOL d         -23.990  40.210  32.733  0.00  0.00    -0.050 A 
ATOM     38  CD1 MOL d         -24.827  41.307  32.614  0.00  0.00    -0.074 A 
ATOM     39  H15 MOL d         -22.998  40.314  33.157  0.00  0.00     0.087 H 
ATOM     40  H13 MOL d         -24.490  42.280  32.953  0.00  0.00     0.084 H 
BRANCH  35  41
ATOM     41  OH  MOL d         -23.590  37.869  32.429  0.00  0.00    -0.240 OA
BRANCH  41  42
ATOM     42  P   MOL d         -23.445  36.954  33.637  0.00  0.00     0.427 P 
ATOM     43  O3P MOL d         -24.771  36.171  33.826  0.00  0.00    -0.617 OA
ATOM     44  O2P MOL d         -22.321  36.038  33.538  0.00  0.00    -0.617 OA
ATOM     45  O1P MOL d         -23.260  37.816  34.779  0.00  0.00    -0.617 OA
ENDBRANCH  41  42
ENDBRANCH  35  41
ENDBRANCH  28  31
ENDBRANCH   5  28
ENDBRANCH   1   5
BRANCH   3  46
ATOM     46  CA  MOL d         -27.515  47.089  32.889  0.00  0.00     0.114 C 
BRANCH  46  47
ATOM     47  CB  MOL d         -26.406  48.070  33.412  0.00  0.00    -0.009 C 
ATOM     48  H21 MOL d         -26.018  48.633  32.550  0.00  0.00     0.044 H 
ATOM     49  H22 MOL d         -25.597  47.464  33.848  0.00  0.00     0.044 H 
BRANCH  47  50
ATOM     50  CG  MOL d         -26.861  49.081  34.470  0.00  0.00    -0.055 A 
ATOM     51  CD2 MOL d         -27.798  50.065  34.136  0.00  0.00    -0.074 A 
ATOM     52  CE2 MOL d         -28.261  51.016  35.085  0.00  0.00    -0.050 A 
ATOM     53  H24 MOL d         -28.183  50.103  33.124  0.00  0.00     0.084 H 
ATOM     54  CZ  MOL d         -27.724  50.911  36.374  0.00  0.00     0.082 A 
ATOM     55  H26 MOL d         -28.987  51.779  34.826  0.00  0.00     0.087 H 
ATOM     56  CE1 MOL d         -26.784  49.929  36.741  0.00  0.00    -0.050 A 
ATOM     57  CD1 MOL d         -26.344  49.008  35.789  0.00  0.00    -0.074 A 
ATOM     58  H25 MOL d         -26.404  49.888  37.756  0.00  0.00     0.087 H 
ATOM     59  H23 MOL d         -25.618  48.248  36.053  0.00  0.00     0.084 H 
BRANCH  54  60
ATOM     60  OH  MOL d         -28.178  51.857  37.314  0.00  0.00    -0.240 OA
BRANCH  60  61
ATOM     61  P   MOL d         -29.002  53.211  36.831  0.00  0.00     0.427 P 
ATOM     62  O3P MOL d         -28.118  54.081  36.004  0.00  0.00    -0.617 OA
ATOM     63  O2P MOL d         -30.159  52.803  35.998  0.00  0.00    -0.617 OA
ATOM     64  O1P MOL d         -29.362  53.903  38.083  0.00  0.00    -0.617 OA
ENDBRANCH  60  61
ENDBRANCH  54  60
ENDBRANCH  47  50
ENDBRANCH  46  47
BRANCH  46  65
ATOM     65  C   MOL d         -27.836  47.513  31.433  0.00  0.00     0.246 C 
ATOM     66  O   MOL d         -27.021  47.297  30.515  0.00  0.00    -0.271 OA
ATOM     67  N   MOL d         -28.964  48.160  31.207  0.00  0.00    -0.344 N 
ATOM     68  H27 MOL d         -29.596  48.353  31.957  0.00  0.00     0.163 HD
BRANCH  67  69
ATOM     69  CA  MOL d         -29.273  48.585  29.859  0.00  0.00     0.104 C 
ATOM     70  H28 MOL d         -28.357  48.542  29.251  0.00  0.00     0.090 H 
BRANCH  69  71
ATOM     71  C   MOL d         -29.790  50.024  29.899  0.00  0.00     0.197 C 
ATOM     72  OXT MOL d         -29.360  50.739  30.802  0.00  0.00    -0.646 OA
ATOM     73  O   MOL d         -30.634  50.449  29.048  0.00  0.00    -0.646 OA
ENDBRANCH  69  71
BRANCH  69  74
ATOM     74  CB  MOL d         -30.354  47.677  29.208  0.00  0.00     0.037 C 
ATOM     75  H29 MOL d         -29.935  47.237  28.292  0.00  0.00     0.051 H 
ATOM     76  H30 MOL d         -31.225  48.298  28.952  0.00  0.00     0.051 H 
BRANCH  74  77
ATOM     77  CG  MOL d         -30.831  46.509  30.154  0.00  0.00     0.217 C 
ATOM     78  OD1 MOL d         -31.518  46.728  31.106  0.00  0.00    -0.274 OA
ATOM     79  ND2 MOL d         -30.412  45.308  29.865  0.00  0.00    -0.370 N 
ATOM     80  H31 MOL d         -30.686  44.534  30.435  0.00  0.00     0.159 HD
ATOM     81  H32 MOL d         -29.817  45.163  29.075  0.00  0.00     0.159 HD
ENDBRANCH  74  77
ENDBRANCH  69  74
ENDBRANCH  67  69
ENDBRANCH  46  65
BRANCH  46  82
ATOM     82  CH3 MOL d         -28.606  47.202  33.989  0.00  0.00    -0.044 C 
ATOM     83  H18 MOL d         -28.830  48.263  34.174  0.00  0.00     0.031 H 
ATOM     84  H19 MOL d         -28.241  46.737  34.917  0.00  0.00     0.031 H 
ATOM     85  H20 MOL d         -29.519  46.688  33.655  0.00  0.00     0.031 H 
ENDBRANCH  46  82
ENDBRANCH   3  46
TORSDOF 21
ENDMDL
MODEL 5
REMARK VINA RESULT:      -6.0      1.809      2.999
REMARK  21 active torsions:
REMARK  status: ('A' for Active; 'I' for Inactive)
REMARK    1  A    between atoms: C12_6  and  C3_3 
REMARK    2  A    between atoms: O13_7  and  C12_6 
REMARK    3  A    between atoms: C16_8  and  O13_7 
REMARK    4  A    between atoms: C5_11  and  N11_10 
REMARK    5  A    between atoms: CA_13  and  N_12 
REMARK    6  A    between atoms: CA_13  and  CB_16 
REMARK    7  A    between atoms: C_14  and  CA_13 
REMARK       I    between atoms: N_28  and  C_14 
REMARK    8  A    between atoms: CB_16  and  CG_17 
REMARK    9  A    between atoms: CZ_22  and  OH_23 
REMARK   10  A    between atoms: OH_23  and  P_24 
REMARK   11  A    between atoms: CA_29  and  N_28 
REMARK   12  A    between atoms: CA_29  and  CB_33 
REMARK   13  A    between atoms: C_31  and  CA_29 
REMARK   14  A    between atoms: CA_29  and  CH3_30 
REMARK       I    between atoms: C_31  and  N_45 
REMARK   15  A    between atoms: CB_33  and  CG_34 
REMARK   16  A    between atoms: CZ_39  and  OH_40 
REMARK   17  A    between atoms: OH_40  and  P_41 
REMARK   18  A    between atoms: N_45  and  CA_46 
REMARK   19  A    between atoms: CA_46  and  C_47 
REMARK   20  A    between atoms: CA_46  and  CB_49 
REMARK   21  A    between atoms: CB_49  and  CG_50 
REMARK       I    between atoms: CG_50  and  ND2_52 
ROOT
ATOM      1  C   MOL d         -30.016  44.318  32.212  0.00  0.00     0.241 C 
ATOM      2  O   MOL d         -31.244  44.104  32.398  0.00  0.00    -0.271 OA
ATOM      3  N   MOL d         -29.496  45.419  31.761  0.00  0.00    -0.341 N 
ATOM      4  H17 MOL d         -28.501  45.507  31.723  0.00  0.00     0.163 HD
ENDROOT
BRANCH   1   5
ATOM      5  CA  MOL d         -28.930  43.390  32.646  0.00  0.00     0.094 C 
ATOM      6  H10 MOL d         -28.100  43.909  33.148  0.00  0.00     0.088 H 
BRANCH   5   7
ATOM      7  N   MOL d         -29.627  42.541  33.536  0.00  0.00    -0.335 N 
ATOM      8  C16 MOL d         -29.162  41.979  34.627  0.00  0.00     0.292 C 
ATOM      9  O18 MOL d         -28.216  42.636  35.381  0.00  0.00    -0.143 OA
ATOM     10  H9  MOL d         -30.582  42.346  33.309  0.00  0.00     0.164 HD
BRANCH   8  11
ATOM     11  O13 MOL d         -30.018  41.124  35.111  0.00  0.00    -0.310 OA
BRANCH  11  12
ATOM     12  C12 MOL d         -30.942  40.270  34.418  0.00  0.00     0.053 C 
ATOM     13  H5  MOL d         -31.801  40.136  35.092  0.00  0.00     0.082 H 
ATOM     14  H6  MOL d         -31.262  40.825  33.522  0.00  0.00     0.082 H 
BRANCH  12  15
ATOM     15  C3  MOL d         -30.563  38.913  33.951  0.00  0.00    -0.032 A 
ATOM     16  C2  MOL d         -31.458  38.079  33.258  0.00  0.00    -0.075 A 
ATOM     17  C1  MOL d         -31.004  36.801  32.820  0.00  0.00    -0.080 A 
ATOM     18  H2  MOL d         -32.474  38.401  33.061  0.00  0.00     0.084 H 
ATOM     19  C6  MOL d         -29.676  36.380  33.108  0.00  0.00    -0.058 A 
ATOM     20  H1  MOL d         -31.671  36.149  32.267  0.00  0.00     0.083 H 
ATOM     21  C5  MOL d         -28.809  37.232  33.817  0.00  0.00     0.026 A 
ATOM     22  H4  MOL d         -29.333  35.405  32.780  0.00  0.00     0.086 H 
ATOM     23  C4  MOL d         -29.250  38.496  34.229  0.00  0.00    -0.050 A 
ATOM     24  H3  MOL d         -28.576  39.155  34.765  0.00  0.00     0.087 H 
BRANCH  21  25
ATOM     25  N11 MOL d         -27.546  36.849  34.114  0.00  0.00    -0.399 N 
ATOM     26  H7  MOL d         -26.960  36.403  33.395  0.00  0.00     0.156 HD
ATOM     27  H8  MOL d         -27.170  37.004  35.061  0.00  0.00     0.156 HD
ENDBRANCH  21  25
ENDBRANCH  12  15
ENDBRANCH  11  12
ENDBRANCH   8  11
ENDBRANCH   5   7
BRANCH   5  28
ATOM     28  CB  MOL d         -28.422  42.651  31.374  0.00  0.00    -0.014 C 
ATOM     29  H11 MOL d         -28.197  43.396  30.597  0.00  0.00     0.043 H 
ATOM     30  H12 MOL d         -29.214  41.976  31.016  0.00  0.00     0.043 H 
BRANCH  28  31
ATOM     31  CG  MOL d         -27.165  41.830  31.647  0.00  0.00    -0.056 A 
ATOM     32  CD2 MOL d         -26.163  42.291  32.540  0.00  0.00    -0.074 A 
ATOM     33  CE2 MOL d         -25.009  41.510  32.794  0.00  0.00    -0.050 A 
ATOM     34  H14 MOL d         -26.282  43.249  33.032  0.00  0.00     0.084 H 
ATOM     35  CZ  MOL d         -24.936  40.253  32.121  0.00  0.00     0.082 A 
ATOM     36  H16 MOL d         -24.226  41.848  33.463  0.00  0.00     0.087 H 
ATOM     37  CE1 MOL d         -25.914  39.781  31.245  0.00  0.00    -0.050 A 
ATOM     38  CD1 MOL d         -27.025  40.571  31.006  0.00  0.00    -0.074 A 
ATOM     39  H15 MOL d         -25.806  38.817  30.761  0.00  0.00     0.087 H 
ATOM     40  H13 MOL d         -27.795  40.226  30.325  0.00  0.00     0.084 H 
BRANCH  35  41
ATOM     41  OH  MOL d         -23.813  39.440  32.343  0.00  0.00    -0.240 OA
BRANCH  41  42
ATOM     42  P   MOL d         -23.689  38.290  33.332  0.00  0.00     0.427 P 
ATOM     43  O3P MOL d         -24.927  37.366  33.174  0.00  0.00    -0.617 OA
ATOM     44  O2P MOL d         -22.461  37.526  33.182  0.00  0.00    -0.617 OA
ATOM     45  O1P MOL d         -23.727  38.879  34.648  0.00  0.00    -0.617 OA
ENDBRANCH  41  42
ENDBRANCH  35  41
ENDBRANCH  28  31
ENDBRANCH   5  28
ENDBRANCH   1   5
BRANCH   3  46
ATOM     46  CA  MOL d         -30.308  46.509  31.317  0.00  0.00     0.114 C 
BRANCH  46  47
ATOM     47  CB  MOL d         -31.146  46.836  32.604  0.00  0.00    -0.009 C 
ATOM     48  H21 MOL d         -31.353  45.889  33.124  0.00  0.00     0.044 H 
ATOM     49  H22 MOL d         -32.094  47.293  32.283  0.00  0.00     0.044 H 
BRANCH  47  50
ATOM     50  CG  MOL d         -30.480  47.787  33.606  0.00  0.00    -0.055 A 
ATOM     51  CD2 MOL d         -30.933  49.106  33.720  0.00  0.00    -0.074 A 
ATOM     52  CE2 MOL d         -30.358  50.021  34.643  0.00  0.00    -0.050 A 
ATOM     53  H24 MOL d         -31.746  49.440  33.086  0.00  0.00     0.084 H 
ATOM     54  CZ  MOL d         -29.312  49.525  35.431  0.00  0.00     0.082 A 
ATOM     55  H26 MOL d         -30.708  51.044  34.731  0.00  0.00     0.087 H 
ATOM     56  CE1 MOL d         -28.839  48.201  35.342  0.00  0.00    -0.050 A 
ATOM     57  CD1 MOL d         -29.420  47.324  34.426  0.00  0.00    -0.074 A 
ATOM     58  H25 MOL d         -28.029  47.866  35.981  0.00  0.00     0.087 H 
ATOM     59  H23 MOL d         -29.066  46.303  34.342  0.00  0.00     0.084 H 
BRANCH  54  60
ATOM     60  OH  MOL d         -28.737  50.433  36.342  0.00  0.00    -0.240 OA
BRANCH  60  61
ATOM     61  P   MOL d         -27.454  51.385  35.902  0.00  0.00     0.427 P 
ATOM     62  O3P MOL d         -27.943  52.638  35.258  0.00  0.00    -0.617 OA
ATOM     63  O2P MOL d         -26.689  51.759  37.116  0.00  0.00    -0.617 OA
ATOM     64  O1P MOL d         -26.698  50.578  34.926  0.00  0.00    -0.617 OA
ENDBRANCH  60  61
ENDBRANCH  54  60
ENDBRANCH  47  50
ENDBRANCH  46  47
BRANCH  46  65
ATOM     65  C   MOL d         -29.480  47.778  30.990  0.00  0.00     0.246 C 
ATOM     66  O   MOL d         -30.047  48.836  30.653  0.00  0.00    -0.271 OA
ATOM     67  N   MOL d         -28.164  47.689  31.022  0.00  0.00    -0.344 N 
ATOM     68  H27 MOL d         -27.720  46.826  31.265  0.00  0.00     0.163 HD
BRANCH  67  69
ATOM     69  CA  MOL d         -27.371  48.855  30.698  0.00  0.00     0.104 C 
ATOM     70  H28 MOL d         -28.037  49.726  30.608  0.00  0.00     0.090 H 
BRANCH  69  71
ATOM     71  C   MOL d         -26.659  48.618  29.366  0.00  0.00     0.197 C 
ATOM     72  OXT MOL d         -25.698  49.343  29.118  0.00  0.00    -0.646 OA
ATOM     73  O   MOL d         -27.057  47.726  28.552  0.00  0.00    -0.646 OA
ENDBRANCH  69  71
BRANCH  69  74
ATOM     74  CB  MOL d         -26.309  49.145  31.796  0.00  0.00     0.037 C 
ATOM     75  H29 MOL d         -26.735  49.858  32.516  0.00  0.00     0.051 H 
ATOM     76  H30 MOL d         -25.424  49.591  31.317  0.00  0.00     0.051 H 
BRANCH  74  77
ATOM     77  CG  MOL d         -25.859  47.851  32.577  0.00  0.00     0.217 C 
ATOM     78  OD1 MOL d         -25.606  46.838  31.997  0.00  0.00    -0.274 OA
ATOM     79  ND2 MOL d         -25.811  47.934  33.877  0.00  0.00    -0.370 N 
ATOM     80  H31 MOL d         -25.532  47.141  34.418  0.00  0.00     0.159 HD
ATOM     81  H32 MOL d         -26.053  48.791  34.333  0.00  0.00     0.159 HD
ENDBRANCH  74  77
ENDBRANCH  69  74
ENDBRANCH  67  69
ENDBRANCH  46  65
BRANCH  46  82
ATOM     82  CH3 MOL d         -31.397  46.016  30.326  0.00  0.00    -0.044 C 
ATOM     83  H18 MOL d         -32.381  46.386  30.649  0.00  0.00     0.031 H 
ATOM     84  H19 MOL d         -31.406  44.916  30.309  0.00  0.00     0.031 H 
ATOM     85  H20 MOL d         -31.175  46.396  29.318  0.00  0.00     0.031 H 
ENDBRANCH  46  82
ENDBRANCH   3  46
TORSDOF 21
ENDMDL
MODEL 6
REMARK VINA RESULT:      -5.1      2.757      4.582
REMARK  21 active torsions:
REMARK  status: ('A' for Active; 'I' for Inactive)
REMARK    1  A    between atoms: C12_6  and  C3_3 
REMARK    2  A    between atoms: O13_7  and  C12_6 
REMARK    3  A    between atoms: C16_8  and  O13_7 
REMARK    4  A    between atoms: C5_11  and  N11_10 
REMARK    5  A    between atoms: CA_13  and  N_12 
REMARK    6  A    between atoms: CA_13  and  CB_16 
REMARK    7  A    between atoms: C_14  and  CA_13 
REMARK       I    between atoms: N_28  and  C_14 
REMARK    8  A    between atoms: CB_16  and  CG_17 
REMARK    9  A    between atoms: CZ_22  and  OH_23 
REMARK   10  A    between atoms: OH_23  and  P_24 
REMARK   11  A    between atoms: CA_29  and  N_28 
REMARK   12  A    between atoms: CA_29  and  CB_33 
REMARK   13  A    between atoms: C_31  and  CA_29 
REMARK   14  A    between atoms: CA_29  and  CH3_30 
REMARK       I    between atoms: C_31  and  N_45 
REMARK   15  A    between atoms: CB_33  and  CG_34 
REMARK   16  A    between atoms: CZ_39  and  OH_40 
REMARK   17  A    between atoms: OH_40  and  P_41 
REMARK   18  A    between atoms: N_45  and  CA_46 
REMARK   19  A    between atoms: CA_46  and  C_47 
REMARK   20  A    between atoms: CA_46  and  CB_49 
REMARK   21  A    between atoms: CB_49  and  CG_50 
REMARK       I    between atoms: CG_50  and  ND2_52 
ROOT
ATOM      1  C   MOL d         -29.670  44.259  32.119  0.00  0.00     0.241 C 
ATOM      2  O   MOL d         -29.760  44.671  30.932  0.00  0.00    -0.271 OA
ATOM      3  N   MOL d         -29.256  44.954  33.135  0.00  0.00    -0.341 N 
ATOM      4  H17 MOL d         -29.296  44.551  34.049  0.00  0.00     0.163 HD
ENDROOT
BRANCH   1   5
ATOM      5  CA  MOL d         -30.192  42.942  32.590  0.00  0.00     0.094 C 
ATOM      6  H10 MOL d         -30.914  42.494  31.892  0.00  0.00     0.088 H 
BRANCH   5   7
ATOM      7  N   MOL d         -29.003  42.181  32.668  0.00  0.00    -0.335 N 
ATOM      8  C16 MOL d         -28.509  41.382  31.751  0.00  0.00     0.292 C 
ATOM      9  O18 MOL d         -28.693  41.677  30.420  0.00  0.00    -0.143 OA
ATOM     10  H9  MOL d         -28.478  42.262  33.516  0.00  0.00     0.164 HD
BRANCH   8  11
ATOM     11  O13 MOL d         -27.496  40.709  32.219  0.00  0.00    -0.310 OA
BRANCH  11  12
ATOM     12  C12 MOL d         -26.932  39.472  31.755  0.00  0.00     0.053 C 
ATOM     13  H5  MOL d         -27.774  38.770  31.653  0.00  0.00     0.082 H 
ATOM     14  H6  MOL d         -26.507  39.680  30.761  0.00  0.00     0.082 H 
BRANCH  12  15
ATOM     15  C3  MOL d         -25.880  38.751  32.514  0.00  0.00    -0.032 A 
ATOM     16  C2  MOL d         -24.568  39.244  32.634  0.00  0.00    -0.075 A 
ATOM     17  C1  MOL d         -23.627  38.504  33.406  0.00  0.00    -0.080 A 
ATOM     18  H2  MOL d         -24.279  40.168  32.148  0.00  0.00     0.084 H 
ATOM     19  C6  MOL d         -24.013  37.279  34.018  0.00  0.00    -0.058 A 
ATOM     20  H1  MOL d         -22.615  38.875  33.527  0.00  0.00     0.083 H 
ATOM     21  C5  MOL d         -25.329  36.805  33.868  0.00  0.00     0.026 A 
ATOM     22  H4  MOL d         -23.294  36.713  34.600  0.00  0.00     0.086 H 
ATOM     23  C4  MOL d         -26.259  37.543  33.125  0.00  0.00    -0.050 A 
ATOM     24  H3  MOL d         -27.276  37.182  33.021  0.00  0.00     0.087 H 
BRANCH  21  25
ATOM     25  N11 MOL d         -25.717  35.637  34.428  0.00  0.00    -0.399 N 
ATOM     26  H7  MOL d         -26.702  35.342  34.375  0.00  0.00     0.156 HD
ATOM     27  H8  MOL d         -25.027  35.042  34.910  0.00  0.00     0.156 HD
ENDBRANCH  21  25
ENDBRANCH  12  15
ENDBRANCH  11  12
ENDBRANCH   8  11
ENDBRANCH   5   7
BRANCH   5  28
ATOM     28  CB  MOL d         -30.852  43.180  33.979  0.00  0.00    -0.014 C 
ATOM     29  H11 MOL d         -31.807  43.706  33.832  0.00  0.00     0.043 H 
ATOM     30  H12 MOL d         -30.181  43.803  34.589  0.00  0.00     0.043 H 
BRANCH  28  31
ATOM     31  CG  MOL d         -31.120  41.875  34.723  0.00  0.00    -0.056 A 
ATOM     32  CD2 MOL d         -31.526  40.703  34.032  0.00  0.00    -0.074 A 
ATOM     33  CE2 MOL d         -31.756  39.495  34.735  0.00  0.00    -0.050 A 
ATOM     34  H14 MOL d         -31.661  40.733  32.957  0.00  0.00     0.084 H 
ATOM     35  CZ  MOL d         -31.539  39.534  36.146  0.00  0.00     0.082 A 
ATOM     36  H16 MOL d         -32.078  38.592  34.230  0.00  0.00     0.087 H 
ATOM     37  CE1 MOL d         -31.134  40.674  36.840  0.00  0.00    -0.050 A 
ATOM     38  CD1 MOL d         -30.928  41.844  36.128  0.00  0.00    -0.074 A 
ATOM     39  H15 MOL d         -30.984  40.645  37.914  0.00  0.00     0.087 H 
ATOM     40  H13 MOL d         -30.618  42.743  36.649  0.00  0.00     0.084 H 
BRANCH  35  41
ATOM     41  OH  MOL d         -31.749  38.360  36.887  0.00  0.00    -0.240 OA
BRANCH  41  42
ATOM     42  P   MOL d         -30.752  37.238  37.141  0.00  0.00     0.427 P 
ATOM     43  O3P MOL d         -29.571  37.806  37.973  0.00  0.00    -0.617 OA
ATOM     44  O2P MOL d         -31.335  36.084  37.804  0.00  0.00    -0.617 OA
ATOM     45  O1P MOL d         -30.248  36.843  35.848  0.00  0.00    -0.617 OA
ENDBRANCH  41  42
ENDBRANCH  35  41
ENDBRANCH  28  31
ENDBRANCH   5  28
ENDBRANCH   1   5
BRANCH   3  46
ATOM     46  CA  MOL d         -28.745  46.281  32.982  0.00  0.00     0.114 C 
BRANCH  46  47
ATOM     47  CB  MOL d         -28.179  46.579  34.417  0.00  0.00    -0.009 C 
ATOM     48  H21 MOL d         -27.262  45.987  34.549  0.00  0.00     0.044 H 
ATOM     49  H22 MOL d         -28.933  46.257  35.151  0.00  0.00     0.044 H 
BRANCH  47  50
ATOM     50  CG  MOL d         -27.839  48.047  34.703  0.00  0.00    -0.055 A 
ATOM     51  CD2 MOL d         -26.689  48.616  34.146  0.00  0.00    -0.074 A 
ATOM     52  CE2 MOL d         -26.337  49.974  34.370  0.00  0.00    -0.050 A 
ATOM     53  H24 MOL d         -26.046  48.003  33.524  0.00  0.00     0.084 H 
ATOM     54  CZ  MOL d         -27.210  50.710  35.182  0.00  0.00     0.082 A 
ATOM     55  H26 MOL d         -25.446  50.416  33.938  0.00  0.00     0.087 H 
ATOM     56  CE1 MOL d         -28.377  50.166  35.752  0.00  0.00    -0.050 A 
ATOM     57  CD1 MOL d         -28.697  48.828  35.518  0.00  0.00    -0.074 A 
ATOM     58  H25 MOL d         -29.022  50.782  36.369  0.00  0.00     0.087 H 
ATOM     59  H23 MOL d         -29.589  48.392  35.951  0.00  0.00     0.084 H 
BRANCH  54  60
ATOM     60  OH  MOL d         -26.859  52.055  35.410  0.00  0.00    -0.240 OA
BRANCH  60  61
ATOM     61  P   MOL d         -27.861  53.066  36.259  0.00  0.00     0.427 P 
ATOM     62  O3P MOL d         -29.286  52.705  36.007  0.00  0.00    -0.617 OA
ATOM     63  O2P MOL d         -27.594  52.906  37.709  0.00  0.00    -0.617 OA
ATOM     64  O1P MOL d         -27.581  54.412  35.729  0.00  0.00    -0.617 OA
ENDBRANCH  60  61
ENDBRANCH  54  60
ENDBRANCH  47  50
ENDBRANCH  46  47
BRANCH  46  65
ATOM     65  C   MOL d         -27.544  46.352  32.006  0.00  0.00     0.246 C 
ATOM     66  O   MOL d         -26.534  45.644  32.190  0.00  0.00    -0.271 OA
ATOM     67  N   MOL d         -27.598  47.221  31.015  0.00  0.00    -0.344 N 
ATOM     68  H27 MOL d         -28.401  47.804  30.895  0.00  0.00     0.163 HD
BRANCH  67  69
ATOM     69  CA  MOL d         -26.478  47.320  30.104  0.00  0.00     0.104 C 
ATOM     70  H28 MOL d         -26.003  46.332  30.012  0.00  0.00     0.090 H 
BRANCH  69  71
ATOM     71  C   MOL d         -25.467  48.320  30.666  0.00  0.00     0.197 C 
ATOM     72  OXT MOL d         -25.712  49.511  30.488  0.00  0.00    -0.646 OA
ATOM     73  O   MOL d         -24.418  47.932  31.272  0.00  0.00    -0.646 OA
ENDBRANCH  69  71
BRANCH  69  74
ATOM     74  CB  MOL d         -26.930  47.795  28.694  0.00  0.00     0.037 C 
ATOM     75  H29 MOL d         -26.668  47.017  27.962  0.00  0.00     0.051 H 
ATOM     76  H30 MOL d         -26.394  48.723  28.449  0.00  0.00     0.051 H 
BRANCH  74  77
ATOM     77  CG  MOL d         -28.479  48.070  28.602  0.00  0.00     0.217 C 
ATOM     78  OD1 MOL d         -29.264  47.171  28.552  0.00  0.00    -0.274 OA
ATOM     79  ND2 MOL d         -28.854  49.318  28.552  0.00  0.00    -0.370 N 
ATOM     80  H31 MOL d         -29.826  49.546  28.493  0.00  0.00     0.159 HD
ATOM     81  H32 MOL d         -28.170  50.047  28.571  0.00  0.00     0.159 HD
ENDBRANCH  74  77
ENDBRANCH  69  74
ENDBRANCH  67  69
ENDBRANCH  46  65
BRANCH  46  82
ATOM     82  CH3 MOL d         -29.905  47.306  32.862  0.00  0.00    -0.044 C 
ATOM     83  H18 MOL d         -29.533  48.312  33.106  0.00  0.00     0.031 H 
ATOM     84  H19 MOL d         -30.710  47.034  33.561  0.00  0.00     0.031 H 
ATOM     85  H20 MOL d         -30.295  47.299  31.834  0.00  0.00     0.031 H 
ENDBRANCH  46  82
ENDBRANCH   3  46
TORSDOF 21
ENDMDL
MODEL 7
REMARK VINA RESULT:      -4.9      3.661      7.257
REMARK  21 active torsions:
REMARK  status: ('A' for Active; 'I' for Inactive)
REMARK    1  A    between atoms: C12_6  and  C3_3 
REMARK    2  A    between atoms: O13_7  and  C12_6 
REMARK    3  A    between atoms: C16_8  and  O13_7 
REMARK    4  A    between atoms: C5_11  and  N11_10 
REMARK    5  A    between atoms: CA_13  and  N_12 
REMARK    6  A    between atoms: CA_13  and  CB_16 
REMARK    7  A    between atoms: C_14  and  CA_13 
REMARK       I    between atoms: N_28  and  C_14 
REMARK    8  A    between atoms: CB_16  and  CG_17 
REMARK    9  A    between atoms: CZ_22  and  OH_23 
REMARK   10  A    between atoms: OH_23  and  P_24 
REMARK   11  A    between atoms: CA_29  and  N_28 
REMARK   12  A    between atoms: CA_29  and  CB_33 
REMARK   13  A    between atoms: C_31  and  CA_29 
REMARK   14  A    between atoms: CA_29  and  CH3_30 
REMARK       I    between atoms: C_31  and  N_45 
REMARK   15  A    between atoms: CB_33  and  CG_34 
REMARK   16  A    between atoms: CZ_39  and  OH_40 
REMARK   17  A    between atoms: OH_40  and  P_41 
REMARK   18  A    between atoms: N_45  and  CA_46 
REMARK   19  A    between atoms: CA_46  and  C_47 
REMARK   20  A    between atoms: CA_46  and  CB_49 
REMARK   21  A    between atoms: CB_49  and  CG_50 
REMARK       I    between atoms: CG_50  and  ND2_52 
ROOT
ATOM      1  C   MOL d         -28.134  45.879  33.067  0.00  0.00     0.241 C 
ATOM      2  O   MOL d         -29.318  46.057  32.677  0.00  0.00    -0.271 OA
ATOM      3  N   MOL d         -27.652  46.235  34.220  0.00  0.00    -0.341 N 
ATOM      4  H17 MOL d         -26.716  45.977  34.457  0.00  0.00     0.163 HD
ENDROOT
BRANCH   1   5
ATOM      5  CA  MOL d         -27.121  45.068  32.329  0.00  0.00     0.094 C 
ATOM      6  H10 MOL d         -26.538  44.409  32.988  0.00  0.00     0.088 H 
BRANCH   5   7
ATOM      7  N   MOL d         -27.944  44.328  31.449  0.00  0.00    -0.335 N 
ATOM      8  C16 MOL d         -27.874  43.044  31.187  0.00  0.00     0.292 C 
ATOM      9  O18 MOL d         -27.476  42.169  32.171  0.00  0.00    -0.143 OA
ATOM     10  H9  MOL d         -28.659  44.840  30.973  0.00  0.00     0.164 HD
BRANCH   8  11
ATOM     11  O13 MOL d         -28.668  42.727  30.203  0.00  0.00    -0.310 OA
BRANCH  11  12
ATOM     12  C12 MOL d         -28.761  41.496  29.468  0.00  0.00     0.053 C 
ATOM     13  H5  MOL d         -29.828  41.353  29.241  0.00  0.00     0.082 H 
ATOM     14  H6  MOL d         -28.204  41.653  28.532  0.00  0.00     0.082 H 
BRANCH  12  15
ATOM     15  C3  MOL d         -28.280  40.207  30.027  0.00  0.00    -0.032 A 
ATOM     16  C2  MOL d         -29.087  39.391  30.838  0.00  0.00    -0.075 A 
ATOM     17  C1  MOL d         -28.558  38.155  31.309  0.00  0.00    -0.080 A 
ATOM     18  H2  MOL d         -30.094  39.696  31.101  0.00  0.00     0.084 H 
ATOM     19  C6  MOL d         -27.226  37.778  30.978  0.00  0.00    -0.058 A 
ATOM     20  H1  MOL d         -29.169  37.501  31.921  0.00  0.00     0.083 H 
ATOM     21  C5  MOL d         -26.437  38.624  30.176  0.00  0.00     0.026 A 
ATOM     22  H4  MOL d         -26.821  36.841  31.342  0.00  0.00     0.086 H 
ATOM     23  C4  MOL d         -26.967  39.830  29.697  0.00  0.00    -0.050 A 
ATOM     24  H3  MOL d         -26.361  40.474  29.070  0.00  0.00     0.087 H 
BRANCH  21  25
ATOM     25  N11 MOL d         -25.165  38.295  29.858  0.00  0.00    -0.399 N 
ATOM     26  H7  MOL d         -24.387  38.907  30.146  0.00  0.00     0.156 HD
ATOM     27  H8  MOL d         -24.972  37.432  29.329  0.00  0.00     0.156 HD
ENDBRANCH  21  25
ENDBRANCH  12  15
ENDBRANCH  11  12
ENDBRANCH   8  11
ENDBRANCH   5   7
BRANCH   5  28
ATOM     28  CB  MOL d         -26.184  46.066  31.588  0.00  0.00    -0.014 C 
ATOM     29  H11 MOL d         -25.654  45.528  30.788  0.00  0.00     0.043 H 
ATOM     30  H12 MOL d         -25.453  46.465  32.307  0.00  0.00     0.043 H 
BRANCH  28  31
ATOM     31  CG  MOL d         -26.953  47.231  30.972  0.00  0.00    -0.056 A 
ATOM     32  CD2 MOL d         -27.797  47.044  29.847  0.00  0.00    -0.074 A 
ATOM     33  CE2 MOL d         -28.516  48.132  29.295  0.00  0.00    -0.050 A 
ATOM     34  H14 MOL d         -27.892  46.058  29.405  0.00  0.00     0.084 H 
ATOM     35  CZ  MOL d         -28.350  49.393  29.945  0.00  0.00     0.082 A 
ATOM     36  H16 MOL d         -29.157  48.015  28.429  0.00  0.00     0.087 H 
ATOM     37  CE1 MOL d         -27.530  49.594  31.056  0.00  0.00    -0.050 A 
ATOM     38  CD1 MOL d         -26.830  48.514  31.565  0.00  0.00    -0.074 A 
ATOM     39  H15 MOL d         -27.442  50.575  31.510  0.00  0.00     0.087 H 
ATOM     40  H13 MOL d         -26.183  48.649  32.425  0.00  0.00     0.084 H 
BRANCH  35  41
ATOM     41  OH  MOL d         -29.045  50.503  29.439  0.00  0.00    -0.240 OA
BRANCH  41  42
ATOM     42  P   MOL d         -30.198  51.248  30.097  0.00  0.00     0.427 P 
ATOM     43  O3P MOL d         -31.467  50.356  30.026  0.00  0.00    -0.617 OA
ATOM     44  O2P MOL d         -29.926  51.639  31.471  0.00  0.00    -0.617 OA
ATOM     45  O1P MOL d         -30.427  52.428  29.300  0.00  0.00    -0.617 OA
ENDBRANCH  41  42
ENDBRANCH  35  41
ENDBRANCH  28  31
ENDBRANCH   5  28
ENDBRANCH   1   5
BRANCH   3  46
ATOM     46  CA  MOL d         -28.425  46.985  35.160  0.00  0.00     0.114 C 
BRANCH  46  47
ATOM     47  CB  MOL d         -29.137  48.034  34.233  0.00  0.00    -0.009 C 
ATOM     48  H21 MOL d         -30.141  47.653  33.998  0.00  0.00     0.044 H 
ATOM     49  H22 MOL d         -28.550  48.119  33.306  0.00  0.00     0.044 H 
BRANCH  47  50
ATOM     50  CG  MOL d         -29.293  49.441  34.822  0.00  0.00    -0.055 A 
ATOM     51  CD2 MOL d         -28.391  50.450  34.465  0.00  0.00    -0.074 A 
ATOM     52  CE2 MOL d         -28.501  51.772  34.973  0.00  0.00    -0.050 A 
ATOM     53  H24 MOL d         -27.583  50.215  33.781  0.00  0.00     0.084 H 
ATOM     54  CZ  MOL d         -29.567  52.007  35.851  0.00  0.00     0.082 A 
ATOM     55  H26 MOL d         -27.802  52.554  34.697  0.00  0.00     0.087 H 
ATOM     56  CE1 MOL d         -30.494  51.014  36.224  0.00  0.00    -0.050 A 
ATOM     57  CD1 MOL d         -30.360  49.722  35.712  0.00  0.00    -0.074 A 
ATOM     58  H25 MOL d         -31.305  51.251  36.904  0.00  0.00     0.087 H 
ATOM     59  H23 MOL d         -31.062  48.946  35.991  0.00  0.00     0.084 H 
BRANCH  54  60
ATOM     60  OH  MOL d         -29.674  53.316  36.360  0.00  0.00    -0.240 OA
BRANCH  60  61
ATOM     61  P   MOL d         -28.350  54.107  36.967  0.00  0.00     0.427 P 
ATOM     62  O3P MOL d         -27.293  53.124  37.340  0.00  0.00    -0.617 OA
ATOM     63  O2P MOL d         -27.798  55.001  35.920  0.00  0.00    -0.617 OA
ATOM     64  O1P MOL d         -28.841  54.802  38.171  0.00  0.00    -0.617 OA
ENDBRANCH  60  61
ENDBRANCH  54  60
ENDBRANCH  47  50
ENDBRANCH  46  47
BRANCH  46  65
ATOM     65  C   MOL d         -29.546  46.143  35.822  0.00  0.00     0.246 C 
ATOM     66  O   MOL d         -30.186  46.591  36.793  0.00  0.00    -0.271 OA
ATOM     67  N   MOL d         -29.758  44.923  35.368  0.00  0.00    -0.344 N 
ATOM     68  H27 MOL d         -29.217  44.564  34.607  0.00  0.00     0.163 HD
BRANCH  67  69
ATOM     69  CA  MOL d         -30.784  44.110  35.985  0.00  0.00     0.104 C 
ATOM     70  H28 MOL d         -31.249  44.682  36.803  0.00  0.00     0.090 H 
BRANCH  69  71
ATOM     71  C   MOL d         -30.141  42.843  36.551  0.00  0.00     0.197 C 
ATOM     72  OXT MOL d         -28.933  42.711  36.370  0.00  0.00    -0.646 OA
ATOM     73  O   MOL d         -30.831  41.967  37.163  0.00  0.00    -0.646 OA
ENDBRANCH  69  71
BRANCH  69  74
ATOM     74  CB  MOL d         -31.884  43.708  34.964  0.00  0.00     0.037 C 
ATOM     75  H29 MOL d         -32.595  44.541  34.868  0.00  0.00     0.051 H 
ATOM     76  H30 MOL d         -32.409  42.820  35.347  0.00  0.00     0.051 H 
BRANCH  74  77
ATOM     77  CG  MOL d         -31.308  43.372  33.535  0.00  0.00     0.217 C 
ATOM     78  OD1 MOL d         -30.496  42.509  33.385  0.00  0.00    -0.274 OA
ATOM     79  ND2 MOL d         -31.734  44.102  32.542  0.00  0.00    -0.370 N 
ATOM     80  H31 MOL d         -31.398  43.929  31.616  0.00  0.00     0.159 HD
ATOM     81  H32 MOL d         -32.395  44.833  32.706  0.00  0.00     0.159 HD
ENDBRANCH  74  77
ENDBRANCH  69  74
ENDBRANCH  67  69
ENDBRANCH  46  65
BRANCH  46  82
ATOM     82  CH3 MOL d         -27.508  47.882  36.036  0.00  0.00    -0.044 C 
ATOM     83  H18 MOL d         -26.459  47.725  35.746  0.00  0.00     0.031 H 
ATOM     84  H19 MOL d         -27.639  47.617  37.095  0.00  0.00     0.031 H 
ATOM     85  H20 MOL d         -27.776  48.938  35.885  0.00  0.00     0.031 H 
ENDBRANCH  46  82
ENDBRANCH   3  46
TORSDOF 21
ENDMDL
MODEL 8
REMARK VINA RESULT:      -4.3      2.155      3.483
REMARK  21 active torsions:
REMARK  status: ('A' for Active; 'I' for Inactive)
REMARK    1  A    between atoms: C12_6  and  C3_3 
REMARK    2  A    between atoms: O13_7  and  C12_6 
REMARK    3  A    between atoms: C16_8  and  O13_7 
REMARK    4  A    between atoms: C5_11  and  N11_10 
REMARK    5  A    between atoms: CA_13  and  N_12 
REMARK    6  A    between atoms: CA_13  and  CB_16 
REMARK    7  A    between atoms: C_14  and  CA_13 
REMARK       I    between atoms: N_28  and  C_14 
REMARK    8  A    between atoms: CB_16  and  CG_17 
REMARK    9  A    between atoms: CZ_22  and  OH_23 
REMARK   10  A    between atoms: OH_23  and  P_24 
REMARK   11  A    between atoms: CA_29  and  N_28 
REMARK   12  A    between atoms: CA_29  and  CB_33 
REMARK   13  A    between atoms: C_31  and  CA_29 
REMARK   14  A    between atoms: CA_29  and  CH3_30 
REMARK       I    between atoms: C_31  and  N_45 
REMARK   15  A    between atoms: CB_33  and  CG_34 
REMARK   16  A    between atoms: CZ_39  and  OH_40 
REMARK   17  A    between atoms: OH_40  and  P_41 
REMARK   18  A    between atoms: N_45  and  CA_46 
REMARK   19  A    between atoms: CA_46  and  C_47 
REMARK   20  A    between atoms: CA_46  and  CB_49 
REMARK   21  A    between atoms: CB_49  and  CG_50 
REMARK       I    between atoms: CG_50  and  ND2_52 
ROOT
ATOM      1  C   MOL d         -30.567  44.979  33.019  0.00  0.00     0.241 C 
ATOM      2  O   MOL d         -31.632  44.518  32.531  0.00  0.00    -0.271 OA
ATOM      3  N   MOL d         -29.981  46.082  32.659  0.00  0.00    -0.341 N 
ATOM      4  H17 MOL d         -29.178  46.394  33.166  0.00  0.00     0.163 HD
ENDROOT
BRANCH   1   5
ATOM      5  CA  MOL d         -29.886  44.419  34.223  0.00  0.00     0.094 C 
ATOM      6  H10 MOL d         -30.191  44.914  35.156  0.00  0.00     0.088 H 
BRANCH   5   7
ATOM      7  N   MOL d         -30.314  43.072  34.185  0.00  0.00    -0.335 N 
ATOM      8  C16 MOL d         -30.611  42.303  35.206  0.00  0.00     0.292 C 
ATOM      9  O18 MOL d         -31.176  42.856  36.332  0.00  0.00    -0.143 OA
ATOM     10  H9  MOL d         -30.400  42.659  33.278  0.00  0.00     0.164 HD
BRANCH   8  11
ATOM     11  O13 MOL d         -30.800  41.072  34.821  0.00  0.00    -0.310 OA
BRANCH  11  12
ATOM     12  C12 MOL d         -30.440  40.440  33.583  0.00  0.00     0.053 C 
ATOM     13  H5  MOL d         -31.353  40.424  32.969  0.00  0.00     0.082 H 
ATOM     14  H6  MOL d         -29.692  41.094  33.109  0.00  0.00     0.082 H 
BRANCH  12  15
ATOM     15  C3  MOL d         -29.880  39.066  33.533  0.00  0.00    -0.032 A 
ATOM     16  C2  MOL d         -29.554  38.344  34.695  0.00  0.00    -0.075 A 
ATOM     17  C1  MOL d         -29.050  37.019  34.559  0.00  0.00    -0.080 A 
ATOM     18  H2  MOL d         -29.685  38.788  35.675  0.00  0.00     0.084 H 
ATOM     19  C6  MOL d         -28.861  36.458  33.265  0.00  0.00    -0.058 A 
ATOM     20  H1  MOL d         -28.810  36.437  35.442  0.00  0.00     0.083 H 
ATOM     21  C5  MOL d         -29.182  37.211  32.121  0.00  0.00     0.026 A 
ATOM     22  H4  MOL d         -28.470  35.452  33.162  0.00  0.00     0.086 H 
ATOM     23  C4  MOL d         -29.697  38.507  32.257  0.00  0.00    -0.050 A 
ATOM     24  H3  MOL d         -29.955  39.081  31.373  0.00  0.00     0.087 H 
BRANCH  21  25
ATOM     25  N11 MOL d         -28.998  36.706  30.880  0.00  0.00    -0.399 N 
ATOM     26  H7  MOL d         -28.302  37.128  30.249  0.00  0.00     0.156 HD
ATOM     27  H8  MOL d         -29.555  35.897  30.565  0.00  0.00     0.156 HD
ENDBRANCH  21  25
ENDBRANCH  12  15
ENDBRANCH  11  12
ENDBRANCH   8  11
ENDBRANCH   5   7
BRANCH   5  28
ATOM     28  CB  MOL d         -28.353  44.576  33.999  0.00  0.00    -0.014 C 
ATOM     29  H11 MOL d         -27.854  44.614  34.978  0.00  0.00     0.043 H 
ATOM     30  H12 MOL d         -28.169  45.515  33.457  0.00  0.00     0.043 H 
BRANCH  28  31
ATOM     31  CG  MOL d         -27.767  43.421  33.192  0.00  0.00    -0.056 A 
ATOM     32  CD2 MOL d         -28.353  43.003  31.970  0.00  0.00    -0.074 A 
ATOM     33  CE2 MOL d         -27.787  41.939  31.225  0.00  0.00    -0.050 A 
ATOM     34  H14 MOL d         -29.242  43.502  31.602  0.00  0.00     0.084 H 
ATOM     35  CZ  MOL d         -26.607  41.345  31.768  0.00  0.00     0.082 A 
ATOM     36  H16 MOL d         -28.225  41.595  30.295  0.00  0.00     0.087 H 
ATOM     37  CE1 MOL d         -26.013  41.747  32.965  0.00  0.00    -0.050 A 
ATOM     38  CD1 MOL d         -26.595  42.782  33.677  0.00  0.00    -0.074 A 
ATOM     39  H15 MOL d         -25.116  41.261  33.329  0.00  0.00     0.087 H 
ATOM     40  H13 MOL d         -26.153  43.108  34.612  0.00  0.00     0.084 H 
BRANCH  35  41
ATOM     41  OH  MOL d         -26.005  40.290  31.065  0.00  0.00    -0.240 OA
BRANCH  41  42
ATOM     42  P   MOL d         -25.641  38.913  31.602  0.00  0.00     0.427 P 
ATOM     43  O3P MOL d         -24.098  38.750  31.534  0.00  0.00    -0.617 OA
ATOM     44  O2P MOL d         -26.120  38.672  32.953  0.00  0.00    -0.617 OA
ATOM     45  O1P MOL d         -26.239  37.955  30.704  0.00  0.00    -0.617 OA
ENDBRANCH  41  42
ENDBRANCH  35  41
ENDBRANCH  28  31
ENDBRANCH   5  28
ENDBRANCH   1   5
BRANCH   3  46
ATOM     46  CA  MOL d         -30.454  46.861  31.557  0.00  0.00     0.114 C 
BRANCH  46  47
ATOM     47  CB  MOL d         -31.579  47.727  32.230  0.00  0.00    -0.009 C 
ATOM     48  H21 MOL d         -32.360  47.043  32.595  0.00  0.00     0.044 H 
ATOM     49  H22 MOL d         -32.002  48.389  31.459  0.00  0.00     0.044 H 
BRANCH  47  50
ATOM     50  CG  MOL d         -31.129  48.600  33.406  0.00  0.00    -0.055 A 
ATOM     51  CD2 MOL d         -30.800  48.005  34.630  0.00  0.00    -0.074 A 
ATOM     52  CE2 MOL d         -30.364  48.770  35.745  0.00  0.00    -0.050 A 
ATOM     53  H24 MOL d         -30.880  46.929  34.729  0.00  0.00     0.084 H 
ATOM     54  CZ  MOL d         -30.283  50.155  35.548  0.00  0.00     0.082 A 
ATOM     55  H26 MOL d         -30.110  48.309  36.693  0.00  0.00     0.087 H 
ATOM     56  CE1 MOL d         -30.602  50.781  34.328  0.00  0.00    -0.050 A 
ATOM     57  CD1 MOL d         -31.030  50.006  33.248  0.00  0.00    -0.074 A 
ATOM     58  H25 MOL d         -30.516  51.857  34.227  0.00  0.00     0.087 H 
ATOM     59  H23 MOL d         -31.282  50.472  32.303  0.00  0.00     0.084 H 
BRANCH  54  60
ATOM     60  OH  MOL d         -29.858  50.914  36.655  0.00  0.00    -0.240 OA
BRANCH  60  61
ATOM     61  P   MOL d         -28.858  52.222  36.459  0.00  0.00     0.427 P 
ATOM     62  O3P MOL d         -28.037  52.059  35.225  0.00  0.00    -0.617 OA
ATOM     63  O2P MOL d         -29.684  53.444  36.305  0.00  0.00    -0.617 OA
ATOM     64  O1P MOL d         -27.987  52.217  37.649  0.00  0.00    -0.617 OA
ENDBRANCH  60  61
ENDBRANCH  54  60
ENDBRANCH  47  50
ENDBRANCH  46  47
BRANCH  46  65
ATOM     65  C   MOL d         -29.389  47.851  31.023  0.00  0.00     0.246 C 
ATOM     66  O   MOL d         -29.714  48.782  30.259  0.00  0.00    -0.271 OA
ATOM     67  N   MOL d         -28.127  47.646  31.350  0.00  0.00    -0.344 N 
ATOM     68  H27 MOL d         -27.876  46.878  31.940  0.00  0.00     0.163 HD
BRANCH  67  69
ATOM     69  CA  MOL d         -27.113  48.545  30.845  0.00  0.00     0.104 C 
ATOM     70  H28 MOL d         -27.582  49.261  30.154  0.00  0.00     0.090 H 
BRANCH  69  71
ATOM     71  C   MOL d         -26.057  47.732  30.094  0.00  0.00     0.197 C 
ATOM     72  OXT MOL d         -25.943  47.955  28.891  0.00  0.00    -0.646 OA
ATOM     73  O   MOL d         -25.349  46.858  30.687  0.00  0.00    -0.646 OA
ENDBRANCH  69  71
BRANCH  69  74
ATOM     74  CB  MOL d         -26.423  49.332  31.994  0.00  0.00     0.037 C 
ATOM     75  H29 MOL d         -26.845  50.346  32.026  0.00  0.00     0.051 H 
ATOM     76  H30 MOL d         -25.346  49.389  31.782  0.00  0.00     0.051 H 
BRANCH  74  77
ATOM     77  CG  MOL d         -26.621  48.660  33.407  0.00  0.00     0.217 C 
ATOM     78  OD1 MOL d         -27.519  48.987  34.124  0.00  0.00    -0.274 OA
ATOM     79  ND2 MOL d         -25.743  47.764  33.762  0.00  0.00    -0.370 N 
ATOM     80  H31 MOL d         -25.824  47.309  34.649  0.00  0.00     0.159 HD
ATOM     81  H32 MOL d         -24.989  47.532  33.148  0.00  0.00     0.159 HD
ENDBRANCH  74  77
ENDBRANCH  69  74
ENDBRANCH  67  69
ENDBRANCH  46  65
BRANCH  46  82
ATOM     82  CH3 MOL d         -31.261  45.978  30.566  0.00  0.00    -0.044 C 
ATOM     83  H18 MOL d         -31.371  44.967  30.983  0.00  0.00     0.031 H 
ATOM     84  H19 MOL d         -30.727  45.923  29.606  0.00  0.00     0.031 H 
ATOM     85  H20 MOL d         -32.255  46.420  30.408  0.00  0.00     0.031 H 
ENDBRANCH  46  82
ENDBRANCH   3  46
TORSDOF 21
ENDMDL
