MODEL 1
REMARK VINA RESULT:     -12.0      0.000      0.000
REMARK  6 active torsions:
REMARK  status: ('A' for Active; 'I' for Inactive)
REMARK       I    between atoms: C22_2  and  N24_3 
REMARK    1  A    between atoms: C22_2  and  C19_16 
REMARK    2  A    between atoms: N24_3  and  C26_4 
REMARK    3  A    between atoms: C29_6  and  N31_10 
REMARK    4  A    between atoms: C18_19  and  C21_20 
REMARK    5  A    between atoms: C15_21  and  C12_23 
REMARK    6  A    between atoms: C2_30  and  C5_32 
ROOT
ATOM      1  C19 MOL d          39.854  30.585  33.735  0.00  0.00     0.033 A 
ATOM      2  C23 MOL d          38.699  31.058  33.097  0.00  0.00    -0.067 A 
ATOM      3  C20 MOL d          38.813  31.801  31.919  0.00  0.00    -0.075 A 
ATOM      4  C18 MOL d          40.064  32.078  31.368  0.00  0.00    -0.051 A 
ATOM      5  C15 MOL d          41.207  31.607  32.018  0.00  0.00    -0.019 A 
ATOM      6  C17 MOL d          41.114  30.875  33.185  0.00  0.00    -0.057 A 
ATOM      7  H14 MOL d          37.721  30.847  33.515  0.00  0.00     0.085 H 
ATOM      8  H15 MOL d          37.918  32.167  31.429  0.00  0.00     0.084 H 
ATOM      9  H19 MOL d          42.013  30.524  33.677  0.00  0.00     0.086 H 
ENDROOT
BRANCH   5  10
ATOM     10  C12 MOL d          42.532  31.888  31.441  0.00  0.00    -0.023 A 
ATOM     11  C9  MOL d          43.073  33.164  31.588  0.00  0.00    -0.071 A 
ATOM     12  C4  MOL d          44.340  33.436  31.066  0.00  0.00    -0.067 A 
ATOM     13  H20 MOL d          42.516  33.939  32.103  0.00  0.00     0.084 H 
ATOM     14  C1  MOL d          45.036  32.400  30.400  0.00  0.00     0.027 A 
ATOM     15  H21 MOL d          44.780  34.421  31.169  0.00  0.00     0.085 H 
ATOM     16  C3  MOL d          44.475  31.159  30.275  0.00  0.00     0.114 A 
ATOM     17  C2  MOL d          46.292  32.384  29.788  0.00  0.00     0.079 A 
ATOM     18  O8  MOL d          45.361  30.372  29.598  0.00  0.00    -0.212 OA
ATOM     19  C7  MOL d          43.239  30.879  30.788  0.00  0.00    -0.037 A 
ATOM     20  N6  MOL d          46.432  31.104  29.317  0.00  0.00    -0.131 NA
ATOM     21  H22 MOL d          42.815  29.887  30.688  0.00  0.00     0.089 H 
BRANCH  17  22
ATOM     22  C5  MOL d          47.276  33.526  29.654  0.00  0.00    -0.006 C 
ATOM     23  C10 MOL d          47.750  34.045  31.032  0.00  0.00    -0.034 C 
ATOM     24  C13 MOL d          48.958  34.962  30.845  0.00  0.00     0.082 C 
ATOM     25  H24 MOL d          48.033  33.193  31.667  0.00  0.00     0.036 H 
ATOM     26  H25 MOL d          46.935  34.606  31.513  0.00  0.00     0.036 H 
ATOM     27  N16 MOL d          48.669  36.114  29.976  0.00  0.00    -0.075 N 
ATOM     28  H26 MOL d          49.776  34.380  30.396  0.00  0.00     0.075 H 
ATOM     29  H27 MOL d          49.272  35.336  31.831  0.00  0.00     0.075 H 
ATOM     30  C14 MOL d          47.829  35.854  28.784  0.00  0.00     0.082 C 
ATOM     31  H28 MOL d          49.549  36.483  29.655  0.00  0.00     0.277 HD
ATOM     32  H29 MOL d          48.198  36.808  30.536  0.00  0.00     0.277 HD
ATOM     33  C11 MOL d          46.731  34.762  28.915  0.00  0.00    -0.034 C 
ATOM     34  H30 MOL d          48.501  35.553  27.965  0.00  0.00     0.075 H 
ATOM     35  H31 MOL d          47.329  36.797  28.519  0.00  0.00     0.075 H 
ATOM     36  H32 MOL d          45.879  35.173  29.477  0.00  0.00     0.036 H 
ATOM     37  H33 MOL d          46.396  34.464  27.910  0.00  0.00     0.036 H 
ATOM     38  H23 MOL d          48.144  33.143  29.097  0.00  0.00     0.050 H 
ENDBRANCH  17  22
ENDBRANCH   5  10
BRANCH   4  39
ATOM     39  C21 MOL d          40.157  32.887  30.077  0.00  0.00    -0.050 C 
ATOM     40  H16 MOL d          40.559  33.887  30.300  0.00  0.00     0.033 H 
ATOM     41  H17 MOL d          39.156  32.984  29.633  0.00  0.00     0.033 H 
ATOM     42  H18 MOL d          40.825  32.373  29.370  0.00  0.00     0.033 H 
ENDBRANCH   4  39
BRANCH   1  43
ATOM     43  C22 MOL d          39.841  29.820  35.005  0.00  0.00     0.256 C 
ATOM     44  O25 MOL d          40.016  30.434  36.054  0.00  0.00    -0.267 OA
ATOM     45  N24 MOL d          39.550  28.486  34.978  0.00  0.00    -0.323 N 
ATOM     46  H1  MOL d          39.389  28.070  34.083  0.00  0.00     0.169 HD
BRANCH  45  47
ATOM     47  C26 MOL d          39.459  27.653  36.099  0.00  0.00     0.037 A 
ATOM     48  C27 MOL d          39.600  28.088  37.450  0.00  0.00    -0.032 A 
ATOM     49  C29 MOL d          39.516  27.202  38.556  0.00  0.00     0.032 A 
ATOM     50  H2  MOL d          39.780  29.140  37.641  0.00  0.00     0.090 H 
ATOM     51  C32 MOL d          39.279  25.842  38.247  0.00  0.00    -0.057 A 
ATOM     52  C30 MOL d          39.129  25.402  36.926  0.00  0.00    -0.079 A 
ATOM     53  H3  MOL d          39.212  25.121  39.054  0.00  0.00     0.086 H 
ATOM     54  C28 MOL d          39.221  26.303  35.856  0.00  0.00    -0.057 A 
ATOM     55  H4  MOL d          38.940  24.353  36.729  0.00  0.00     0.083 H 
ATOM     56  H5  MOL d          39.108  25.948  34.839  0.00  0.00     0.086 H 
BRANCH  49  57
ATOM     57  N31 MOL d          39.720  27.637  39.884  0.00  0.00    -0.377 N 
ATOM     58  C33 MOL d          39.679  29.095  40.170  0.00  0.00     0.015 C 
ATOM     59  C35 MOL d          39.416  29.448  41.648  0.00  0.00     0.034 C 
ATOM     60  H6  MOL d          38.879  29.542  39.562  0.00  0.00     0.067 H 
ATOM     61  H7  MOL d          40.647  29.530  39.880  0.00  0.00     0.067 H 
ATOM     62  O37 MOL d          40.269  28.650  42.433  0.00  0.00    -0.388 OA
ATOM     63  H8  MOL d          38.367  29.240  41.904  0.00  0.00     0.076 H 
ATOM     64  H9  MOL d          39.630  30.513  41.824  0.00  0.00     0.076 H 
ATOM     65  C36 MOL d          39.907  27.283  42.404  0.00  0.00     0.034 C 
ATOM     66  C34 MOL d          40.096  26.695  40.987  0.00  0.00     0.015 C 
ATOM     67  H10 MOL d          38.852  27.183  42.698  0.00  0.00     0.076 H 
ATOM     68  H11 MOL d          40.539  26.727  43.112  0.00  0.00     0.076 H 
ATOM     69  H12 MOL d          41.154  26.422  40.863  0.00  0.00     0.067 H 
ATOM     70  H13 MOL d          39.472  25.794  40.900  0.00  0.00     0.067 H 
ENDBRANCH  49  57
ENDBRANCH  45  47
ENDBRANCH   1  43
TORSDOF 6
ENDMDL
MODEL 2
REMARK VINA RESULT:      -9.9      2.859     10.899
REMARK  6 active torsions:
REMARK  status: ('A' for Active; 'I' for Inactive)
REMARK       I    between atoms: C22_2  and  N24_3 
REMARK    1  A    between atoms: C22_2  and  C19_16 
REMARK    2  A    between atoms: N24_3  and  C26_4 
REMARK    3  A    between atoms: C29_6  and  N31_10 
REMARK    4  A    between atoms: C18_19  and  C21_20 
REMARK    5  A    between atoms: C15_21  and  C12_23 
REMARK    6  A    between atoms: C2_30  and  C5_32 
ROOT
ATOM      1  C19 MOL d          41.858  31.723  31.432  0.00  0.00     0.033 A 
ATOM      2  C23 MOL d          40.750  32.319  30.814  0.00  0.00    -0.067 A 
ATOM      3  C20 MOL d          39.492  32.235  31.416  0.00  0.00    -0.075 A 
ATOM      4  C18 MOL d          39.324  31.566  32.628  0.00  0.00    -0.051 A 
ATOM      5  C15 MOL d          40.435  30.970  33.230  0.00  0.00    -0.019 A 
ATOM      6  C17 MOL d          41.685  31.039  32.647  0.00  0.00    -0.057 A 
ATOM      7  H14 MOL d          40.868  32.844  29.873  0.00  0.00     0.085 H 
ATOM      8  H15 MOL d          38.636  32.696  30.935  0.00  0.00     0.084 H 
ATOM      9  H19 MOL d          42.532  30.564  33.126  0.00  0.00     0.086 H 
ENDROOT
BRANCH   5  10
ATOM     10  C12 MOL d          40.269  30.266  34.512  0.00  0.00    -0.023 A 
ATOM     11  C9  MOL d          40.778  30.849  35.671  0.00  0.00    -0.071 A 
ATOM     12  C4  MOL d          40.605  30.202  36.897  0.00  0.00    -0.067 A 
ATOM     13  H20 MOL d          41.304  31.795  35.622  0.00  0.00     0.084 H 
ATOM     14  C1  MOL d          39.915  28.967  36.921  0.00  0.00     0.027 A 
ATOM     15  H21 MOL d          40.993  30.637  37.811  0.00  0.00     0.085 H 
ATOM     16  C3  MOL d          39.427  28.425  35.765  0.00  0.00     0.114 A 
ATOM     17  C2  MOL d          39.602  28.111  37.980  0.00  0.00     0.079 A 
ATOM     18  O8  MOL d          38.815  27.248  36.087  0.00  0.00    -0.212 OA
ATOM     19  C7  MOL d          39.584  29.052  34.560  0.00  0.00    -0.037 A 
ATOM     20  N6  MOL d          38.921  27.072  37.397  0.00  0.00    -0.131 NA
ATOM     21  H22 MOL d          39.181  28.612  33.655  0.00  0.00     0.089 H 
BRANCH  17  22
ATOM     22  C5  MOL d          39.949  28.276  39.443  0.00  0.00    -0.006 C 
ATOM     23  C10 MOL d          39.569  27.026  40.273  0.00  0.00    -0.034 C 
ATOM     24  C13 MOL d          40.217  27.111  41.654  0.00  0.00     0.082 C 
ATOM     25  H24 MOL d          39.924  26.122  39.757  0.00  0.00     0.036 H 
ATOM     26  H25 MOL d          38.475  26.979  40.384  0.00  0.00     0.036 H 
ATOM     27  N16 MOL d          39.816  28.316  42.397  0.00  0.00    -0.075 N 
ATOM     28  H26 MOL d          41.310  27.123  41.529  0.00  0.00     0.075 H 
ATOM     29  H27 MOL d          39.923  26.225  42.236  0.00  0.00     0.075 H 
ATOM     30  C14 MOL d          39.715  29.574  41.622  0.00  0.00     0.082 C 
ATOM     31  H28 MOL d          40.493  28.462  43.129  0.00  0.00     0.277 HD
ATOM     32  H29 MOL d          38.913  28.136  42.806  0.00  0.00     0.277 HD
ATOM     33  C11 MOL d          39.253  29.459  40.142  0.00  0.00    -0.034 C 
ATOM     34  H30 MOL d          40.710  30.045  41.623  0.00  0.00     0.075 H 
ATOM     35  H31 MOL d          38.999  30.228  42.142  0.00  0.00     0.075 H 
ATOM     36  H32 MOL d          38.165  29.305  40.115  0.00  0.00     0.036 H 
ATOM     37  H33 MOL d          39.505  30.389  39.611  0.00  0.00     0.036 H 
ATOM     38  H23 MOL d          41.038  28.428  39.504  0.00  0.00     0.050 H 
ENDBRANCH  17  22
ENDBRANCH   5  10
BRANCH   4  39
ATOM     39  C21 MOL d          37.939  31.495  33.266  0.00  0.00    -0.050 C 
ATOM     40  H16 MOL d          37.977  31.929  34.276  0.00  0.00     0.033 H 
ATOM     41  H17 MOL d          37.618  30.446  33.329  0.00  0.00     0.033 H 
ATOM     42  H18 MOL d          37.223  32.062  32.651  0.00  0.00     0.033 H 
ENDBRANCH   4  39
BRANCH   1  43
ATOM     43  C22 MOL d          43.224  31.726  30.857  0.00  0.00     0.256 C 
ATOM     44  O25 MOL d          43.821  32.797  30.786  0.00  0.00    -0.267 OA
ATOM     45  N24 MOL d          43.804  30.540  30.509  0.00  0.00    -0.323 N 
ATOM     46  H1  MOL d          43.258  29.711  30.628  0.00  0.00     0.169 HD
BRANCH  45  47
ATOM     47  C26 MOL d          45.098  30.390  29.999  0.00  0.00     0.037 A 
ATOM     48  C27 MOL d          45.714  29.138  29.696  0.00  0.00    -0.032 A 
ATOM     49  C29 MOL d          47.038  29.034  29.195  0.00  0.00     0.032 A 
ATOM     50  H2  MOL d          45.146  28.229  29.855  0.00  0.00     0.090 H 
ATOM     51  C32 MOL d          47.730  30.254  29.006  0.00  0.00    -0.057 A 
ATOM     52  C30 MOL d          47.136  31.490  29.291  0.00  0.00    -0.079 A 
ATOM     53  H3  MOL d          48.747  30.231  28.632  0.00  0.00     0.086 H 
ATOM     54  C28 MOL d          45.827  31.558  29.787  0.00  0.00    -0.057 A 
ATOM     55  H4  MOL d          47.694  32.404  29.125  0.00  0.00     0.083 H 
ATOM     56  H5  MOL d          45.381  32.520  30.007  0.00  0.00     0.086 H 
BRANCH  49  57
ATOM     57  N31 MOL d          47.655  27.787  28.960  0.00  0.00    -0.377 N 
ATOM     58  C33 MOL d          47.486  26.706  29.967  0.00  0.00     0.015 C 
ATOM     59  C35 MOL d          47.748  25.285  29.430  0.00  0.00     0.034 C 
ATOM     60  H6  MOL d          46.453  26.747  30.344  0.00  0.00     0.067 H 
ATOM     61  H7  MOL d          48.186  26.896  30.795  0.00  0.00     0.067 H 
ATOM     62  O37 MOL d          48.954  25.321  28.705  0.00  0.00    -0.388 OA
ATOM     63  H8  MOL d          46.923  24.974  28.772  0.00  0.00     0.076 H 
ATOM     64  H9  MOL d          47.834  24.577  30.267  0.00  0.00     0.076 H 
ATOM     65  C36 MOL d          48.839  26.058  27.502  0.00  0.00     0.034 C 
ATOM     66  C34 MOL d          48.571  27.551  27.797  0.00  0.00     0.015 C 
ATOM     67  H10 MOL d          48.005  25.652  26.910  0.00  0.00     0.076 H 
ATOM     68  H11 MOL d          49.774  25.965  26.931  0.00  0.00     0.076 H 
ATOM     69  H12 MOL d          49.533  28.041  28.009  0.00  0.00     0.067 H 
ATOM     70  H13 MOL d          48.118  28.005  26.903  0.00  0.00     0.067 H 
ENDBRANCH  49  57
ENDBRANCH  45  47
ENDBRANCH   1  43
TORSDOF 6
ENDMDL
