MODEL 1
REMARK VINA RESULT:      -8.7      0.000      0.000
REMARK  7 active torsions:
REMARK  status: ('A' for Active; 'I' for Inactive)
REMARK    1  A    between atoms: N1_1  and  S27_27 
REMARK    2  A    between atoms: C4_4  and  N7_7 
REMARK    3  A    between atoms: C11_11  and  C14_14 
REMARK    4  A    between atoms: C14_14  and  C16_16 
REMARK    5  A    between atoms: C21_21  and  O22_22 
REMARK    6  A    between atoms: O22_22  and  C23_23 
REMARK    7  A    between atoms: S27_27  and  C28_28 
ROOT
ATOM      1  N7  LIA d           2.590  29.153   6.282  0.00  0.00    -0.218 N 
ATOM      2  C8  LIA d           1.571  29.489   7.124  0.00  0.00     0.724 A 
ATOM      3  N9  LIA d           0.984  28.566   7.933  0.00  0.00    -0.074 NA
ATOM      4  C10 LIA d           0.025  28.917   8.733  0.00  0.00     0.038 A 
ATOM      5  C11 LIA d          -0.471  30.278   8.814  0.00  0.00     0.079 A 
ATOM      6  C12 LIA d           0.171  31.227   7.931  0.00  0.00     0.156 A 
ATOM      7  N13 LIA d           1.184  30.798   7.105  0.00  0.00    -0.045 NA
ATOM      8  N26 LIA d          -0.168  32.528   7.874  0.00  0.00    -0.383 N 
ATOM      9  H10 LIA d           2.842  29.718   5.459  0.00  0.00     0.178 HD
ATOM     10  H11 LIA d          -0.425  28.162   9.367  0.00  0.00     0.117 H 
ATOM     11  H17 LIA d           0.323  33.161   7.226  0.00  0.00     0.157 HD
ATOM     12  H18 LIA d          -0.919  32.892   8.478  0.00  0.00     0.157 HD
ENDROOT
BRANCH   1  13
ATOM     13  C4  LIA d           3.299  27.918   6.644  0.00  0.00     0.029 C 
ATOM     14  C3  LIA d           4.015  27.387   5.375  0.00  0.00    -0.034 C 
ATOM     15  C2  LIA d           4.906  26.174   5.717  0.00  0.00    -0.005 C 
ATOM     16  H3  LIA d           3.260  27.084   4.635  0.00  0.00     0.037 H 
ATOM     17  H4  LIA d           4.641  28.187   4.953  0.00  0.00     0.037 H 
ATOM     18  N1  LIA d           5.906  26.566   6.749  0.00  0.00    -0.211 NA
ATOM     19  H1  LIA d           4.279  25.358   6.106  0.00  0.00     0.057 H 
ATOM     20  H2  LIA d           5.428  25.836   4.810  0.00  0.00     0.057 H 
ATOM     21  C6  LIA d           5.222  26.929   8.026  0.00  0.00    -0.005 C 
ATOM     22  C5  LIA d           4.335  28.171   7.794  0.00  0.00    -0.034 C 
ATOM     23  H8  LIA d           5.975  27.154   8.795  0.00  0.00     0.057 H 
ATOM     24  H9  LIA d           4.596  26.088   8.360  0.00  0.00     0.057 H 
ATOM     25  H6  LIA d           3.792  28.402   8.723  0.00  0.00     0.037 H 
ATOM     26  H7  LIA d           4.974  29.023   7.521  0.00  0.00     0.037 H 
ATOM     27  H5  LIA d           2.568  27.171   6.988  0.00  0.00     0.073 H 
BRANCH  18  28
ATOM     28  S27 LIA d           7.036  25.324   6.993  0.00  0.00     0.207 S 
ATOM     29  O29 LIA d           7.675  25.555   8.270  0.00  0.00    -0.212 OA
ATOM     30  O30 LIA d           8.021  25.380   5.947  0.00  0.00    -0.212 OA
BRANCH  28  31
ATOM     31  C28 LIA d           6.263  23.668   7.021  0.00  0.00     0.028 C 
ATOM     32  H19 LIA d           5.218  23.746   6.689  0.00  0.00     0.050 H 
ATOM     33  H20 LIA d           6.293  23.267   8.045  0.00  0.00     0.050 H 
ATOM     34  H21 LIA d           6.813  22.995   6.346  0.00  0.00     0.050 H 
ENDBRANCH  28  31
ENDBRANCH  18  28
ENDBRANCH   1  13
BRANCH   5  35
ATOM     35  C14 LIA d          -1.540  30.608   9.744  0.00  0.00     0.203 C 
ATOM     36  O15 LIA d          -1.689  31.773  10.152  0.00  0.00    -0.286 OA
BRANCH  35  37
ATOM     37  C16 LIA d          -2.441  29.591  10.240  0.00  0.00     0.090 A 
ATOM     38  C17 LIA d          -1.997  28.699  11.279  0.00  0.00     0.171 A 
ATOM     39  C18 LIA d          -2.873  27.692  11.793  0.00  0.00     0.156 A 
ATOM     40  F24 LIA d          -0.767  28.792  11.777  0.00  0.00    -0.202 F 
ATOM     41  C19 LIA d          -4.199  27.557  11.287  0.00  0.00    -0.040 A 
ATOM     42  F25 LIA d          -2.457  26.879  12.746  0.00  0.00    -0.203 F 
ATOM     43  C20 LIA d          -4.662  28.424  10.257  0.00  0.00    -0.047 A 
ATOM     44  H12 LIA d          -4.856  26.793  11.688  0.00  0.00     0.088 H 
ATOM     45  C21 LIA d          -3.802  29.455   9.712  0.00  0.00     0.085 A 
ATOM     46  H13 LIA d          -5.671  28.311   9.877  0.00  0.00     0.087 H 
BRANCH  45  47
ATOM     47  O22 LIA d          -4.221  30.332   8.687  0.00  0.00    -0.355 OA
BRANCH  47  48
ATOM     48  C23 LIA d          -4.223  29.716   7.374  0.00  0.00     0.010 C 
ATOM     49  H14 LIA d          -4.604  28.688   7.452  0.00  0.00     0.066 H 
ATOM     50  H15 LIA d          -3.197  29.697   6.977  0.00  0.00     0.066 H 
ATOM     51  H16 LIA d          -4.867  30.297   6.698  0.00  0.00     0.066 H 
ENDBRANCH  47  48
ENDBRANCH  45  47
ENDBRANCH  35  37
ENDBRANCH   5  35
TORSDOF 7
ENDMDL
MODEL 2
REMARK VINA RESULT:      -8.3      2.848      4.042
REMARK  7 active torsions:
REMARK  status: ('A' for Active; 'I' for Inactive)
REMARK    1  A    between atoms: N1_1  and  S27_27 
REMARK    2  A    between atoms: C4_4  and  N7_7 
REMARK    3  A    between atoms: C11_11  and  C14_14 
REMARK    4  A    between atoms: C14_14  and  C16_16 
REMARK    5  A    between atoms: C21_21  and  O22_22 
REMARK    6  A    between atoms: O22_22  and  C23_23 
REMARK    7  A    between atoms: S27_27  and  C28_28 
ROOT
ATOM      1  N7  LIA d           3.147  24.816   9.798  0.00  0.00    -0.218 N 
ATOM      2  C8  LIA d           2.259  25.746  10.251  0.00  0.00     0.724 A 
ATOM      3  N9  LIA d           2.105  26.945   9.626  0.00  0.00    -0.074 NA
ATOM      4  C10 LIA d           1.243  27.806  10.072  0.00  0.00     0.038 A 
ATOM      5  C11 LIA d           0.412  27.555  11.234  0.00  0.00     0.079 A 
ATOM      6  C12 LIA d           0.612  26.275  11.876  0.00  0.00     0.156 A 
ATOM      7  N13 LIA d           1.539  25.400  11.359  0.00  0.00    -0.045 NA
ATOM      8  N26 LIA d          -0.071  25.882  12.967  0.00  0.00    -0.383 N 
ATOM      9  H10 LIA d           3.512  24.059  10.393  0.00  0.00     0.178 HD
ATOM     10  H11 LIA d           1.140  28.753   9.554  0.00  0.00     0.117 H 
ATOM     11  H17 LIA d           0.112  24.958  13.385  0.00  0.00     0.157 HD
ATOM     12  H18 LIA d          -0.777  26.505  13.385  0.00  0.00     0.157 HD
ENDROOT
BRANCH   1  13
ATOM     13  C4  LIA d           3.541  24.982   8.393  0.00  0.00     0.029 C 
ATOM     14  C3  LIA d           4.752  25.949   8.345  0.00  0.00    -0.034 C 
ATOM     15  C2  LIA d           5.316  26.049   6.912  0.00  0.00    -0.005 C 
ATOM     16  H3  LIA d           4.430  26.946   8.677  0.00  0.00     0.037 H 
ATOM     17  H4  LIA d           5.539  25.575   9.017  0.00  0.00     0.037 H 
ATOM     18  N1  LIA d           5.718  24.695   6.439  0.00  0.00    -0.211 NA
ATOM     19  H1  LIA d           4.544  26.457   6.243  0.00  0.00     0.057 H 
ATOM     20  H2  LIA d           6.192  26.713   6.909  0.00  0.00     0.057 H 
ATOM     21  C6  LIA d           4.523  23.805   6.334  0.00  0.00    -0.005 C 
ATOM     22  C5  LIA d           3.911  23.605   7.737  0.00  0.00    -0.034 C 
ATOM     23  H8  LIA d           4.826  22.830   5.924  0.00  0.00     0.057 H 
ATOM     24  H9  LIA d           3.777  24.266   5.671  0.00  0.00     0.057 H 
ATOM     25  H6  LIA d           3.001  22.993   7.649  0.00  0.00     0.037 H 
ATOM     26  H7  LIA d           4.641  23.087   8.377  0.00  0.00     0.037 H 
ATOM     27  H5  LIA d           2.703  25.422   7.834  0.00  0.00     0.073 H 
BRANCH  18  28
ATOM     28  S27 LIA d           6.537  24.794   4.956  0.00  0.00     0.207 S 
ATOM     29  O29 LIA d           7.935  25.030   5.241  0.00  0.00    -0.212 OA
ATOM     30  O30 LIA d           6.007  25.900   4.206  0.00  0.00    -0.212 OA
BRANCH  28  31
ATOM     31  C28 LIA d           6.395  23.260   3.973  0.00  0.00     0.028 C 
ATOM     32  H19 LIA d           5.398  22.821   4.120  0.00  0.00     0.050 H 
ATOM     33  H20 LIA d           7.163  22.543   4.300  0.00  0.00     0.050 H 
ATOM     34  H21 LIA d           6.540  23.492   2.908  0.00  0.00     0.050 H 
ENDBRANCH  28  31
ENDBRANCH  18  28
ENDBRANCH   1  13
BRANCH   5  35
ATOM     35  C14 LIA d          -0.547  28.559  11.673  0.00  0.00     0.203 C 
ATOM     36  O15 LIA d          -0.398  29.145  12.759  0.00  0.00    -0.286 OA
BRANCH  35  37
ATOM     37  C16 LIA d          -1.708  28.883  10.875  0.00  0.00     0.090 A 
ATOM     38  C17 LIA d          -1.634  29.964   9.926  0.00  0.00     0.171 A 
ATOM     39  C18 LIA d          -2.766  30.297   9.118  0.00  0.00     0.156 A 
ATOM     40  F24 LIA d          -0.517  30.672   9.786  0.00  0.00    -0.202 F 
ATOM     41  C19 LIA d          -3.983  29.565   9.237  0.00  0.00    -0.040 A 
ATOM     42  F25 LIA d          -2.689  31.289   8.251  0.00  0.00    -0.203 F 
ATOM     43  C20 LIA d          -4.084  28.494  10.169  0.00  0.00    -0.047 A 
ATOM     44  H12 LIA d          -4.833  29.823   8.616  0.00  0.00     0.088 H 
ATOM     45  C21 LIA d          -2.959  28.129  11.005  0.00  0.00     0.085 A 
ATOM     46  H13 LIA d          -5.015  27.945  10.254  0.00  0.00     0.087 H 
BRANCH  45  47
ATOM     47  O22 LIA d          -3.019  27.077  11.946  0.00  0.00    -0.355 OA
BRANCH  47  48
ATOM     48  C23 LIA d          -4.274  26.352  11.913  0.00  0.00     0.010 C 
ATOM     49  H14 LIA d          -4.077  25.273  11.994  0.00  0.00     0.066 H 
ATOM     50  H15 LIA d          -4.793  26.560  10.965  0.00  0.00     0.066 H 
ATOM     51  H16 LIA d          -4.905  26.675  12.754  0.00  0.00     0.066 H 
ENDBRANCH  47  48
ENDBRANCH  45  47
ENDBRANCH  35  37
ENDBRANCH   5  35
TORSDOF 7
ENDMDL
MODEL 3
REMARK VINA RESULT:      -7.8      1.686      2.085
REMARK  7 active torsions:
REMARK  status: ('A' for Active; 'I' for Inactive)
REMARK    1  A    between atoms: N1_1  and  S27_27 
REMARK    2  A    between atoms: C4_4  and  N7_7 
REMARK    3  A    between atoms: C11_11  and  C14_14 
REMARK    4  A    between atoms: C14_14  and  C16_16 
REMARK    5  A    between atoms: C21_21  and  O22_22 
REMARK    6  A    between atoms: O22_22  and  C23_23 
REMARK    7  A    between atoms: S27_27  and  C28_28 
ROOT
ATOM      1  N7  LIA d           2.236  28.278   7.121  0.00  0.00    -0.218 N 
ATOM      2  C8  LIA d           1.429  28.298   8.220  0.00  0.00     0.724 A 
ATOM      3  N9  LIA d           1.224  27.181   8.970  0.00  0.00    -0.074 NA
ATOM      4  C10 LIA d           0.460  27.232  10.017  0.00  0.00     0.038 A 
ATOM      5  C11 LIA d          -0.207  28.448  10.445  0.00  0.00     0.079 A 
ATOM      6  C12 LIA d           0.029  29.609   9.616  0.00  0.00     0.156 A 
ATOM      7  N13 LIA d           0.849  29.497   8.517  0.00  0.00    -0.045 NA
ATOM      8  N26 LIA d          -0.514  30.815   9.865  0.00  0.00    -0.383 N 
ATOM      9  H10 LIA d           2.175  28.983   6.372  0.00  0.00     0.178 HD
ATOM     10  H11 LIA d           0.314  26.328  10.598  0.00  0.00     0.117 H 
ATOM     11  H17 LIA d          -0.312  31.610   9.240  0.00  0.00     0.157 HD
ATOM     12  H18 LIA d          -1.132  30.944  10.679  0.00  0.00     0.157 HD
ENDROOT
BRANCH   1  13
ATOM     13  C4  LIA d           3.200  27.170   7.090  0.00  0.00     0.029 C 
ATOM     14  C3  LIA d           3.468  26.807   5.607  0.00  0.00    -0.034 C 
ATOM     15  C2  LIA d           4.588  25.751   5.495  0.00  0.00    -0.005 C 
ATOM     16  H3  LIA d           2.546  26.405   5.162  0.00  0.00     0.037 H 
ATOM     17  H4  LIA d           3.771  27.714   5.063  0.00  0.00     0.037 H 
ATOM     18  N1  LIA d           5.829  26.274   6.131  0.00  0.00    -0.211 NA
ATOM     19  H1  LIA d           4.274  24.829   6.006  0.00  0.00     0.057 H 
ATOM     20  H2  LIA d           4.782  25.535   4.434  0.00  0.00     0.057 H 
ATOM     21  C6  LIA d           5.619  26.475   7.595  0.00  0.00    -0.005 C 
ATOM     22  C5  LIA d           4.538  27.556   7.811  0.00  0.00    -0.034 C 
ATOM     23  H8  LIA d           6.561  26.799   8.061  0.00  0.00     0.057 H 
ATOM     24  H9  LIA d           5.289  25.531   8.053  0.00  0.00     0.057 H 
ATOM     25  H6  LIA d           4.348  27.664   8.889  0.00  0.00     0.037 H 
ATOM     26  H7  LIA d           4.901  28.513   7.406  0.00  0.00     0.037 H 
ATOM     27  H5  LIA d           2.764  26.300   7.604  0.00  0.00     0.073 H 
BRANCH  18  28
ATOM     28  S27 LIA d           7.138  25.233   5.840  0.00  0.00     0.207 S 
ATOM     29  O29 LIA d           6.794  23.933   6.373  0.00  0.00    -0.212 OA
ATOM     30  O30 LIA d           8.296  25.741   6.523  0.00  0.00    -0.212 OA
BRANCH  28  31
ATOM     31  C28 LIA d           7.506  25.051   4.059  0.00  0.00     0.028 C 
ATOM     32  H19 LIA d           6.651  25.412   3.468  0.00  0.00     0.050 H 
ATOM     33  H20 LIA d           7.687  23.990   3.828  0.00  0.00     0.050 H 
ATOM     34  H21 LIA d           8.400  25.639   3.807  0.00  0.00     0.050 H 
ENDBRANCH  28  31
ENDBRANCH  18  28
ENDBRANCH   1  13
BRANCH   5  35
ATOM     35  C14 LIA d          -1.038  28.440  11.639  0.00  0.00     0.203 C 
ATOM     36  O15 LIA d          -0.676  29.038  12.667  0.00  0.00    -0.286 OA
BRANCH  35  37
ATOM     37  C16 LIA d          -2.291  27.719  11.674  0.00  0.00     0.090 A 
ATOM     38  C17 LIA d          -2.348  26.430  12.314  0.00  0.00     0.171 A 
ATOM     39  C18 LIA d          -3.577  25.704  12.371  0.00  0.00     0.156 A 
ATOM     40  F24 LIA d          -1.261  25.893  12.861  0.00  0.00    -0.202 F 
ATOM     41  C19 LIA d          -4.766  26.243  11.797  0.00  0.00    -0.040 A 
ATOM     42  F25 LIA d          -3.621  24.523  12.960  0.00  0.00    -0.203 F 
ATOM     43  C20 LIA d          -4.737  27.513  11.155  0.00  0.00    -0.047 A 
ATOM     44  H12 LIA d          -5.694  25.684  11.850  0.00  0.00     0.088 H 
ATOM     45  C21 LIA d          -3.509  28.277  11.078  0.00  0.00     0.085 A 
ATOM     46  H13 LIA d          -5.645  27.913  10.719  0.00  0.00     0.087 H 
BRANCH  45  47
ATOM     47  O22 LIA d          -3.436  29.539  10.446  0.00  0.00    -0.355 OA
BRANCH  47  48
ATOM     48  C23 LIA d          -4.102  29.572   9.159  0.00  0.00     0.010 C 
ATOM     49  H14 LIA d          -4.446  28.561   8.898  0.00  0.00     0.066 H 
ATOM     50  H15 LIA d          -3.400  29.930   8.392  0.00  0.00     0.066 H 
ATOM     51  H16 LIA d          -4.966  30.251   9.211  0.00  0.00     0.066 H 
ENDBRANCH  47  48
ENDBRANCH  45  47
ENDBRANCH  35  37
ENDBRANCH   5  35
TORSDOF 7
ENDMDL
MODEL 4
REMARK VINA RESULT:      -7.2      2.803      4.018
REMARK  7 active torsions:
REMARK  status: ('A' for Active; 'I' for Inactive)
REMARK    1  A    between atoms: N1_1  and  S27_27 
REMARK    2  A    between atoms: C4_4  and  N7_7 
REMARK    3  A    between atoms: C11_11  and  C14_14 
REMARK    4  A    between atoms: C14_14  and  C16_16 
REMARK    5  A    between atoms: C21_21  and  O22_22 
REMARK    6  A    between atoms: O22_22  and  C23_23 
REMARK    7  A    between atoms: S27_27  and  C28_28 
ROOT
ATOM      1  N7  LIA d           2.972  24.171   9.857  0.00  0.00    -0.218 N 
ATOM      2  C8  LIA d           2.221  25.245  10.237  0.00  0.00     0.724 A 
ATOM      3  N9  LIA d           2.199  26.390   9.503  0.00  0.00    -0.074 NA
ATOM      4  C10 LIA d           1.465  27.391   9.882  0.00  0.00     0.038 A 
ATOM      5  C11 LIA d           0.646  27.356  11.079  0.00  0.00     0.079 A 
ATOM      6  C12 LIA d           0.705  26.125  11.835  0.00  0.00     0.156 A 
ATOM      7  N13 LIA d           1.499  25.096  11.385  0.00  0.00    -0.045 NA
ATOM      8  N26 LIA d           0.012  25.924  12.972  0.00  0.00    -0.383 N 
ATOM      9  H10 LIA d           3.259  23.432  10.514  0.00  0.00     0.178 HD
ATOM     10  H11 LIA d           1.464  28.292   9.279  0.00  0.00     0.117 H 
ATOM     11  H17 LIA d           0.092  25.026  13.471  0.00  0.00     0.157 HD
ATOM     12  H18 LIA d          -0.597  26.667  13.342  0.00  0.00     0.157 HD
ENDROOT
BRANCH   1  13
ATOM     13  C4  LIA d           3.340  24.156   8.434  0.00  0.00     0.029 C 
ATOM     14  C3  LIA d           4.304  25.342   8.176  0.00  0.00    -0.034 C 
ATOM     15  C2  LIA d           4.852  25.297   6.733  0.00  0.00    -0.005 C 
ATOM     16  H3  LIA d           3.762  26.287   8.326  0.00  0.00     0.037 H 
ATOM     17  H4  LIA d           5.145  25.284   8.883  0.00  0.00     0.037 H 
ATOM     18  N1  LIA d           5.554  24.002   6.508  0.00  0.00    -0.211 NA
ATOM     19  H1  LIA d           4.019  25.390   6.022  0.00  0.00     0.057 H 
ATOM     20  H2  LIA d           5.558  26.126   6.583  0.00  0.00     0.057 H 
ATOM     21  C6  LIA d           4.590  22.865   6.602  0.00  0.00    -0.005 C 
ATOM     22  C5  LIA d           4.017  22.799   8.034  0.00  0.00    -0.034 C 
ATOM     23  H8  LIA d           5.109  21.923   6.371  0.00  0.00     0.057 H 
ATOM     24  H9  LIA d           3.770  23.017   5.886  0.00  0.00     0.057 H 
ATOM     25  H6  LIA d           3.269  21.994   8.085  0.00  0.00     0.037 H 
ATOM     26  H7  LIA d           4.835  22.585   8.739  0.00  0.00     0.037 H 
ATOM     27  H5  LIA d           2.432  24.287   7.827  0.00  0.00     0.073 H 
BRANCH  18  28
ATOM     28  S27 LIA d           6.352  24.003   5.010  0.00  0.00     0.207 S 
ATOM     29  O29 LIA d           5.504  23.319   4.059  0.00  0.00    -0.212 OA
ATOM     30  O30 LIA d           7.594  23.292   5.145  0.00  0.00    -0.212 OA
BRANCH  28  31
ATOM     31  C28 LIA d           6.675  25.691   4.390  0.00  0.00     0.028 C 
ATOM     32  H19 LIA d           6.098  26.417   4.982  0.00  0.00     0.050 H 
ATOM     33  H20 LIA d           6.373  25.758   3.334  0.00  0.00     0.050 H 
ATOM     34  H21 LIA d           7.748  25.916   4.480  0.00  0.00     0.050 H 
ENDBRANCH  28  31
ENDBRANCH  18  28
ENDBRANCH   1  13
BRANCH   5  35
ATOM     35  C14 LIA d          -0.166  28.509  11.439  0.00  0.00     0.203 C 
ATOM     36  O15 LIA d           0.225  29.315  12.300  0.00  0.00    -0.286 OA
BRANCH  35  37
ATOM     37  C16 LIA d          -1.456  28.736  10.827  0.00  0.00     0.090 A 
ATOM     38  C17 LIA d          -2.603  28.007  11.303  0.00  0.00     0.171 A 
ATOM     39  C18 LIA d          -3.891  28.222  10.721  0.00  0.00     0.156 A 
ATOM     40  F24 LIA d          -2.486  27.121  12.288  0.00  0.00    -0.202 F 
ATOM     41  C19 LIA d          -4.061  29.162   9.662  0.00  0.00    -0.040 A 
ATOM     42  F25 LIA d          -4.937  27.550  11.165  0.00  0.00    -0.203 F 
ATOM     43  C20 LIA d          -2.944  29.893   9.170  0.00  0.00    -0.047 A 
ATOM     44  H12 LIA d          -5.044  29.320   9.232  0.00  0.00     0.088 H 
ATOM     45  C21 LIA d          -1.624  29.701   9.734  0.00  0.00     0.085 A 
ATOM     46  H13 LIA d          -3.083  30.603   8.362  0.00  0.00     0.087 H 
BRANCH  45  47
ATOM     47  O22 LIA d          -0.488  30.402   9.272  0.00  0.00    -0.355 OA
BRANCH  47  48
ATOM     48  C23 LIA d          -0.821  31.606   8.537  0.00  0.00     0.010 C 
ATOM     49  H14 LIA d          -1.369  31.337   7.621  0.00  0.00     0.066 H 
ATOM     50  H15 LIA d           0.102  32.139   8.267  0.00  0.00     0.066 H 
ATOM     51  H16 LIA d          -1.450  32.256   9.163  0.00  0.00     0.066 H 
ENDBRANCH  47  48
ENDBRANCH  45  47
ENDBRANCH  35  37
ENDBRANCH   5  35
TORSDOF 7
ENDMDL
MODEL 5
REMARK VINA RESULT:      -6.5      4.020      8.854
REMARK  7 active torsions:
REMARK  status: ('A' for Active; 'I' for Inactive)
REMARK    1  A    between atoms: N1_1  and  S27_27 
REMARK    2  A    between atoms: C4_4  and  N7_7 
REMARK    3  A    between atoms: C11_11  and  C14_14 
REMARK    4  A    between atoms: C14_14  and  C16_16 
REMARK    5  A    between atoms: C21_21  and  O22_22 
REMARK    6  A    between atoms: O22_22  and  C23_23 
REMARK    7  A    between atoms: S27_27  and  C28_28 
ROOT
ATOM      1  N7  LIA d          -0.578  25.798  12.273  0.00  0.00    -0.218 N 
ATOM      2  C8  LIA d           0.438  25.448  11.434  0.00  0.00     0.724 A 
ATOM      3  N9  LIA d           0.526  25.958  10.175  0.00  0.00    -0.074 NA
ATOM      4  C10 LIA d           1.511  25.616   9.403  0.00  0.00     0.038 A 
ATOM      5  C11 LIA d           2.552  24.693   9.817  0.00  0.00     0.079 A 
ATOM      6  C12 LIA d           2.416  24.167  11.158  0.00  0.00     0.156 A 
ATOM      7  N13 LIA d           1.352  24.565  11.933  0.00  0.00    -0.045 NA
ATOM      8  N26 LIA d           3.288  23.297  11.700  0.00  0.00    -0.383 N 
ATOM      9  H10 LIA d          -0.854  25.225  13.083  0.00  0.00     0.178 HD
ATOM     10  H11 LIA d           1.559  26.037   8.405  0.00  0.00     0.117 H 
ATOM     11  H17 LIA d           3.143  22.954  12.661  0.00  0.00     0.157 HD
ATOM     12  H18 LIA d           4.101  22.975  11.156  0.00  0.00     0.157 HD
ENDROOT
BRANCH   1  13
ATOM     13  C4  LIA d          -1.248  27.060  11.929  0.00  0.00     0.029 C 
ATOM     14  C3  LIA d          -0.188  28.191  11.968  0.00  0.00    -0.034 C 
ATOM     15  C2  LIA d          -0.789  29.522  11.468  0.00  0.00    -0.005 C 
ATOM     16  H3  LIA d           0.163  28.320  13.003  0.00  0.00     0.037 H 
ATOM     17  H4  LIA d           0.660  27.913  11.325  0.00  0.00     0.037 H 
ATOM     18  N1  LIA d          -1.304  29.344  10.082  0.00  0.00    -0.211 NA
ATOM     19  H1  LIA d          -1.615  29.822  12.130  0.00  0.00     0.057 H 
ATOM     20  H2  LIA d          -0.012  30.300  11.474  0.00  0.00     0.057 H 
ATOM     21  C6  LIA d          -2.434  28.368  10.067  0.00  0.00    -0.005 C 
ATOM     22  C5  LIA d          -1.917  26.983  10.513  0.00  0.00    -0.034 C 
ATOM     23  H8  LIA d          -2.845  28.296   9.049  0.00  0.00     0.057 H 
ATOM     24  H9  LIA d          -3.221  28.706  10.757  0.00  0.00     0.057 H 
ATOM     25  H6  LIA d          -2.762  26.280  10.552  0.00  0.00     0.037 H 
ATOM     26  H7  LIA d          -1.175  26.625   9.784  0.00  0.00     0.037 H 
ATOM     27  H5  LIA d          -2.029  27.268  12.675  0.00  0.00     0.073 H 
BRANCH  18  28
ATOM     28  S27 LIA d          -1.776  30.834   9.421  0.00  0.00     0.207 S 
ATOM     29  O29 LIA d          -2.878  30.587   8.518  0.00  0.00    -0.212 OA
ATOM     30  O30 LIA d          -0.671  31.389   8.688  0.00  0.00    -0.212 OA
BRANCH  28  31
ATOM     31  C28 LIA d          -2.326  32.024  10.695  0.00  0.00     0.028 C 
ATOM     32  H19 LIA d          -2.198  33.050  10.320  0.00  0.00     0.050 H 
ATOM     33  H20 LIA d          -1.724  31.890  11.606  0.00  0.00     0.050 H 
ATOM     34  H21 LIA d          -3.387  31.849  10.927  0.00  0.00     0.050 H 
ENDBRANCH  28  31
ENDBRANCH  18  28
ENDBRANCH   1  13
BRANCH   5  35
ATOM     35  C14 LIA d           3.637  24.364   8.906  0.00  0.00     0.203 C 
ATOM     36  O15 LIA d           4.228  23.274   8.992  0.00  0.00    -0.286 OA
BRANCH  35  37
ATOM     37  C16 LIA d           4.075  25.300   7.895  0.00  0.00     0.090 A 
ATOM     38  C17 LIA d           4.385  26.655   8.273  0.00  0.00     0.171 A 
ATOM     39  C18 LIA d           4.830  27.596   7.293  0.00  0.00     0.156 A 
ATOM     40  F24 LIA d           4.260  27.056   9.534  0.00  0.00    -0.202 F 
ATOM     41  C19 LIA d           4.976  27.209   5.928  0.00  0.00    -0.040 A 
ATOM     42  F25 LIA d           5.112  28.836   7.648  0.00  0.00    -0.203 F 
ATOM     43  C20 LIA d           4.674  25.877   5.528  0.00  0.00    -0.047 A 
ATOM     44  H12 LIA d           5.319  27.930   5.195  0.00  0.00     0.088 H 
ATOM     45  C21 LIA d           4.219  24.896   6.492  0.00  0.00     0.085 A 
ATOM     46  H13 LIA d           4.785  25.593   4.487  0.00  0.00     0.087 H 
BRANCH  45  47
ATOM     47  O22 LIA d           3.904  23.566   6.136  0.00  0.00    -0.355 OA
BRANCH  47  48
ATOM     48  C23 LIA d           4.012  23.317   4.712  0.00  0.00     0.010 C 
ATOM     49  H14 LIA d           4.893  22.688   4.516  0.00  0.00     0.066 H 
ATOM     50  H15 LIA d           4.119  24.273   4.179  0.00  0.00     0.066 H 
ATOM     51  H16 LIA d           3.107  22.800   4.361  0.00  0.00     0.066 H 
ENDBRANCH  47  48
ENDBRANCH  45  47
ENDBRANCH  35  37
ENDBRANCH   5  35
TORSDOF 7
ENDMDL
MODEL 6
REMARK VINA RESULT:      -6.0      3.444      4.879
REMARK  7 active torsions:
REMARK  status: ('A' for Active; 'I' for Inactive)
REMARK    1  A    between atoms: N1_1  and  S27_27 
REMARK    2  A    between atoms: C4_4  and  N7_7 
REMARK    3  A    between atoms: C11_11  and  C14_14 
REMARK    4  A    between atoms: C14_14  and  C16_16 
REMARK    5  A    between atoms: C21_21  and  O22_22 
REMARK    6  A    between atoms: O22_22  and  C23_23 
REMARK    7  A    between atoms: S27_27  and  C28_28 
ROOT
ATOM      1  N7  LIA d           1.530  23.246  10.073  0.00  0.00    -0.218 N 
ATOM      2  C8  LIA d           0.570  24.082  10.563  0.00  0.00     0.724 A 
ATOM      3  N9  LIA d           0.888  25.295  11.090  0.00  0.00    -0.074 NA
ATOM      4  C10 LIA d          -0.047  26.075  11.538  0.00  0.00     0.038 A 
ATOM      5  C11 LIA d          -1.453  25.714  11.508  0.00  0.00     0.079 A 
ATOM      6  C12 LIA d          -1.748  24.413  10.950  0.00  0.00     0.156 A 
ATOM      7  N13 LIA d          -0.716  23.629  10.489  0.00  0.00    -0.045 NA
ATOM      8  N26 LIA d          -2.995  23.919  10.850  0.00  0.00    -0.383 N 
ATOM      9  H10 LIA d           1.381  22.233   9.960  0.00  0.00     0.178 HD
ATOM     10  H11 LIA d           0.232  27.037  11.952  0.00  0.00     0.117 H 
ATOM     11  H17 LIA d          -3.149  22.985  10.443  0.00  0.00     0.157 HD
ATOM     12  H18 LIA d          -3.798  24.475  11.180  0.00  0.00     0.157 HD
ENDROOT
BRANCH   1  13
ATOM     13  C4  LIA d           2.793  23.907   9.719  0.00  0.00     0.029 C 
ATOM     14  C3  LIA d           3.608  22.936   8.826  0.00  0.00    -0.034 C 
ATOM     15  C2  LIA d           4.881  23.625   8.290  0.00  0.00    -0.005 C 
ATOM     16  H3  LIA d           3.895  22.056   9.419  0.00  0.00     0.037 H 
ATOM     17  H4  LIA d           2.985  22.619   7.976  0.00  0.00     0.037 H 
ATOM     18  N1  LIA d           4.502  24.842   7.519  0.00  0.00    -0.211 NA
ATOM     19  H1  LIA d           5.525  23.912   9.135  0.00  0.00     0.057 H 
ATOM     20  H2  LIA d           5.425  22.930   7.634  0.00  0.00     0.057 H 
ATOM     21  C6  LIA d           3.856  25.846   8.416  0.00  0.00    -0.005 C 
ATOM     22  C5  LIA d           2.539  25.261   8.970  0.00  0.00    -0.034 C 
ATOM     23  H8  LIA d           3.640  26.762   7.847  0.00  0.00     0.057 H 
ATOM     24  H9  LIA d           4.532  26.083   9.251  0.00  0.00     0.057 H 
ATOM     25  H6  LIA d           2.093  25.982   9.671  0.00  0.00     0.037 H 
ATOM     26  H7  LIA d           1.845  25.085   8.135  0.00  0.00     0.037 H 
ATOM     27  H5  LIA d           3.359  24.116  10.639  0.00  0.00     0.073 H 
BRANCH  18  28
ATOM     28  S27 LIA d           5.855  25.503   6.737  0.00  0.00     0.207 S 
ATOM     29  O29 LIA d           6.613  26.246   7.720  0.00  0.00    -0.212 OA
ATOM     30  O30 LIA d           5.404  26.396   5.705  0.00  0.00    -0.212 OA
BRANCH  28  31
ATOM     31  C28 LIA d           6.941  24.224   6.012  0.00  0.00     0.028 C 
ATOM     32  H19 LIA d           7.584  23.800   6.797  0.00  0.00     0.050 H 
ATOM     33  H20 LIA d           7.569  24.677   5.230  0.00  0.00     0.050 H 
ATOM     34  H21 LIA d           6.325  23.427   5.571  0.00  0.00     0.050 H 
ENDBRANCH  28  31
ENDBRANCH  18  28
ENDBRANCH   1  13
BRANCH   5  35
ATOM     35  C14 LIA d          -2.453  26.643  12.013  0.00  0.00     0.203 C 
ATOM     36  O15 LIA d          -3.217  26.311  12.936  0.00  0.00    -0.286 OA
BRANCH  35  37
ATOM     37  C16 LIA d          -2.604  27.963  11.443  0.00  0.00     0.090 A 
ATOM     38  C17 LIA d          -3.725  28.237  10.583  0.00  0.00     0.171 A 
ATOM     39  C18 LIA d          -3.902  29.538  10.015  0.00  0.00     0.156 A 
ATOM     40  F24 LIA d          -4.614  27.290  10.298  0.00  0.00    -0.202 F 
ATOM     41  C19 LIA d          -2.973  30.583  10.294  0.00  0.00    -0.040 A 
ATOM     42  F25 LIA d          -4.933  29.781   9.228  0.00  0.00    -0.203 F 
ATOM     43  C20 LIA d          -1.853  30.338  11.138  0.00  0.00    -0.047 A 
ATOM     44  H12 LIA d          -3.119  31.567   9.862  0.00  0.00     0.088 H 
ATOM     45  C21 LIA d          -1.642  29.032  11.730  0.00  0.00     0.085 A 
ATOM     46  H13 LIA d          -1.151  31.138  11.341  0.00  0.00     0.087 H 
BRANCH  45  47
ATOM     47  O22 LIA d          -0.542  28.746  12.569  0.00  0.00    -0.355 OA
BRANCH  47  48
ATOM     48  C23 LIA d           0.725  29.189  12.020  0.00  0.00     0.010 C 
ATOM     49  H14 LIA d           0.579  29.520  10.982  0.00  0.00     0.066 H 
ATOM     50  H15 LIA d           1.445  28.358  12.042  0.00  0.00     0.066 H 
ATOM     51  H16 LIA d           1.112  30.024  12.622  0.00  0.00     0.066 H 
ENDBRANCH  47  48
ENDBRANCH  45  47
ENDBRANCH  35  37
ENDBRANCH   5  35
TORSDOF 7
ENDMDL
MODEL 7
REMARK VINA RESULT:      -6.0      4.679      9.145
REMARK  7 active torsions:
REMARK  status: ('A' for Active; 'I' for Inactive)
REMARK    1  A    between atoms: N1_1  and  S27_27 
REMARK    2  A    between atoms: C4_4  and  N7_7 
REMARK    3  A    between atoms: C11_11  and  C14_14 
REMARK    4  A    between atoms: C14_14  and  C16_16 
REMARK    5  A    between atoms: C21_21  and  O22_22 
REMARK    6  A    between atoms: O22_22  and  C23_23 
REMARK    7  A    between atoms: S27_27  and  C28_28 
ROOT
ATOM      1  N7  LIA d          -0.455  25.691  12.968  0.00  0.00    -0.218 N 
ATOM      2  C8  LIA d           0.324  25.283  11.925  0.00  0.00     0.724 A 
ATOM      3  N9  LIA d           0.008  25.594  10.639  0.00  0.00    -0.074 NA
ATOM      4  C10 LIA d           0.774  25.204   9.667  0.00  0.00     0.038 A 
ATOM      5  C11 LIA d           1.983  24.430   9.883  0.00  0.00     0.079 A 
ATOM      6  C12 LIA d           2.279  24.112  11.262  0.00  0.00     0.156 A 
ATOM      7  N13 LIA d           1.431  24.554  12.252  0.00  0.00    -0.045 NA
ATOM      8  N26 LIA d           3.356  23.400  11.640  0.00  0.00    -0.383 N 
ATOM      9  H10 LIA d          -0.433  25.234  13.891  0.00  0.00     0.178 HD
ATOM     10  H11 LIA d           0.500  25.465   8.652  0.00  0.00     0.117 H 
ATOM     11  H17 LIA d           3.519  23.202  12.638  0.00  0.00     0.157 HD
ATOM     12  H18 LIA d           4.019  23.053  10.932  0.00  0.00     0.157 HD
ENDROOT
BRANCH   1  13
ATOM     13  C4  LIA d          -1.327  26.834  12.668  0.00  0.00     0.029 C 
ATOM     14  C3  LIA d          -0.444  27.974  12.099  0.00  0.00    -0.034 C 
ATOM     15  C2  LIA d          -1.316  29.154  11.619  0.00  0.00    -0.005 C 
ATOM     16  H3  LIA d           0.240  28.327  12.885  0.00  0.00     0.037 H 
ATOM     17  H4  LIA d           0.140  27.589  11.250  0.00  0.00     0.037 H 
ATOM     18  N1  LIA d          -2.273  28.676  10.583  0.00  0.00    -0.211 NA
ATOM     19  H1  LIA d          -1.875  29.567  12.472  0.00  0.00     0.057 H 
ATOM     20  H2  LIA d          -0.672  29.935  11.190  0.00  0.00     0.057 H 
ATOM     21  C6  LIA d          -3.228  27.690  11.172  0.00  0.00    -0.005 C 
ATOM     22  C5  LIA d          -2.449  26.444  11.644  0.00  0.00    -0.034 C 
ATOM     23  H8  LIA d          -3.967  27.396  10.413  0.00  0.00     0.057 H 
ATOM     24  H9  LIA d          -3.745  28.146  12.029  0.00  0.00     0.057 H 
ATOM     25  H6  LIA d          -3.148  25.744  12.125  0.00  0.00     0.037 H 
ATOM     26  H7  LIA d          -1.986  25.959  10.772  0.00  0.00     0.037 H 
ATOM     27  H5  LIA d          -1.805  27.175  13.599  0.00  0.00     0.073 H 
BRANCH  18  28
ATOM     28  S27 LIA d          -3.099  29.981   9.880  0.00  0.00     0.207 S 
ATOM     29  O29 LIA d          -3.554  30.842  10.949  0.00  0.00    -0.212 OA
ATOM     30  O30 LIA d          -4.234  29.476   9.155  0.00  0.00    -0.212 OA
BRANCH  28  31
ATOM     31  C28 LIA d          -2.039  30.959   8.757  0.00  0.00     0.028 C 
ATOM     32  H19 LIA d          -2.437  31.981   8.675  0.00  0.00     0.050 H 
ATOM     33  H20 LIA d          -2.028  30.489   7.762  0.00  0.00     0.050 H 
ATOM     34  H21 LIA d          -1.016  30.995   9.158  0.00  0.00     0.050 H 
ENDBRANCH  28  31
ENDBRANCH  18  28
ENDBRANCH   1  13
BRANCH   5  35
ATOM     35  C14 LIA d           2.806  24.037   8.749  0.00  0.00     0.203 C 
ATOM     36  O15 LIA d           2.524  23.028   8.081  0.00  0.00    -0.286 OA
BRANCH  35  37
ATOM     37  C16 LIA d           3.985  24.790   8.384  0.00  0.00     0.090 A 
ATOM     38  C17 LIA d           5.247  24.108   8.251  0.00  0.00     0.171 A 
ATOM     39  C18 LIA d           6.424  24.829   7.881  0.00  0.00     0.156 A 
ATOM     40  F24 LIA d           5.341  22.800   8.473  0.00  0.00    -0.202 F 
ATOM     41  C19 LIA d           6.368  26.233   7.634  0.00  0.00    -0.040 A 
ATOM     42  F25 LIA d           7.576  24.196   7.761  0.00  0.00    -0.203 F 
ATOM     43  C20 LIA d           5.135  26.932   7.762  0.00  0.00    -0.047 A 
ATOM     44  H12 LIA d           7.267  26.768   7.349  0.00  0.00     0.088 H 
ATOM     45  C21 LIA d           3.922  26.234   8.136  0.00  0.00     0.085 A 
ATOM     46  H13 LIA d           5.104  27.999   7.575  0.00  0.00     0.087 H 
BRANCH  45  47
ATOM     47  O22 LIA d           2.679  26.891   8.278  0.00  0.00    -0.355 OA
BRANCH  47  48
ATOM     48  C23 LIA d           2.536  28.037   7.402  0.00  0.00     0.010 C 
ATOM     49  H14 LIA d           2.813  27.752   6.377  0.00  0.00     0.066 H 
ATOM     50  H15 LIA d           3.195  28.847   7.747  0.00  0.00     0.066 H 
ATOM     51  H16 LIA d           1.492  28.382   7.418  0.00  0.00     0.066 H 
ENDBRANCH  47  48
ENDBRANCH  45  47
ENDBRANCH  35  37
ENDBRANCH   5  35
TORSDOF 7
ENDMDL
MODEL 8
REMARK VINA RESULT:      -5.8      2.871      4.330
REMARK  7 active torsions:
REMARK  status: ('A' for Active; 'I' for Inactive)
REMARK    1  A    between atoms: N1_1  and  S27_27 
REMARK    2  A    between atoms: C4_4  and  N7_7 
REMARK    3  A    between atoms: C11_11  and  C14_14 
REMARK    4  A    between atoms: C14_14  and  C16_16 
REMARK    5  A    between atoms: C21_21  and  O22_22 
REMARK    6  A    between atoms: O22_22  and  C23_23 
REMARK    7  A    between atoms: S27_27  and  C28_28 
ROOT
ATOM      1  N7  LIA d           1.939  24.926  11.182  0.00  0.00    -0.218 N 
ATOM      2  C8  LIA d           0.918  25.784  10.895  0.00  0.00     0.724 A 
ATOM      3  N9  LIA d           1.124  26.913  10.164  0.00  0.00    -0.074 NA
ATOM      4  C10 LIA d           0.132  27.705   9.897  0.00  0.00     0.038 A 
ATOM      5  C11 LIA d          -1.223  27.447  10.347  0.00  0.00     0.079 A 
ATOM      6  C12 LIA d          -1.398  26.243  11.129  0.00  0.00     0.156 A 
ATOM      7  N13 LIA d          -0.310  25.439  11.381  0.00  0.00    -0.045 NA
ATOM      8  N26 LIA d          -2.586  25.854  11.628  0.00  0.00    -0.383 N 
ATOM      9  H10 LIA d           1.900  24.255  11.962  0.00  0.00     0.178 HD
ATOM     10  H11 LIA d           0.323  28.598   9.312  0.00  0.00     0.117 H 
ATOM     11  H17 LIA d          -2.654  24.986  12.179  0.00  0.00     0.157 HD
ATOM     12  H18 LIA d          -3.427  26.424  11.461  0.00  0.00     0.157 HD
ENDROOT
BRANCH   1  13
ATOM     13  C4  LIA d           3.099  25.036  10.287  0.00  0.00     0.029 C 
ATOM     14  C3  LIA d           2.880  24.067   9.097  0.00  0.00    -0.034 C 
ATOM     15  C2  LIA d           3.989  24.241   8.037  0.00  0.00    -0.005 C 
ATOM     16  H3  LIA d           2.894  23.031   9.467  0.00  0.00     0.037 H 
ATOM     17  H4  LIA d           1.904  24.277   8.635  0.00  0.00     0.037 H 
ATOM     18  N1  LIA d           4.002  25.652   7.559  0.00  0.00    -0.211 NA
ATOM     19  H1  LIA d           4.963  23.996   8.484  0.00  0.00     0.057 H 
ATOM     20  H2  LIA d           3.795  23.568   7.189  0.00  0.00     0.057 H 
ATOM     21  C6  LIA d           4.368  26.576   8.673  0.00  0.00    -0.005 C 
ATOM     22  C5  LIA d           3.286  26.505   9.771  0.00  0.00    -0.034 C 
ATOM     23  H8  LIA d           4.437  27.604   8.290  0.00  0.00     0.057 H 
ATOM     24  H9  LIA d           5.339  26.276   9.095  0.00  0.00     0.057 H 
ATOM     25  H6  LIA d           3.586  27.146  10.613  0.00  0.00     0.037 H 
ATOM     26  H7  LIA d           2.331  26.865   9.358  0.00  0.00     0.037 H 
ATOM     27  H5  LIA d           4.005  24.739  10.835  0.00  0.00     0.073 H 
BRANCH  18  28
ATOM     28  S27 LIA d           5.060  25.831   6.244  0.00  0.00     0.207 S 
ATOM     29  O29 LIA d           4.990  24.622   5.454  0.00  0.00    -0.212 OA
ATOM     30  O30 LIA d           6.397  26.000   6.744  0.00  0.00    -0.212 OA
BRANCH  28  31
ATOM     31  C28 LIA d           4.620  27.248   5.178  0.00  0.00     0.028 C 
ATOM     32  H19 LIA d           3.938  27.918   5.721  0.00  0.00     0.050 H 
ATOM     33  H20 LIA d           4.123  26.881   4.267  0.00  0.00     0.050 H 
ATOM     34  H21 LIA d           5.532  27.798   4.903  0.00  0.00     0.050 H 
ENDBRANCH  28  31
ENDBRANCH  18  28
ENDBRANCH   1  13
BRANCH   5  35
ATOM     35  C14 LIA d          -2.293  28.369   9.999  0.00  0.00     0.203 C 
ATOM     36  O15 LIA d          -3.451  27.955   9.812  0.00  0.00    -0.286 OA
BRANCH  35  37
ATOM     37  C16 LIA d          -2.039  29.783   9.836  0.00  0.00     0.090 A 
ATOM     38  C17 LIA d          -2.559  30.711  10.806  0.00  0.00     0.171 A 
ATOM     39  C18 LIA d          -2.312  32.113  10.672  0.00  0.00     0.156 A 
ATOM     40  F24 LIA d          -3.278  30.284  11.840  0.00  0.00    -0.202 F 
ATOM     41  C19 LIA d          -1.547  32.614   9.578  0.00  0.00    -0.040 A 
ATOM     42  F25 LIA d          -2.791  32.957  11.567  0.00  0.00    -0.203 F 
ATOM     43  C20 LIA d          -1.024  31.718   8.603  0.00  0.00    -0.047 A 
ATOM     44  H12 LIA d          -1.362  33.678   9.489  0.00  0.00     0.088 H 
ATOM     45  C21 LIA d          -1.255  30.292   8.705  0.00  0.00     0.085 A 
ATOM     46  H13 LIA d          -0.447  32.109   7.773  0.00  0.00     0.087 H 
BRANCH  45  47
ATOM     47  O22 LIA d          -0.759  29.370   7.757  0.00  0.00    -0.355 OA
BRANCH  47  48
ATOM     48  C23 LIA d           0.562  29.711   7.266  0.00  0.00     0.010 C 
ATOM     49  H14 LIA d           0.474  30.195   6.283  0.00  0.00     0.066 H 
ATOM     50  H15 LIA d           1.165  28.796   7.172  0.00  0.00     0.066 H 
ATOM     51  H16 LIA d           1.048  30.400   7.972  0.00  0.00     0.066 H 
ENDBRANCH  47  48
ENDBRANCH  45  47
ENDBRANCH  35  37
ENDBRANCH   5  35
TORSDOF 7
ENDMDL
