MODEL 1
REMARK VINA RESULT:      -6.9      0.000      0.000
REMARK  10 active torsions:
REMARK  status: ('A' for Active; 'I' for Inactive)
REMARK    1  A    between atoms: C12_12  and  C21_21 
REMARK    2  A    between atoms: C13_13  and  C22_22 
REMARK    3  A    between atoms: C24_24  and  C14_14 
REMARK    4  A    between atoms: C25_25  and  C15_15 
REMARK    5  A    between atoms: C26_26  and  C16_16 
REMARK    6  A    between atoms: C27_27  and  C20_20 
REMARK       I    between atoms: C21_21  and  N28_28 
REMARK    7  A    between atoms: N28_28  and  C24_24 
REMARK    8  A    between atoms: N29_29  and  C25_25 
REMARK    9  A    between atoms: N29_29  and  C26_26 
REMARK   10  A    between atoms: C27_27  and  N29_29 
ROOT
ATOM      1  C25 N44 d          -9.022  48.490   1.551  0.00  0.00     0.109 C 
ATOM      2  H19 N44 d          -9.490  49.422   1.903  0.00  0.00     0.083 H 
ATOM      3  H20 N44 d          -8.484  48.013   2.384  0.00  0.00     0.083 H 
ENDROOT
BRANCH   1   4
ATOM      4  C15 N44 d          -8.026  48.844   0.502  0.00  0.00    -0.017 A 
ATOM      5  C9  N44 d          -8.183  50.050  -0.153  0.00  0.00    -0.074 A 
ATOM      6  C5  N44 d          -7.302  50.450  -1.142  0.00  0.00    -0.082 A 
ATOM      7  H9  N44 d          -9.012  50.696   0.113  0.00  0.00     0.084 H 
ATOM      8  C2  N44 d          -6.259  49.619  -1.471  0.00  0.00    -0.082 A 
ATOM      9  H5  N44 d          -7.432  51.399  -1.647  0.00  0.00     0.083 H 
ATOM     10  C6  N44 d          -6.090  48.410  -0.823  0.00  0.00    -0.067 A 
ATOM     11  H2  N44 d          -5.562  49.914  -2.247  0.00  0.00     0.083 H 
ATOM     12  C12 N44 d          -6.967  48.010   0.171  0.00  0.00     0.040 A 
ATOM     13  H6  N44 d          -5.261  47.768  -1.096  0.00  0.00     0.085 H 
BRANCH  12  14
ATOM     14  C21 N44 d          -6.755  46.693   0.843  0.00  0.00     0.252 C 
ATOM     15  N28 N44 d          -7.257  45.552   0.233  0.00  0.00    -0.353 N 
ATOM     16  H25 N44 d          -7.740  45.625  -0.639  0.00  0.00     0.163 HD
ATOM     17  O31 N44 d          -6.159  46.658   1.908  0.00  0.00    -0.268 OA
BRANCH  15  18
ATOM     18  C24 N44 d          -7.084  44.255   0.854  0.00  0.00     0.019 C 
ATOM     19  H17 N44 d          -6.048  43.918   0.701  0.00  0.00     0.071 H 
ATOM     20  H18 N44 d          -7.286  44.342   1.932  0.00  0.00     0.071 H 
BRANCH  18  21
ATOM     21  C14 N44 d          -8.018  43.248   0.261  0.00  0.00    -0.041 A 
ATOM     22  C7  N44 d          -8.172  42.009   0.844  0.00  0.00    -0.075 A 
ATOM     23  C3  N44 d          -9.043  41.086   0.314  0.00  0.00    -0.082 A 
ATOM     24  H7  N44 d          -7.600  41.758   1.730  0.00  0.00     0.084 H 
ATOM     25  C1  N44 d          -9.771  41.393  -0.816  0.00  0.00    -0.083 A 
ATOM     26  H3  N44 d          -9.157  40.116   0.784  0.00  0.00     0.083 H 
ATOM     27  C4  N44 d          -9.610  42.621  -1.417  0.00  0.00    -0.082 A 
ATOM     28  H1  N44 d         -10.467  40.671  -1.229  0.00  0.00     0.083 H 
ATOM     29  C8  N44 d          -8.742  43.547  -0.877  0.00  0.00    -0.075 A 
ATOM     30  H4  N44 d         -10.166  42.861  -2.315  0.00  0.00     0.083 H 
ATOM     31  H8  N44 d          -8.626  44.516  -1.349  0.00  0.00     0.084 H 
ENDBRANCH  18  21
ENDBRANCH  15  18
ENDBRANCH  12  14
ENDBRANCH   1   4
BRANCH   1  32
ATOM     32  N29 N44 d         -10.103  47.568   1.114  0.00  0.00    -0.060 N 
ATOM     33  H26 N44 d          -9.632  46.900   0.525  0.00  0.00     0.281 HD
BRANCH  32  34
ATOM     34  C26 N44 d         -11.149  48.157   0.204  0.00  0.00     0.109 C 
ATOM     35  H21 N44 d         -11.893  48.695   0.808  0.00  0.00     0.083 H 
ATOM     36  H22 N44 d         -10.669  48.857  -0.495  0.00  0.00     0.083 H 
BRANCH  34  37
ATOM     37  C16 N44 d         -11.837  47.073  -0.577  0.00  0.00    -0.013 A 
ATOM     38  C10 N44 d         -11.113  46.449  -1.593  0.00  0.00    -0.071 A 
ATOM     39  C11 N44 d         -11.672  45.441  -2.367  0.00  0.00    -0.047 A 
ATOM     40  H10 N44 d         -10.091  46.758  -1.782  0.00  0.00     0.084 H 
ATOM     41  C17 N44 d         -12.974  45.094  -2.084  0.00  0.00     0.106 A 
ATOM     42  H11 N44 d         -11.111  44.951  -3.155  0.00  0.00     0.087 H 
ATOM     43  C18 N44 d         -13.696  45.702  -1.088  0.00  0.00     0.122 A 
ATOM     44  O33 N44 d         -13.686  44.128  -2.749  0.00  0.00    -0.323 OA
ATOM     45  C13 N44 d         -13.160  46.713  -0.302  0.00  0.00     0.085 A 
ATOM     46  O34 N44 d         -14.988  45.181  -1.004  0.00  0.00    -0.322 OA
ATOM     47  C23 N44 d         -14.950  44.194  -2.051  0.00  0.00     0.115 A 
ATOM     48  H15 N44 d         -15.152  43.208  -1.606  0.00  0.00     0.118 H 
ATOM     49  H16 N44 d         -15.737  44.434  -2.782  0.00  0.00     0.118 H 
BRANCH  45  50
ATOM     50  C22 N44 d         -13.959  47.357   0.803  0.00  0.00     0.212 C 
ATOM     51  O30 N44 d         -14.230  48.582   0.659  0.00  0.00    -0.644 OA
ATOM     52  O32 N44 d         -14.362  46.670   1.789  0.00  0.00    -0.644 OA
ENDBRANCH  45  50
ENDBRANCH  34  37
ENDBRANCH  32  34
BRANCH  32  53
ATOM     53  C27 N44 d         -10.624  46.748   2.259  0.00  0.00     0.099 C 
ATOM     54  H23 N44 d         -10.186  47.140   3.189  0.00  0.00     0.082 H 
ATOM     55  H24 N44 d         -11.718  46.861   2.293  0.00  0.00     0.082 H 
BRANCH  53  56
ATOM     56  C20 N44 d         -10.308  45.295   2.172  0.00  0.00    -0.087 C 
ATOM     57  C19 N44 d         -11.196  44.404   1.715  0.00  0.00    -0.123 C 
ATOM     58  H12 N44 d         -10.932  43.349   1.664  0.00  0.00     0.066 H 
ATOM     59  H13 N44 d         -12.182  44.734   1.394  0.00  0.00     0.066 H 
ATOM     60  H14 N44 d          -9.326  44.947   2.489  0.00  0.00     0.078 H 
ENDBRANCH  53  56
ENDBRANCH  32  53
ENDBRANCH   1  32
TORSDOF 10
ENDMDL
MODEL 2
REMARK VINA RESULT:      -6.8      2.037      4.997
REMARK  10 active torsions:
REMARK  status: ('A' for Active; 'I' for Inactive)
REMARK    1  A    between atoms: C12_12  and  C21_21 
REMARK    2  A    between atoms: C13_13  and  C22_22 
REMARK    3  A    between atoms: C24_24  and  C14_14 
REMARK    4  A    between atoms: C25_25  and  C15_15 
REMARK    5  A    between atoms: C26_26  and  C16_16 
REMARK    6  A    between atoms: C27_27  and  C20_20 
REMARK       I    between atoms: C21_21  and  N28_28 
REMARK    7  A    between atoms: N28_28  and  C24_24 
REMARK    8  A    between atoms: N29_29  and  C25_25 
REMARK    9  A    between atoms: N29_29  and  C26_26 
REMARK   10  A    between atoms: C27_27  and  N29_29 
ROOT
ATOM      1  C25 N44 d          -7.941  46.019   0.495  0.00  0.00     0.109 C 
ATOM      2  H19 N44 d          -8.964  46.114   0.888  0.00  0.00     0.083 H 
ATOM      3  H20 N44 d          -7.981  45.778  -0.578  0.00  0.00     0.083 H 
ENDROOT
BRANCH   1   4
ATOM      4  C15 N44 d          -7.283  44.882   1.197  0.00  0.00    -0.017 A 
ATOM      5  C9  N44 d          -6.494  45.175   2.294  0.00  0.00    -0.074 A 
ATOM      6  C5  N44 d          -5.845  44.175   2.998  0.00  0.00    -0.082 A 
ATOM      7  H9  N44 d          -6.381  46.206   2.608  0.00  0.00     0.084 H 
ATOM      8  C2  N44 d          -5.995  42.874   2.585  0.00  0.00    -0.082 A 
ATOM      9  H5  N44 d          -5.232  44.415   3.858  0.00  0.00     0.083 H 
ATOM     10  C6  N44 d          -6.782  42.569   1.490  0.00  0.00    -0.067 A 
ATOM     11  H2  N44 d          -5.491  42.079   3.122  0.00  0.00     0.083 H 
ATOM     12  C12 N44 d          -7.436  43.565   0.787  0.00  0.00     0.040 A 
ATOM     13  H6  N44 d          -6.888  41.536   1.179  0.00  0.00     0.085 H 
BRANCH  12  14
ATOM     14  C21 N44 d          -8.271  43.196  -0.395  0.00  0.00     0.252 C 
ATOM     15  N28 N44 d          -9.549  42.703  -0.172  0.00  0.00    -0.353 N 
ATOM     16  H25 N44 d          -9.890  42.610   0.764  0.00  0.00     0.163 HD
ATOM     17  O31 N44 d          -7.806  43.328  -1.517  0.00  0.00    -0.268 OA
BRANCH  15  18
ATOM     18  C24 N44 d         -10.391  42.322  -1.288  0.00  0.00     0.019 C 
ATOM     19  H17 N44 d          -9.762  42.162  -2.175  0.00  0.00     0.071 H 
ATOM     20  H18 N44 d         -10.919  41.389  -1.039  0.00  0.00     0.071 H 
BRANCH  18  21
ATOM     21  C14 N44 d         -11.397  43.389  -1.588  0.00  0.00    -0.041 A 
ATOM     22  C7  N44 d         -12.731  43.073  -1.724  0.00  0.00    -0.075 A 
ATOM     23  C3  N44 d         -13.662  44.052  -1.982  0.00  0.00    -0.082 A 
ATOM     24  H7  N44 d         -13.050  42.042  -1.628  0.00  0.00     0.084 H 
ATOM     25  C1  N44 d         -13.265  45.366  -2.112  0.00  0.00    -0.083 A 
ATOM     26  H3  N44 d         -14.709  43.790  -2.083  0.00  0.00     0.083 H 
ATOM     27  C4  N44 d         -11.931  45.689  -1.996  0.00  0.00    -0.082 A 
ATOM     28  H1  N44 d         -13.999  46.141  -2.303  0.00  0.00     0.083 H 
ATOM     29  C8  N44 d         -11.002  44.706  -1.729  0.00  0.00    -0.075 A 
ATOM     30  H4  N44 d         -11.612  46.717  -2.115  0.00  0.00     0.083 H 
ATOM     31  H8  N44 d          -9.954  44.968  -1.630  0.00  0.00     0.084 H 
ENDBRANCH  18  21
ENDBRANCH  15  18
ENDBRANCH  12  14
ENDBRANCH   1   4
BRANCH   1  32
ATOM     32  N29 N44 d          -7.266  47.334   0.645  0.00  0.00    -0.060 N 
ATOM     33  H26 N44 d          -6.469  47.136   1.230  0.00  0.00     0.281 HD
BRANCH  32  34
ATOM     34  C26 N44 d          -8.018  48.380   1.426  0.00  0.00     0.109 C 
ATOM     35  H21 N44 d          -7.591  48.453   2.437  0.00  0.00     0.083 H 
ATOM     36  H22 N44 d          -7.923  49.350   0.917  0.00  0.00     0.083 H 
BRANCH  34  37
ATOM     37  C16 N44 d          -9.472  48.016   1.529  0.00  0.00    -0.013 A 
ATOM     38  C10 N44 d          -9.855  47.174   2.573  0.00  0.00    -0.071 A 
ATOM     39  C11 N44 d         -11.178  46.782   2.739  0.00  0.00    -0.047 A 
ATOM     40  H10 N44 d          -9.105  46.817   3.269  0.00  0.00     0.084 H 
ATOM     41  C17 N44 d         -12.084  47.262   1.822  0.00  0.00     0.106 A 
ATOM     42  H11 N44 d         -11.480  46.131   3.551  0.00  0.00     0.087 H 
ATOM     43  C18 N44 d         -11.719  48.091   0.790  0.00  0.00     0.122 A 
ATOM     44  O33 N44 d         -13.427  46.975   1.828  0.00  0.00    -0.323 OA
ATOM     45  C13 N44 d         -10.403  48.493   0.602  0.00  0.00     0.085 A 
ATOM     46  O34 N44 d         -12.815  48.432  -0.004  0.00  0.00    -0.322 OA
ATOM     47  C23 N44 d         -13.870  47.724   0.674  0.00  0.00     0.115 A 
ATOM     48  H15 N44 d         -14.621  48.457   1.004  0.00  0.00     0.118 H 
ATOM     49  H16 N44 d         -14.329  47.023  -0.039  0.00  0.00     0.118 H 
BRANCH  45  50
ATOM     50  C22 N44 d         -10.020  49.420  -0.524  0.00  0.00     0.212 C 
ATOM     51  O30 N44 d          -9.908  50.643  -0.231  0.00  0.00    -0.644 OA
ATOM     52  O32 N44 d          -9.785  48.962  -1.682  0.00  0.00    -0.644 OA
ENDBRANCH  45  50
ENDBRANCH  34  37
ENDBRANCH  32  34
BRANCH  32  53
ATOM     53  C27 N44 d          -6.665  47.797  -0.651  0.00  0.00     0.099 C 
ATOM     54  H23 N44 d          -5.882  47.081  -0.941  0.00  0.00     0.082 H 
ATOM     55  H24 N44 d          -7.458  47.804  -1.414  0.00  0.00     0.082 H 
BRANCH  53  56
ATOM     56  C20 N44 d          -6.057  49.156  -0.599  0.00  0.00    -0.087 C 
ATOM     57  C19 N44 d          -6.405  50.120  -1.461  0.00  0.00    -0.123 C 
ATOM     58  H12 N44 d          -5.940  51.103  -1.395  0.00  0.00     0.066 H 
ATOM     59  H13 N44 d          -7.151  49.921  -2.227  0.00  0.00     0.066 H 
ATOM     60  H14 N44 d          -5.308  49.372   0.161  0.00  0.00     0.078 H 
ENDBRANCH  53  56
ENDBRANCH  32  53
ENDBRANCH   1  32
TORSDOF 10
ENDMDL
MODEL 3
REMARK VINA RESULT:      -6.8      1.436      2.256
REMARK  10 active torsions:
REMARK  status: ('A' for Active; 'I' for Inactive)
REMARK    1  A    between atoms: C12_12  and  C21_21 
REMARK    2  A    between atoms: C13_13  and  C22_22 
REMARK    3  A    between atoms: C24_24  and  C14_14 
REMARK    4  A    between atoms: C25_25  and  C15_15 
REMARK    5  A    between atoms: C26_26  and  C16_16 
REMARK    6  A    between atoms: C27_27  and  C20_20 
REMARK       I    between atoms: C21_21  and  N28_28 
REMARK    7  A    between atoms: N28_28  and  C24_24 
REMARK    8  A    between atoms: N29_29  and  C25_25 
REMARK    9  A    between atoms: N29_29  and  C26_26 
REMARK   10  A    between atoms: C27_27  and  N29_29 
ROOT
ATOM      1  C25 N44 d          -8.704  47.101   0.135  0.00  0.00     0.109 C 
ATOM      2  H19 N44 d          -8.463  46.028   0.181  0.00  0.00     0.083 H 
ATOM      3  H20 N44 d          -8.454  47.489  -0.864  0.00  0.00     0.083 H 
ENDROOT
BRANCH   1   4
ATOM      4  C15 N44 d          -7.851  47.807   1.130  0.00  0.00    -0.017 A 
ATOM      5  C9  N44 d          -7.724  49.178   1.010  0.00  0.00    -0.074 A 
ATOM      6  C5  N44 d          -6.946  49.906   1.893  0.00  0.00    -0.082 A 
ATOM      7  H9  N44 d          -8.243  49.692   0.210  0.00  0.00     0.084 H 
ATOM      8  C2  N44 d          -6.291  49.239   2.900  0.00  0.00    -0.082 A 
ATOM      9  H5  N44 d          -6.856  50.981   1.793  0.00  0.00     0.083 H 
ATOM     10  C6  N44 d          -6.411  47.869   3.031  0.00  0.00    -0.067 A 
ATOM     11  H2  N44 d          -5.674  49.793   3.598  0.00  0.00     0.083 H 
ATOM     12  C12 N44 d          -7.192  47.138   2.152  0.00  0.00     0.040 A 
ATOM     13  H6  N44 d          -5.886  47.360   3.832  0.00  0.00     0.085 H 
BRANCH  12  14
ATOM     14  C21 N44 d          -7.290  45.657   2.322  0.00  0.00     0.252 C 
ATOM     15  N28 N44 d          -6.371  44.854   1.660  0.00  0.00    -0.353 N 
ATOM     16  H25 N44 d          -5.663  45.272   1.093  0.00  0.00     0.163 HD
ATOM     17  O31 N44 d          -8.175  45.197   3.027  0.00  0.00    -0.268 OA
BRANCH  15  18
ATOM     18  C24 N44 d          -6.435  43.412   1.789  0.00  0.00     0.019 C 
ATOM     19  H17 N44 d          -5.446  42.987   1.568  0.00  0.00     0.071 H 
ATOM     20  H18 N44 d          -6.724  43.155   2.819  0.00  0.00     0.071 H 
BRANCH  18  21
ATOM     21  C14 N44 d          -7.438  42.835   0.841  0.00  0.00    -0.041 A 
ATOM     22  C7  N44 d          -8.026  41.616   1.102  0.00  0.00    -0.075 A 
ATOM     23  C3  N44 d          -8.962  41.089   0.243  0.00  0.00    -0.082 A 
ATOM     24  H7  N44 d          -7.747  41.067   1.993  0.00  0.00     0.084 H 
ATOM     25  C1  N44 d          -9.320  41.777  -0.897  0.00  0.00    -0.083 A 
ATOM     26  H3  N44 d          -9.419  40.131   0.462  0.00  0.00     0.083 H 
ATOM     27  C4  N44 d          -8.724  42.987  -1.176  0.00  0.00    -0.082 A 
ATOM     28  H1  N44 d         -10.066  41.369  -1.569  0.00  0.00     0.083 H 
ATOM     29  C8  N44 d          -7.791  43.516  -0.309  0.00  0.00    -0.075 A 
ATOM     30  H4  N44 d          -8.987  43.524  -2.080  0.00  0.00     0.083 H 
ATOM     31  H8  N44 d          -7.333  44.474  -0.529  0.00  0.00     0.084 H 
ENDBRANCH  18  21
ENDBRANCH  15  18
ENDBRANCH  12  14
ENDBRANCH   1   4
BRANCH   1  32
ATOM     32  N29 N44 d         -10.169  47.252   0.333  0.00  0.00    -0.060 N 
ATOM     33  H26 N44 d         -10.247  47.889   1.111  0.00  0.00     0.281 HD
BRANCH  32  34
ATOM     34  C26 N44 d         -10.904  46.028   0.812  0.00  0.00     0.109 C 
ATOM     35  H21 N44 d         -10.178  45.229   1.023  0.00  0.00     0.083 H 
ATOM     36  H22 N44 d         -11.455  46.273   1.731  0.00  0.00     0.083 H 
BRANCH  34  37
ATOM     37  C16 N44 d         -11.872  45.552  -0.234  0.00  0.00    -0.013 A 
ATOM     38  C10 N44 d         -11.343  45.037  -1.418  0.00  0.00    -0.071 A 
ATOM     39  C11 N44 d         -12.165  44.581  -2.440  0.00  0.00    -0.047 A 
ATOM     40  H10 N44 d         -10.267  44.993  -1.543  0.00  0.00     0.084 H 
ATOM     41  C17 N44 d         -13.522  44.666  -2.226  0.00  0.00     0.106 A 
ATOM     42  H11 N44 d         -11.758  44.176  -3.360  0.00  0.00     0.087 H 
ATOM     43  C18 N44 d         -14.054  45.172  -1.067  0.00  0.00     0.122 A 
ATOM     44  O33 N44 d         -14.480  44.269  -3.126  0.00  0.00    -0.323 OA
ATOM     45  C13 N44 d         -13.252  45.637  -0.032  0.00  0.00     0.085 A 
ATOM     46  O34 N44 d         -15.449  45.159  -1.097  0.00  0.00    -0.322 OA
ATOM     47  C23 N44 d         -15.686  44.584  -2.394  0.00  0.00     0.115 A 
ATOM     48  H15 N44 d         -16.262  43.655  -2.261  0.00  0.00     0.118 H 
ATOM     49  H16 N44 d         -16.275  45.299  -2.988  0.00  0.00     0.118 H 
BRANCH  45  50
ATOM     50  C22 N44 d         -13.851  46.171   1.245  0.00  0.00     0.212 C 
ATOM     51  O30 N44 d         -14.344  45.317   2.033  0.00  0.00    -0.644 OA
ATOM     52  O32 N44 d         -13.807  47.410   1.506  0.00  0.00    -0.644 OA
ENDBRANCH  45  50
ENDBRANCH  34  37
ENDBRANCH  32  34
BRANCH  32  53
ATOM     53  C27 N44 d         -10.806  47.988  -0.810  0.00  0.00     0.099 C 
ATOM     54  H23 N44 d         -10.094  48.004  -1.648  0.00  0.00     0.082 H 
ATOM     55  H24 N44 d         -11.713  47.441  -1.108  0.00  0.00     0.082 H 
BRANCH  53  56
ATOM     56  C20 N44 d         -11.192  49.394  -0.501  0.00  0.00    -0.087 C 
ATOM     57  C19 N44 d         -11.307  49.836   0.758  0.00  0.00    -0.123 C 
ATOM     58  H12 N44 d         -11.591  50.870   0.948  0.00  0.00     0.066 H 
ATOM     59  H13 N44 d         -11.116  49.161   1.590  0.00  0.00     0.066 H 
ATOM     60  H14 N44 d         -11.387  50.082  -1.322  0.00  0.00     0.078 H 
ENDBRANCH  53  56
ENDBRANCH  32  53
ENDBRANCH   1  32
TORSDOF 10
ENDMDL
MODEL 4
REMARK VINA RESULT:      -6.6      2.782      5.826
REMARK  10 active torsions:
REMARK  status: ('A' for Active; 'I' for Inactive)
REMARK    1  A    between atoms: C12_12  and  C21_21 
REMARK    2  A    between atoms: C13_13  and  C22_22 
REMARK    3  A    between atoms: C24_24  and  C14_14 
REMARK    4  A    between atoms: C25_25  and  C15_15 
REMARK    5  A    between atoms: C26_26  and  C16_16 
REMARK    6  A    between atoms: C27_27  and  C20_20 
REMARK       I    between atoms: C21_21  and  N28_28 
REMARK    7  A    between atoms: N28_28  and  C24_24 
REMARK    8  A    between atoms: N29_29  and  C25_25 
REMARK    9  A    between atoms: N29_29  and  C26_26 
REMARK   10  A    between atoms: C27_27  and  N29_29 
ROOT
ATOM      1  C25 N44 d          -9.976  45.482  -0.589  0.00  0.00     0.109 C 
ATOM      2  H19 N44 d         -10.279  46.129  -1.426  0.00  0.00     0.083 H 
ATOM      3  H20 N44 d          -8.878  45.467  -0.517  0.00  0.00     0.083 H 
ENDROOT
BRANCH   1   4
ATOM      4  C15 N44 d         -10.437  44.098  -0.887  0.00  0.00    -0.017 A 
ATOM      5  C9  N44 d         -11.720  43.940  -1.375  0.00  0.00    -0.074 A 
ATOM      6  C5  N44 d         -12.225  42.686  -1.672  0.00  0.00    -0.082 A 
ATOM      7  H9  N44 d         -12.343  44.814  -1.527  0.00  0.00     0.084 H 
ATOM      8  C2  N44 d         -11.426  41.588  -1.470  0.00  0.00    -0.082 A 
ATOM      9  H5  N44 d         -13.232  42.573  -2.057  0.00  0.00     0.083 H 
ATOM     10  C6  N44 d         -10.140  41.733  -0.983  0.00  0.00    -0.067 A 
ATOM     11  H2  N44 d         -11.806  40.598  -1.693  0.00  0.00     0.083 H 
ATOM     12  C12 N44 d          -9.630  42.986  -0.689  0.00  0.00     0.040 A 
ATOM     13  H6  N44 d          -9.524  40.855  -0.830  0.00  0.00     0.085 H 
BRANCH  12  14
ATOM     14  C21 N44 d          -8.239  43.101  -0.158  0.00  0.00     0.252 C 
ATOM     15  N28 N44 d          -7.990  42.675   1.139  0.00  0.00    -0.353 N 
ATOM     16  H25 N44 d          -8.734  42.297   1.690  0.00  0.00     0.163 HD
ATOM     17  O31 N44 d          -7.367  43.572  -0.872  0.00  0.00    -0.268 OA
BRANCH  15  18
ATOM     18  C24 N44 d          -6.658  42.778   1.699  0.00  0.00     0.019 C 
ATOM     19  H17 N44 d          -6.314  41.776   1.994  0.00  0.00     0.071 H 
ATOM     20  H18 N44 d          -5.978  43.189   0.937  0.00  0.00     0.071 H 
BRANCH  18  21
ATOM     21  C14 N44 d          -6.648  43.672   2.898  0.00  0.00    -0.041 A 
ATOM     22  C7  N44 d          -6.799  45.034   2.756  0.00  0.00    -0.075 A 
ATOM     23  C3  N44 d          -6.809  45.859   3.857  0.00  0.00    -0.082 A 
ATOM     24  H7  N44 d          -6.911  45.460   1.766  0.00  0.00     0.084 H 
ATOM     25  C1  N44 d          -6.662  45.326   5.120  0.00  0.00    -0.083 A 
ATOM     26  H3  N44 d          -6.932  46.928   3.731  0.00  0.00     0.083 H 
ATOM     27  C4  N44 d          -6.492  43.968   5.271  0.00  0.00    -0.082 A 
ATOM     28  H1  N44 d          -6.682  45.973   5.990  0.00  0.00     0.083 H 
ATOM     29  C8  N44 d          -6.490  43.144   4.166  0.00  0.00    -0.075 A 
ATOM     30  H4  N44 d          -6.358  43.547   6.260  0.00  0.00     0.083 H 
ATOM     31  H8  N44 d          -6.365  42.074   4.292  0.00  0.00     0.084 H 
ENDBRANCH  18  21
ENDBRANCH  15  18
ENDBRANCH  12  14
ENDBRANCH   1   4
BRANCH   1  32
ATOM     32  N29 N44 d         -10.509  46.074   0.665  0.00  0.00    -0.060 N 
ATOM     33  H26 N44 d         -11.177  46.759   0.349  0.00  0.00     0.281 HD
BRANCH  32  34
ATOM     34  C26 N44 d          -9.538  46.887   1.481  0.00  0.00     0.109 C 
ATOM     35  H21 N44 d          -8.873  46.208   2.033  0.00  0.00     0.083 H 
ATOM     36  H22 N44 d          -8.941  47.519   0.808  0.00  0.00     0.083 H 
BRANCH  34  37
ATOM     37  C16 N44 d         -10.274  47.761   2.457  0.00  0.00    -0.013 A 
ATOM     38  C10 N44 d         -10.223  47.410   3.806  0.00  0.00    -0.071 A 
ATOM     39  C11 N44 d         -10.878  48.158   4.775  0.00  0.00    -0.047 A 
ATOM     40  H10 N44 d          -9.659  46.533   4.104  0.00  0.00     0.084 H 
ATOM     41  C17 N44 d         -11.581  49.257   4.336  0.00  0.00     0.106 A 
ATOM     42  H11 N44 d         -10.837  47.891   5.825  0.00  0.00     0.087 H 
ATOM     43  C18 N44 d         -11.640  49.612   3.012  0.00  0.00     0.122 A 
ATOM     44  O33 N44 d         -12.291  50.105   5.150  0.00  0.00    -0.323 OA
ATOM     45  C13 N44 d         -10.995  48.878   2.025  0.00  0.00     0.085 A 
ATOM     46  O34 N44 d         -12.419  50.754   2.823  0.00  0.00    -0.322 OA
ATOM     47  C23 N44 d         -12.807  51.043   4.179  0.00  0.00     0.115 A 
ATOM     48  H15 N44 d         -12.439  52.047   4.438  0.00  0.00     0.118 H 
ATOM     49  H16 N44 d         -13.906  51.029   4.235  0.00  0.00     0.118 H 
BRANCH  45  50
ATOM     50  C22 N44 d         -11.052  49.292   0.576  0.00  0.00     0.212 C 
ATOM     51  O30 N44 d         -10.192  50.136   0.199  0.00  0.00    -0.644 OA
ATOM     52  O32 N44 d         -11.900  48.770  -0.209  0.00  0.00    -0.644 OA
ENDBRANCH  45  50
ENDBRANCH  34  37
ENDBRANCH  32  34
BRANCH  32  53
ATOM     53  C27 N44 d         -11.335  45.083   1.434  0.00  0.00     0.099 C 
ATOM     54  H23 N44 d         -11.434  44.173   0.824  0.00  0.00     0.082 H 
ATOM     55  H24 N44 d         -10.803  44.843   2.367  0.00  0.00     0.082 H 
BRANCH  53  56
ATOM     56  C20 N44 d         -12.702  45.559   1.786  0.00  0.00    -0.087 C 
ATOM     57  C19 N44 d         -13.602  45.881   0.849  0.00  0.00    -0.123 C 
ATOM     58  H12 N44 d         -14.593  46.226   1.142  0.00  0.00     0.066 H 
ATOM     59  H13 N44 d         -13.344  45.798  -0.205  0.00  0.00     0.066 H 
ATOM     60  H14 N44 d         -12.977  45.648   2.836  0.00  0.00     0.078 H 
ENDBRANCH  53  56
ENDBRANCH  32  53
ENDBRANCH   1  32
TORSDOF 10
ENDMDL
MODEL 5
REMARK VINA RESULT:      -6.6      2.140      4.935
REMARK  10 active torsions:
REMARK  status: ('A' for Active; 'I' for Inactive)
REMARK    1  A    between atoms: C12_12  and  C21_21 
REMARK    2  A    between atoms: C13_13  and  C22_22 
REMARK    3  A    between atoms: C24_24  and  C14_14 
REMARK    4  A    between atoms: C25_25  and  C15_15 
REMARK    5  A    between atoms: C26_26  and  C16_16 
REMARK    6  A    between atoms: C27_27  and  C20_20 
REMARK       I    between atoms: C21_21  and  N28_28 
REMARK    7  A    between atoms: N28_28  and  C24_24 
REMARK    8  A    between atoms: N29_29  and  C25_25 
REMARK    9  A    between atoms: N29_29  and  C26_26 
REMARK   10  A    between atoms: C27_27  and  N29_29 
ROOT
ATOM      1  C25 N44 d          -8.819  45.657   1.418  0.00  0.00     0.109 C 
ATOM      2  H19 N44 d          -9.614  45.749   2.173  0.00  0.00     0.083 H 
ATOM      3  H20 N44 d          -9.253  45.312   0.468  0.00  0.00     0.083 H 
ENDROOT
BRANCH   1   4
ATOM      4  C15 N44 d          -7.858  44.621   1.888  0.00  0.00    -0.017 A 
ATOM      5  C9  N44 d          -7.213  44.841   3.090  0.00  0.00    -0.074 A 
ATOM      6  C5  N44 d          -6.302  43.928   3.593  0.00  0.00    -0.082 A 
ATOM      7  H9  N44 d          -7.423  45.745   3.649  0.00  0.00     0.084 H 
ATOM      8  C2  N44 d          -6.042  42.789   2.871  0.00  0.00    -0.082 A 
ATOM      9  H5  N44 d          -5.804  44.108   4.538  0.00  0.00     0.083 H 
ATOM     10  C6  N44 d          -6.682  42.557   1.667  0.00  0.00    -0.067 A 
ATOM     11  H2  N44 d          -5.329  42.065   3.247  0.00  0.00     0.083 H 
ATOM     12  C12 N44 d          -7.596  43.466   1.164  0.00  0.00     0.040 A 
ATOM     13  H6  N44 d          -6.464  41.652   1.111  0.00  0.00     0.085 H 
BRANCH  12  14
ATOM     14  C21 N44 d          -8.261  43.183  -0.143  0.00  0.00     0.252 C 
ATOM     15  N28 N44 d          -9.495  42.547  -0.133  0.00  0.00    -0.353 N 
ATOM     16  H25 N44 d          -9.918  42.296   0.738  0.00  0.00     0.163 HD
ATOM     17  O31 N44 d          -7.701  43.509  -1.179  0.00  0.00    -0.268 OA
BRANCH  15  18
ATOM     18  C24 N44 d         -10.172  42.244  -1.378  0.00  0.00     0.019 C 
ATOM     19  H17 N44 d          -9.440  42.259  -2.198  0.00  0.00     0.071 H 
ATOM     20  H18 N44 d         -10.624  41.243  -1.307  0.00  0.00     0.071 H 
BRANCH  18  21
ATOM     21  C14 N44 d         -11.245  43.247  -1.662  0.00  0.00    -0.041 A 
ATOM     22  C7  N44 d         -10.920  44.550  -1.969  0.00  0.00    -0.075 A 
ATOM     23  C3  N44 d         -11.901  45.472  -2.249  0.00  0.00    -0.082 A 
ATOM     24  H7  N44 d          -9.879  44.852  -1.990  0.00  0.00     0.084 H 
ATOM     25  C1  N44 d         -13.228  45.100  -2.220  0.00  0.00    -0.083 A 
ATOM     26  H3  N44 d         -11.631  46.493  -2.493  0.00  0.00     0.083 H 
ATOM     27  C4  N44 d         -13.564  43.804  -1.895  0.00  0.00    -0.082 A 
ATOM     28  H1  N44 d         -14.002  45.822  -2.452  0.00  0.00     0.083 H 
ATOM     29  C8  N44 d         -12.576  42.880  -1.623  0.00  0.00    -0.075 A 
ATOM     30  H4  N44 d         -14.606  43.510  -1.853  0.00  0.00     0.083 H 
ATOM     31  H8  N44 d         -12.847  41.859  -1.377  0.00  0.00     0.084 H 
ENDBRANCH  18  21
ENDBRANCH  15  18
ENDBRANCH  12  14
ENDBRANCH   1   4
BRANCH   1  32
ATOM     32  N29 N44 d          -8.238  47.007   1.194  0.00  0.00    -0.060 N 
ATOM     33  H26 N44 d          -7.295  46.929   1.543  0.00  0.00     0.281 HD
BRANCH  32  34
ATOM     34  C26 N44 d          -8.821  48.125   2.019  0.00  0.00     0.109 C 
ATOM     35  H21 N44 d          -9.244  47.709   2.944  0.00  0.00     0.083 H 
ATOM     36  H22 N44 d          -8.026  48.842   2.270  0.00  0.00     0.083 H 
BRANCH  34  37
ATOM     37  C16 N44 d          -9.903  48.833   1.254  0.00  0.00    -0.013 A 
ATOM     38  C10 N44 d          -9.511  49.711   0.243  0.00  0.00    -0.071 A 
ATOM     39  C11 N44 d         -10.444  50.411  -0.510  0.00  0.00    -0.047 A 
ATOM     40  H10 N44 d          -8.455  49.849   0.040  0.00  0.00     0.084 H 
ATOM     41  C17 N44 d         -11.769  50.199  -0.205  0.00  0.00     0.106 A 
ATOM     42  H11 N44 d         -10.144  51.091  -1.300  0.00  0.00     0.087 H 
ATOM     43  C18 N44 d         -12.167  49.339   0.788  0.00  0.00     0.122 A 
ATOM     44  O33 N44 d         -12.823  50.808  -0.839  0.00  0.00    -0.323 OA
ATOM     45  C13 N44 d         -11.252  48.630   1.556  0.00  0.00     0.085 A 
ATOM     46  O34 N44 d         -13.557  49.304   0.907  0.00  0.00    -0.322 OA
ATOM     47  C23 N44 d         -13.940  50.228  -0.127  0.00  0.00     0.115 A 
ATOM     48  H15 N44 d         -14.573  49.694  -0.852  0.00  0.00     0.118 H 
ATOM     49  H16 N44 d         -14.518  51.044   0.333  0.00  0.00     0.118 H 
BRANCH  45  50
ATOM     50  C22 N44 d         -11.704  47.673   2.630  0.00  0.00     0.212 C 
ATOM     51  O30 N44 d         -12.133  46.552   2.240  0.00  0.00    -0.644 OA
ATOM     52  O32 N44 d         -11.606  47.988   3.854  0.00  0.00    -0.644 OA
ENDBRANCH  45  50
ENDBRANCH  34  37
ENDBRANCH  32  34
BRANCH  32  53
ATOM     53  C27 N44 d          -8.068  47.297  -0.269  0.00  0.00     0.099 C 
ATOM     54  H23 N44 d          -8.502  46.462  -0.837  0.00  0.00     0.082 H 
ATOM     55  H24 N44 d          -8.614  48.224  -0.501  0.00  0.00     0.082 H 
BRANCH  53  56
ATOM     56  C20 N44 d          -6.653  47.471  -0.703  0.00  0.00    -0.087 C 
ATOM     57  C19 N44 d          -6.118  48.681  -0.906  0.00  0.00    -0.123 C 
ATOM     58  H12 N44 d          -5.080  48.771  -1.224  0.00  0.00     0.066 H 
ATOM     59  H13 N44 d          -6.721  49.574  -0.754  0.00  0.00     0.066 H 
ATOM     60  H14 N44 d          -6.036  46.587  -0.860  0.00  0.00     0.078 H 
ENDBRANCH  53  56
ENDBRANCH  32  53
ENDBRANCH   1  32
TORSDOF 10
ENDMDL
MODEL 6
REMARK VINA RESULT:      -6.5      2.564      7.322
REMARK  10 active torsions:
REMARK  status: ('A' for Active; 'I' for Inactive)
REMARK    1  A    between atoms: C12_12  and  C21_21 
REMARK    2  A    between atoms: C13_13  and  C22_22 
REMARK    3  A    between atoms: C24_24  and  C14_14 
REMARK    4  A    between atoms: C25_25  and  C15_15 
REMARK    5  A    between atoms: C26_26  and  C16_16 
REMARK    6  A    between atoms: C27_27  and  C20_20 
REMARK       I    between atoms: C21_21  and  N28_28 
REMARK    7  A    between atoms: N28_28  and  C24_24 
REMARK    8  A    between atoms: N29_29  and  C25_25 
REMARK    9  A    between atoms: N29_29  and  C26_26 
REMARK   10  A    between atoms: C27_27  and  N29_29 
ROOT
ATOM      1  C25 N44 d          -9.902  45.413  -1.269  0.00  0.00     0.109 C 
ATOM      2  H19 N44 d          -9.545  46.250  -0.650  0.00  0.00     0.083 H 
ATOM      3  H20 N44 d          -9.638  45.596  -2.321  0.00  0.00     0.083 H 
ENDROOT
BRANCH   1   4
ATOM      4  C15 N44 d         -11.387  45.368  -1.167  0.00  0.00    -0.017 A 
ATOM      5  C9  N44 d         -12.109  45.267  -2.341  0.00  0.00    -0.074 A 
ATOM      6  C5  N44 d         -13.492  45.223  -2.331  0.00  0.00    -0.082 A 
ATOM      7  H9  N44 d         -11.582  45.221  -3.287  0.00  0.00     0.084 H 
ATOM      8  C2  N44 d         -14.145  45.287  -1.125  0.00  0.00    -0.082 A 
ATOM      9  H5  N44 d         -14.048  45.141  -3.257  0.00  0.00     0.083 H 
ATOM     10  C6  N44 d         -13.435  45.387   0.056  0.00  0.00    -0.067 A 
ATOM     11  H2  N44 d         -15.228  45.259  -1.099  0.00  0.00     0.083 H 
ATOM     12  C12 N44 d         -12.051  45.426   0.051  0.00  0.00     0.040 A 
ATOM     13  H6  N44 d         -13.968  45.436   0.999  0.00  0.00     0.085 H 
BRANCH  12  14
ATOM     14  C21 N44 d         -11.320  45.542   1.347  0.00  0.00     0.252 C 
ATOM     15  N28 N44 d         -11.246  46.788   1.955  0.00  0.00    -0.353 N 
ATOM     16  H25 N44 d         -11.683  47.578   1.525  0.00  0.00     0.163 HD
ATOM     17  O31 N44 d         -10.802  44.547   1.830  0.00  0.00    -0.268 OA
BRANCH  15  18
ATOM     18  C24 N44 d         -10.538  46.949   3.208  0.00  0.00     0.019 C 
ATOM     19  H17 N44 d         -10.645  46.031   3.803  0.00  0.00     0.071 H 
ATOM     20  H18 N44 d          -9.472  47.129   2.999  0.00  0.00     0.071 H 
BRANCH  18  21
ATOM     21  C14 N44 d         -11.085  48.103   3.988  0.00  0.00    -0.041 A 
ATOM     22  C7  N44 d         -11.749  49.127   3.349  0.00  0.00    -0.075 A 
ATOM     23  C3  N44 d         -12.271  50.180   4.063  0.00  0.00    -0.082 A 
ATOM     24  H7  N44 d         -11.862  49.101   2.271  0.00  0.00     0.084 H 
ATOM     25  C1  N44 d         -12.128  50.224   5.433  0.00  0.00    -0.083 A 
ATOM     26  H3  N44 d         -12.794  50.977   3.547  0.00  0.00     0.083 H 
ATOM     27  C4  N44 d         -11.448  49.216   6.079  0.00  0.00    -0.082 A 
ATOM     28  H1  N44 d         -12.548  51.048   5.999  0.00  0.00     0.083 H 
ATOM     29  C8  N44 d         -10.934  48.156   5.361  0.00  0.00    -0.075 A 
ATOM     30  H4  N44 d         -11.317  49.254   7.154  0.00  0.00     0.083 H 
ATOM     31  H8  N44 d         -10.409  47.361   5.877  0.00  0.00     0.084 H 
ENDBRANCH  18  21
ENDBRANCH  15  18
ENDBRANCH  12  14
ENDBRANCH   1   4
BRANCH   1  32
ATOM     32  N29 N44 d          -9.198  44.181  -0.827  0.00  0.00    -0.060 N 
ATOM     33  H26 N44 d          -9.586  43.989   0.083  0.00  0.00     0.281 HD
BRANCH  32  34
ATOM     34  C26 N44 d          -7.723  44.322  -0.553  0.00  0.00     0.109 C 
ATOM     35  H21 N44 d          -7.177  43.539  -1.099  0.00  0.00     0.083 H 
ATOM     36  H22 N44 d          -7.385  45.311  -0.894  0.00  0.00     0.083 H 
BRANCH  34  37
ATOM     37  C16 N44 d          -7.446  44.184   0.918  0.00  0.00    -0.013 A 
ATOM     38  C10 N44 d          -7.433  42.897   1.455  0.00  0.00    -0.071 A 
ATOM     39  C11 N44 d          -7.191  42.679   2.805  0.00  0.00    -0.047 A 
ATOM     40  H10 N44 d          -7.616  42.049   0.805  0.00  0.00     0.084 H 
ATOM     41  C17 N44 d          -6.970  43.793   3.582  0.00  0.00     0.106 A 
ATOM     42  H11 N44 d          -7.176  41.679   3.226  0.00  0.00     0.087 H 
ATOM     43  C18 N44 d          -6.981  45.064   3.064  0.00  0.00     0.122 A 
ATOM     44  O33 N44 d          -6.721  43.767   4.932  0.00  0.00    -0.323 OA
ATOM     45  C13 N44 d          -7.224  45.308   1.719  0.00  0.00     0.085 A 
ATOM     46  O34 N44 d          -6.740  46.020   4.052  0.00  0.00    -0.322 OA
ATOM     47  C23 N44 d          -6.574  45.178   5.208  0.00  0.00     0.115 A 
ATOM     48  H15 N44 d          -5.568  45.348   5.619  0.00  0.00     0.118 H 
ATOM     49  H16 N44 d          -7.329  45.464   5.956  0.00  0.00     0.118 H 
BRANCH  45  50
ATOM     50  C22 N44 d          -7.213  46.709   1.160  0.00  0.00     0.212 C 
ATOM     51  O30 N44 d          -6.085  47.178   0.844  0.00  0.00    -0.644 OA
ATOM     52  O32 N44 d          -8.298  47.341   0.988  0.00  0.00    -0.644 OA
ENDBRANCH  45  50
ENDBRANCH  34  37
ENDBRANCH  32  34
BRANCH  32  53
ATOM     53  C27 N44 d          -9.595  42.992  -1.654  0.00  0.00     0.099 C 
ATOM     54  H23 N44 d         -10.144  43.356  -2.535  0.00  0.00     0.082 H 
ATOM     55  H24 N44 d          -8.679  42.478  -1.979  0.00  0.00     0.082 H 
BRANCH  53  56
ATOM     56  C20 N44 d         -10.456  42.005  -0.943  0.00  0.00    -0.087 C 
ATOM     57  C19 N44 d         -11.682  41.693  -1.380  0.00  0.00    -0.123 C 
ATOM     58  H12 N44 d         -12.285  40.967  -0.836  0.00  0.00     0.066 H 
ATOM     59  H13 N44 d         -12.077  42.164  -2.278  0.00  0.00     0.066 H 
ATOM     60  H14 N44 d         -10.077  41.525  -0.043  0.00  0.00     0.078 H 
ENDBRANCH  53  56
ENDBRANCH  32  53
ENDBRANCH   1  32
TORSDOF 10
ENDMDL
MODEL 7
REMARK VINA RESULT:      -6.4      1.324      2.121
REMARK  10 active torsions:
REMARK  status: ('A' for Active; 'I' for Inactive)
REMARK    1  A    between atoms: C12_12  and  C21_21 
REMARK    2  A    between atoms: C13_13  and  C22_22 
REMARK    3  A    between atoms: C24_24  and  C14_14 
REMARK    4  A    between atoms: C25_25  and  C15_15 
REMARK    5  A    between atoms: C26_26  and  C16_16 
REMARK    6  A    between atoms: C27_27  and  C20_20 
REMARK       I    between atoms: C21_21  and  N28_28 
REMARK    7  A    between atoms: N28_28  and  C24_24 
REMARK    8  A    between atoms: N29_29  and  C25_25 
REMARK    9  A    between atoms: N29_29  and  C26_26 
REMARK   10  A    between atoms: C27_27  and  N29_29 
ROOT
ATOM      1  C25 N44 d         -10.616  48.049  -0.731  0.00  0.00     0.109 C 
ATOM      2  H19 N44 d         -10.397  47.092  -1.227  0.00  0.00     0.083 H 
ATOM      3  H20 N44 d         -11.526  48.488  -1.165  0.00  0.00     0.083 H 
ENDROOT
BRANCH   1   4
ATOM      4  C15 N44 d          -9.483  48.977  -1.001  0.00  0.00    -0.017 A 
ATOM      5  C9  N44 d          -9.714  50.043  -1.849  0.00  0.00    -0.074 A 
ATOM      6  C5  N44 d          -8.711  50.947  -2.154  0.00  0.00    -0.082 A 
ATOM      7  H9  N44 d         -10.698  50.174  -2.283  0.00  0.00     0.084 H 
ATOM      8  C2  N44 d          -7.468  50.766  -1.599  0.00  0.00    -0.082 A 
ATOM      9  H5  N44 d          -8.904  51.782  -2.817  0.00  0.00     0.083 H 
ATOM     10  C6  N44 d          -7.224  49.703  -0.749  0.00  0.00    -0.067 A 
ATOM     11  H2  N44 d          -6.670  51.462  -1.830  0.00  0.00     0.083 H 
ATOM     12  C12 N44 d          -8.226  48.800  -0.438  0.00  0.00     0.040 A 
ATOM     13  H6  N44 d          -6.237  49.576  -0.321  0.00  0.00     0.085 H 
BRANCH  12  14
ATOM     14  C21 N44 d          -7.922  47.661   0.478  0.00  0.00     0.252 C 
ATOM     15  N28 N44 d          -7.619  46.426  -0.080  0.00  0.00    -0.353 N 
ATOM     16  H25 N44 d          -7.602  46.321  -1.074  0.00  0.00     0.163 HD
ATOM     17  O31 N44 d          -7.957  47.843   1.685  0.00  0.00    -0.268 OA
BRANCH  15  18
ATOM     18  C24 N44 d          -7.327  45.291   0.771  0.00  0.00     0.019 C 
ATOM     19  H17 N44 d          -6.268  45.017   0.656  0.00  0.00     0.071 H 
ATOM     20  H18 N44 d          -7.523  45.567   1.818  0.00  0.00     0.071 H 
BRANCH  18  21
ATOM     21  C14 N44 d          -8.179  44.116   0.407  0.00  0.00    -0.041 A 
ATOM     22  C7  N44 d          -8.209  43.650  -0.889  0.00  0.00    -0.075 A 
ATOM     23  C3  N44 d          -8.976  42.559  -1.226  0.00  0.00    -0.082 A 
ATOM     24  H7  N44 d          -7.623  44.149  -1.652  0.00  0.00     0.084 H 
ATOM     25  C1  N44 d          -9.729  41.920  -0.265  0.00  0.00    -0.083 A 
ATOM     26  H3  N44 d          -8.988  42.201  -2.249  0.00  0.00     0.083 H 
ATOM     27  C4  N44 d          -9.720  42.391   1.030  0.00  0.00    -0.082 A 
ATOM     28  H1  N44 d         -10.325  41.053  -0.525  0.00  0.00     0.083 H 
ATOM     29  C8  N44 d          -8.944  43.480   1.366  0.00  0.00    -0.075 A 
ATOM     30  H4  N44 d         -10.325  41.904   1.786  0.00  0.00     0.083 H 
ATOM     31  H8  N44 d          -8.934  43.839   2.389  0.00  0.00     0.084 H 
ENDBRANCH  18  21
ENDBRANCH  15  18
ENDBRANCH  12  14
ENDBRANCH   1   4
BRANCH   1  32
ATOM     32  N29 N44 d         -10.880  47.772   0.706  0.00  0.00    -0.060 N 
ATOM     33  H26 N44 d          -9.983  47.891   1.148  0.00  0.00     0.281 HD
BRANCH  32  34
ATOM     34  C26 N44 d         -11.251  46.354   1.050  0.00  0.00     0.109 C 
ATOM     35  H21 N44 d         -10.334  45.764   1.192  0.00  0.00     0.083 H 
ATOM     36  H22 N44 d         -11.838  46.349   1.981  0.00  0.00     0.083 H 
BRANCH  34  37
ATOM     37  C16 N44 d         -12.067  45.740  -0.052  0.00  0.00    -0.013 A 
ATOM     38  C10 N44 d         -11.389  45.295  -1.187  0.00  0.00    -0.071 A 
ATOM     39  C11 N44 d         -12.065  44.720  -2.255  0.00  0.00    -0.047 A 
ATOM     40  H10 N44 d         -10.311  45.399  -1.236  0.00  0.00     0.084 H 
ATOM     41  C17 N44 d         -13.433  44.619  -2.139  0.00  0.00     0.106 A 
ATOM     42  H11 N44 d         -11.542  44.369  -3.138  0.00  0.00     0.087 H 
ATOM     43  C18 N44 d         -14.111  45.055  -1.028  0.00  0.00     0.122 A 
ATOM     44  O33 N44 d         -14.260  44.086  -3.096  0.00  0.00    -0.323 OA
ATOM     45  C13 N44 d         -13.457  45.634   0.051  0.00  0.00     0.085 A 
ATOM     46  O34 N44 d         -15.485  44.848  -1.155  0.00  0.00    -0.322 OA
ATOM     47  C23 N44 d         -15.547  44.235  -2.456  0.00  0.00     0.115 A 
ATOM     48  H15 N44 d         -15.998  43.237  -2.347  0.00  0.00     0.118 H 
ATOM     49  H16 N44 d         -16.185  44.857  -3.102  0.00  0.00     0.118 H 
BRANCH  45  50
ATOM     50  C22 N44 d         -14.213  46.090   1.274  0.00  0.00     0.212 C 
ATOM     51  O30 N44 d         -14.448  45.210   2.149  0.00  0.00    -0.644 OA
ATOM     52  O32 N44 d         -14.544  47.306   1.410  0.00  0.00    -0.644 OA
ENDBRANCH  45  50
ENDBRANCH  34  37
ENDBRANCH  32  34
BRANCH  32  53
ATOM     53  C27 N44 d         -11.739  48.838   1.323  0.00  0.00     0.099 C 
ATOM     54  H23 N44 d         -11.951  49.596   0.554  0.00  0.00     0.082 H 
ATOM     55  H24 N44 d         -12.681  48.373   1.650  0.00  0.00     0.082 H 
BRANCH  53  56
ATOM     56  C20 N44 d         -11.126  49.523   2.496  0.00  0.00    -0.087 C 
ATOM     57  C19 N44 d         -10.139  50.416   2.357  0.00  0.00    -0.123 C 
ATOM     58  H12 N44 d          -9.714  50.898   3.236  0.00  0.00     0.066 H 
ATOM     59  H13 N44 d          -9.763  50.661   1.366  0.00  0.00     0.066 H 
ATOM     60  H14 N44 d         -11.491  49.289   3.495  0.00  0.00     0.078 H 
ENDBRANCH  53  56
ENDBRANCH  32  53
ENDBRANCH   1  32
TORSDOF 10
ENDMDL
MODEL 8
REMARK VINA RESULT:      -6.3      2.315      6.397
REMARK  10 active torsions:
REMARK  status: ('A' for Active; 'I' for Inactive)
REMARK    1  A    between atoms: C12_12  and  C21_21 
REMARK    2  A    between atoms: C13_13  and  C22_22 
REMARK    3  A    between atoms: C24_24  and  C14_14 
REMARK    4  A    between atoms: C25_25  and  C15_15 
REMARK    5  A    between atoms: C26_26  and  C16_16 
REMARK    6  A    between atoms: C27_27  and  C20_20 
REMARK       I    between atoms: C21_21  and  N28_28 
REMARK    7  A    between atoms: N28_28  and  C24_24 
REMARK    8  A    between atoms: N29_29  and  C25_25 
REMARK    9  A    between atoms: N29_29  and  C26_26 
REMARK   10  A    between atoms: C27_27  and  N29_29 
ROOT
ATOM      1  C25 N44 d         -12.122  45.230   0.184  0.00  0.00     0.109 C 
ATOM      2  H19 N44 d         -11.396  44.422   0.008  0.00  0.00     0.083 H 
ATOM      3  H20 N44 d         -12.521  45.147   1.206  0.00  0.00     0.083 H 
ENDROOT
BRANCH   1   4
ATOM      4  C15 N44 d         -13.252  45.049  -0.769  0.00  0.00    -0.017 A 
ATOM      5  C9  N44 d         -14.413  45.760  -0.531  0.00  0.00    -0.074 A 
ATOM      6  C5  N44 d         -15.509  45.644  -1.367  0.00  0.00    -0.082 A 
ATOM      7  H9  N44 d         -14.466  46.421   0.326  0.00  0.00     0.084 H 
ATOM      8  C2  N44 d         -15.428  44.799  -2.447  0.00  0.00    -0.082 A 
ATOM      9  H5  N44 d         -16.413  46.208  -1.174  0.00  0.00     0.083 H 
ATOM     10  C6  N44 d         -14.273  44.083  -2.696  0.00  0.00    -0.067 A 
ATOM     11  H2  N44 d         -16.279  44.692  -3.110  0.00  0.00     0.083 H 
ATOM     12  C12 N44 d         -13.173  44.200  -1.864  0.00  0.00     0.040 A 
ATOM     13  H6  N44 d         -14.228  43.421  -3.553  0.00  0.00     0.085 H 
BRANCH  12  14
ATOM     14  C21 N44 d         -11.945  43.405  -2.162  0.00  0.00     0.252 C 
ATOM     15  N28 N44 d         -11.649  42.318  -1.351  0.00  0.00    -0.353 N 
ATOM     16  H25 N44 d         -12.257  42.083  -0.593  0.00  0.00     0.163 HD
ATOM     17  O31 N44 d         -11.234  43.735  -3.100  0.00  0.00    -0.268 OA
BRANCH  15  18
ATOM     18  C24 N44 d         -10.462  41.524  -1.597  0.00  0.00     0.019 C 
ATOM     19  H17 N44 d         -10.676  40.473  -1.354  0.00  0.00     0.071 H 
ATOM     20  H18 N44 d         -10.188  41.606  -2.659  0.00  0.00     0.071 H 
BRANCH  18  21
ATOM     21  C14 N44 d          -9.318  41.997  -0.757  0.00  0.00    -0.041 A 
ATOM     22  C7  N44 d          -8.955  41.311   0.381  0.00  0.00    -0.075 A 
ATOM     23  C3  N44 d          -7.893  41.731   1.147  0.00  0.00    -0.082 A 
ATOM     24  H7  N44 d          -9.514  40.431   0.677  0.00  0.00     0.084 H 
ATOM     25  C1  N44 d          -7.178  42.852   0.781  0.00  0.00    -0.083 A 
ATOM     26  H3  N44 d          -7.617  41.180   2.038  0.00  0.00     0.083 H 
ATOM     27  C4  N44 d          -7.545  43.555  -0.345  0.00  0.00    -0.082 A 
ATOM     28  H1  N44 d          -6.333  43.178   1.376  0.00  0.00     0.083 H 
ATOM     29  C8  N44 d          -8.606  43.126  -1.114  0.00  0.00    -0.075 A 
ATOM     30  H4  N44 d          -6.998  44.447  -0.627  0.00  0.00     0.083 H 
ATOM     31  H8  N44 d          -8.883  43.679  -2.005  0.00  0.00     0.084 H 
ENDBRANCH  18  21
ENDBRANCH  15  18
ENDBRANCH  12  14
ENDBRANCH   1   4
BRANCH   1  32
ATOM     32  N29 N44 d         -11.402  46.526   0.076  0.00  0.00    -0.060 N 
ATOM     33  H26 N44 d         -11.876  47.008  -0.672  0.00  0.00     0.281 HD
BRANCH  32  34
ATOM     34  C26 N44 d          -9.977  46.455  -0.406  0.00  0.00     0.109 C 
ATOM     35  H21 N44 d          -9.790  45.461  -0.837  0.00  0.00     0.083 H 
ATOM     36  H22 N44 d          -9.816  47.224  -1.176  0.00  0.00     0.083 H 
BRANCH  34  37
ATOM     37  C16 N44 d          -9.024  46.688   0.732  0.00  0.00    -0.013 A 
ATOM     38  C10 N44 d          -9.064  45.792   1.801  0.00  0.00    -0.071 A 
ATOM     39  C11 N44 d          -8.223  45.934   2.897  0.00  0.00    -0.047 A 
ATOM     40  H10 N44 d          -9.766  44.967   1.776  0.00  0.00     0.084 H 
ATOM     41  C17 N44 d          -7.356  47.003   2.876  0.00  0.00     0.106 A 
ATOM     42  H11 N44 d          -8.248  45.238   3.728  0.00  0.00     0.087 H 
ATOM     43  C18 N44 d          -7.309  47.891   1.830  0.00  0.00     0.122 A 
ATOM     44  O33 N44 d          -6.461  47.301   3.873  0.00  0.00    -0.323 OA
ATOM     45  C13 N44 d          -8.141  47.771   0.726  0.00  0.00     0.085 A 
ATOM     46  O34 N44 d          -6.356  48.887   2.050  0.00  0.00    -0.322 OA
ATOM     47  C23 N44 d          -5.837  48.488   3.332  0.00  0.00     0.115 A 
ATOM     48  H15 N44 d          -4.759  48.295   3.224  0.00  0.00     0.118 H 
ATOM     49  H16 N44 d          -5.993  49.315   4.041  0.00  0.00     0.118 H 
BRANCH  45  50
ATOM     50  C22 N44 d          -8.063  48.742  -0.425  0.00  0.00     0.212 C 
ATOM     51  O30 N44 d          -7.104  48.583  -1.230  0.00  0.00    -0.644 OA
ATOM     52  O32 N44 d          -8.952  49.633  -0.575  0.00  0.00    -0.644 OA
ENDBRANCH  45  50
ENDBRANCH  34  37
ENDBRANCH  32  34
BRANCH  32  53
ATOM     53  C27 N44 d         -11.640  47.390   1.280  0.00  0.00     0.099 C 
ATOM     54  H23 N44 d         -12.123  46.776   2.054  0.00  0.00     0.082 H 
ATOM     55  H24 N44 d         -10.664  47.743   1.648  0.00  0.00     0.082 H 
BRANCH  53  56
ATOM     56  C20 N44 d         -12.500  48.581   1.027  0.00  0.00    -0.087 C 
ATOM     57  C19 N44 d         -12.384  49.312  -0.088  0.00  0.00    -0.123 C 
ATOM     58  H12 N44 d         -13.029  50.176  -0.242  0.00  0.00     0.066 H 
ATOM     59  H13 N44 d         -11.645  49.043  -0.841  0.00  0.00     0.066 H 
ATOM     60  H14 N44 d         -13.244  48.863   1.769  0.00  0.00     0.078 H 
ENDBRANCH  53  56
ENDBRANCH  32  53
ENDBRANCH   1  32
TORSDOF 10
ENDMDL
MODEL 9
REMARK VINA RESULT:      -6.3      2.973      6.536
REMARK  10 active torsions:
REMARK  status: ('A' for Active; 'I' for Inactive)
REMARK    1  A    between atoms: C12_12  and  C21_21 
REMARK    2  A    between atoms: C13_13  and  C22_22 
REMARK    3  A    between atoms: C24_24  and  C14_14 
REMARK    4  A    between atoms: C25_25  and  C15_15 
REMARK    5  A    between atoms: C26_26  and  C16_16 
REMARK    6  A    between atoms: C27_27  and  C20_20 
REMARK       I    between atoms: C21_21  and  N28_28 
REMARK    7  A    between atoms: N28_28  and  C24_24 
REMARK    8  A    between atoms: N29_29  and  C25_25 
REMARK    9  A    between atoms: N29_29  and  C26_26 
REMARK   10  A    between atoms: C27_27  and  N29_29 
ROOT
ATOM      1  C25 N44 d         -10.048  45.381  -0.471  0.00  0.00     0.109 C 
ATOM      2  H19 N44 d         -10.589  46.100  -1.104  0.00  0.00     0.083 H 
ATOM      3  H20 N44 d          -8.971  45.439  -0.688  0.00  0.00     0.083 H 
ENDROOT
BRANCH   1   4
ATOM      4  C15 N44 d         -10.516  44.013  -0.828  0.00  0.00    -0.017 A 
ATOM      5  C9  N44 d         -11.823  43.871  -1.252  0.00  0.00    -0.074 A 
ATOM      6  C5  N44 d         -12.335  42.632  -1.598  0.00  0.00    -0.082 A 
ATOM      7  H9  N44 d         -12.460  44.746  -1.315  0.00  0.00     0.084 H 
ATOM      8  C2  N44 d         -11.517  41.533  -1.508  0.00  0.00    -0.082 A 
ATOM      9  H5  N44 d         -13.360  42.532  -1.932  0.00  0.00     0.083 H 
ATOM     10  C6  N44 d         -10.207  41.661  -1.087  0.00  0.00    -0.067 A 
ATOM     11  H2  N44 d         -11.902  40.554  -1.771  0.00  0.00     0.083 H 
ATOM     12  C12 N44 d          -9.691  42.899  -0.745  0.00  0.00     0.040 A 
ATOM     13  H6  N44 d          -9.577  40.782  -1.023  0.00  0.00     0.085 H 
BRANCH  12  14
ATOM     14  C21 N44 d          -8.273  42.997  -0.287  0.00  0.00     0.252 C 
ATOM     15  N28 N44 d          -7.923  42.393   0.913  0.00  0.00    -0.353 N 
ATOM     16  H25 N44 d          -8.615  41.902   1.443  0.00  0.00     0.163 HD
ATOM     17  O31 N44 d          -7.467  43.609  -0.971  0.00  0.00    -0.268 OA
BRANCH  15  18
ATOM     18  C24 N44 d          -6.562  42.470   1.401  0.00  0.00     0.019 C 
ATOM     19  H17 N44 d          -6.223  41.463   1.685  0.00  0.00     0.071 H 
ATOM     20  H18 N44 d          -5.915  42.864   0.603  0.00  0.00     0.071 H 
BRANCH  18  21
ATOM     21  C14 N44 d          -6.470  43.370   2.593  0.00  0.00    -0.041 A 
ATOM     22  C7  N44 d          -5.766  44.552   2.525  0.00  0.00    -0.075 A 
ATOM     23  C3  N44 d          -5.694  45.392   3.612  0.00  0.00    -0.082 A 
ATOM     24  H7  N44 d          -5.263  44.823   1.604  0.00  0.00     0.084 H 
ATOM     25  C1  N44 d          -6.327  45.053   4.789  0.00  0.00    -0.083 A 
ATOM     26  H3  N44 d          -5.140  46.320   3.543  0.00  0.00     0.083 H 
ATOM     27  C4  N44 d          -7.017  43.865   4.873  0.00  0.00    -0.082 A 
ATOM     28  H1  N44 d          -6.282  45.719   5.643  0.00  0.00     0.083 H 
ATOM     29  C8  N44 d          -7.094  43.030   3.779  0.00  0.00    -0.075 A 
ATOM     30  H4  N44 d          -7.502  43.585   5.802  0.00  0.00     0.083 H 
ATOM     31  H8  N44 d          -7.647  42.100   3.849  0.00  0.00     0.084 H 
ENDBRANCH  18  21
ENDBRANCH  15  18
ENDBRANCH  12  14
ENDBRANCH   1   4
BRANCH   1  32
ATOM     32  N29 N44 d         -10.253  45.772   0.948  0.00  0.00    -0.060 N 
ATOM     33  H26 N44 d         -10.432  46.763   0.905  0.00  0.00     0.281 HD
BRANCH  32  34
ATOM     34  C26 N44 d          -9.046  45.676   1.843  0.00  0.00     0.109 C 
ATOM     35  H21 N44 d          -9.211  44.886   2.590  0.00  0.00     0.083 H 
ATOM     36  H22 N44 d          -8.163  45.427   1.236  0.00  0.00     0.083 H 
BRANCH  34  37
ATOM     37  C16 N44 d          -8.809  46.981   2.549  0.00  0.00    -0.013 A 
ATOM     38  C10 N44 d          -9.408  47.160   3.796  0.00  0.00    -0.071 A 
ATOM     39  C11 N44 d          -9.246  48.337   4.515  0.00  0.00    -0.047 A 
ATOM     40  H10 N44 d         -10.013  46.363   4.213  0.00  0.00     0.084 H 
ATOM     41  C17 N44 d          -8.471  49.314   3.934  0.00  0.00     0.106 A 
ATOM     42  H11 N44 d          -9.707  48.478   5.487  0.00  0.00     0.087 H 
ATOM     43  C18 N44 d          -7.878  49.150   2.707  0.00  0.00     0.122 A 
ATOM     44  O33 N44 d          -8.209  50.539   4.496  0.00  0.00    -0.323 OA
ATOM     45  C13 N44 d          -8.027  47.984   1.969  0.00  0.00     0.085 A 
ATOM     46  O34 N44 d          -7.154  50.284   2.335  0.00  0.00    -0.322 OA
ATOM     47  C23 N44 d          -7.375  51.133   3.476  0.00  0.00     0.115 A 
ATOM     48  H15 N44 d          -6.398  51.372   3.923  0.00  0.00     0.118 H 
ATOM     49  H16 N44 d          -7.857  52.059   3.130  0.00  0.00     0.118 H 
BRANCH  45  50
ATOM     50  C22 N44 d          -7.352  47.810   0.631  0.00  0.00     0.212 C 
ATOM     51  O30 N44 d          -6.137  47.467   0.656  0.00  0.00    -0.644 OA
ATOM     52  O32 N44 d          -8.006  47.964  -0.444  0.00  0.00    -0.644 OA
ENDBRANCH  45  50
ENDBRANCH  34  37
ENDBRANCH  32  34
BRANCH  32  53
ATOM     53  C27 N44 d         -11.522  45.192   1.502  0.00  0.00     0.099 C 
ATOM     54  H23 N44 d         -11.780  44.302   0.909  0.00  0.00     0.082 H 
ATOM     55  H24 N44 d         -11.339  44.897   2.545  0.00  0.00     0.082 H 
BRANCH  53  56
ATOM     56  C20 N44 d         -12.687  46.121   1.479  0.00  0.00    -0.087 C 
ATOM     57  C19 N44 d         -13.941  45.680   1.321  0.00  0.00    -0.123 C 
ATOM     58  H12 N44 d         -14.770  46.386   1.309  0.00  0.00     0.066 H 
ATOM     59  H13 N44 d         -14.132  44.614   1.205  0.00  0.00     0.066 H 
ATOM     60  H14 N44 d         -12.514  47.190   1.593  0.00  0.00     0.078 H 
ENDBRANCH  53  56
ENDBRANCH  32  53
ENDBRANCH   1  32
TORSDOF 10
ENDMDL
MODEL 10
REMARK VINA RESULT:      -6.3      1.851      5.973
REMARK  10 active torsions:
REMARK  status: ('A' for Active; 'I' for Inactive)
REMARK    1  A    between atoms: C12_12  and  C21_21 
REMARK    2  A    between atoms: C13_13  and  C22_22 
REMARK    3  A    between atoms: C24_24  and  C14_14 
REMARK    4  A    between atoms: C25_25  and  C15_15 
REMARK    5  A    between atoms: C26_26  and  C16_16 
REMARK    6  A    between atoms: C27_27  and  C20_20 
REMARK       I    between atoms: C21_21  and  N28_28 
REMARK    7  A    between atoms: N28_28  and  C24_24 
REMARK    8  A    between atoms: N29_29  and  C25_25 
REMARK    9  A    between atoms: N29_29  and  C26_26 
REMARK   10  A    between atoms: C27_27  and  N29_29 
ROOT
ATOM      1  C25 N44 d         -10.624  47.450  -0.913  0.00  0.00     0.109 C 
ATOM      2  H19 N44 d         -10.420  47.789  -1.940  0.00  0.00     0.083 H 
ATOM      3  H20 N44 d         -10.751  46.357  -0.906  0.00  0.00     0.083 H 
ENDROOT
BRANCH   1   4
ATOM      4  C15 N44 d         -11.907  48.065  -0.472  0.00  0.00    -0.017 A 
ATOM      5  C9  N44 d         -11.955  49.442  -0.366  0.00  0.00    -0.074 A 
ATOM      6  C5  N44 d         -13.109  50.089   0.041  0.00  0.00    -0.082 A 
ATOM      7  H9  N44 d         -11.074  50.026  -0.605  0.00  0.00     0.084 H 
ATOM      8  C2  N44 d         -14.216  49.336   0.346  0.00  0.00    -0.082 A 
ATOM      9  H5  N44 d         -13.138  51.170   0.118  0.00  0.00     0.083 H 
ATOM     10  C6  N44 d         -14.180  47.958   0.242  0.00  0.00    -0.067 A 
ATOM     11  H2  N44 d         -15.126  49.826   0.670  0.00  0.00     0.083 H 
ATOM     12  C12 N44 d         -13.030  47.307  -0.169  0.00  0.00     0.040 A 
ATOM     13  H6  N44 d         -15.064  47.380   0.487  0.00  0.00     0.085 H 
BRANCH  12  14
ATOM     14  C21 N44 d         -13.028  45.817  -0.261  0.00  0.00     0.252 C 
ATOM     15  N28 N44 d         -12.937  45.233  -1.518  0.00  0.00    -0.353 N 
ATOM     16  H25 N44 d         -12.868  45.811  -2.331  0.00  0.00     0.163 HD
ATOM     17  O31 N44 d         -13.116  45.157   0.763  0.00  0.00    -0.268 OA
BRANCH  15  18
ATOM     18  C24 N44 d         -12.942  43.791  -1.655  0.00  0.00     0.019 C 
ATOM     19  H17 N44 d         -13.586  43.357  -0.876  0.00  0.00     0.071 H 
ATOM     20  H18 N44 d         -13.338  43.525  -2.647  0.00  0.00     0.071 H 
BRANCH  18  21
ATOM     21  C14 N44 d         -11.560  43.235  -1.514  0.00  0.00    -0.041 A 
ATOM     22  C7  N44 d         -10.460  44.050  -1.665  0.00  0.00    -0.075 A 
ATOM     23  C3  N44 d          -9.188  43.548  -1.518  0.00  0.00    -0.082 A 
ATOM     24  H7  N44 d         -10.598  45.098  -1.903  0.00  0.00     0.084 H 
ATOM     25  C1  N44 d          -9.001  42.215  -1.221  0.00  0.00    -0.083 A 
ATOM     26  H3  N44 d          -8.331  44.201  -1.637  0.00  0.00     0.083 H 
ATOM     27  C4  N44 d         -10.095  41.388  -1.087  0.00  0.00    -0.082 A 
ATOM     28  H1  N44 d          -8.000  41.819  -1.093  0.00  0.00     0.083 H 
ATOM     29  C8  N44 d         -11.369  41.896  -1.227  0.00  0.00    -0.075 A 
ATOM     30  H4  N44 d          -9.953  40.335  -0.871  0.00  0.00     0.083 H 
ATOM     31  H8  N44 d         -12.226  41.242  -1.110  0.00  0.00     0.084 H 
ENDBRANCH  18  21
ENDBRANCH  15  18
ENDBRANCH  12  14
ENDBRANCH   1   4
BRANCH   1  32
ATOM     32  N29 N44 d          -9.441  47.780  -0.077  0.00  0.00    -0.060 N 
ATOM     33  H26 N44 d          -8.721  47.160  -0.414  0.00  0.00     0.281 HD
BRANCH  32  34
ATOM     34  C26 N44 d          -9.543  47.429   1.385  0.00  0.00     0.109 C 
ATOM     35  H21 N44 d          -8.983  48.169   1.975  0.00  0.00     0.083 H 
ATOM     36  H22 N44 d         -10.600  47.444   1.688  0.00  0.00     0.083 H 
BRANCH  34  37
ATOM     37  C16 N44 d          -8.975  46.062   1.639  0.00  0.00    -0.013 A 
ATOM     38  C10 N44 d          -9.874  45.004   1.776  0.00  0.00    -0.071 A 
ATOM     39  C11 N44 d          -9.436  43.708   2.018  0.00  0.00    -0.047 A 
ATOM     40  H10 N44 d         -10.937  45.197   1.693  0.00  0.00     0.084 H 
ATOM     41  C17 N44 d          -8.076  43.524   2.118  0.00  0.00     0.106 A 
ATOM     42  H11 N44 d         -10.131  42.882   2.122  0.00  0.00     0.087 H 
ATOM     43  C18 N44 d          -7.182  44.557   1.986  0.00  0.00     0.122 A 
ATOM     44  O33 N44 d          -7.468  42.317   2.360  0.00  0.00    -0.323 OA
ATOM     45  C13 N44 d          -7.596  45.861   1.747  0.00  0.00     0.085 A 
ATOM     46  O34 N44 d          -5.867  44.116   2.136  0.00  0.00    -0.322 OA
ATOM     47  C23 N44 d          -6.076  42.710   2.362  0.00  0.00     0.115 A 
ATOM     48  H15 N44 d          -5.557  42.151   1.570  0.00  0.00     0.118 H 
ATOM     49  H16 N44 d          -5.645  42.449   3.340  0.00  0.00     0.118 H 
BRANCH  45  50
ATOM     50  C22 N44 d          -6.601  46.982   1.583  0.00  0.00     0.212 C 
ATOM     51  O30 N44 d          -6.245  47.249   0.401  0.00  0.00    -0.644 OA
ATOM     52  O32 N44 d          -6.195  47.634   2.591  0.00  0.00    -0.644 OA
ENDBRANCH  45  50
ENDBRANCH  34  37
ENDBRANCH  32  34
BRANCH  32  53
ATOM     53  C27 N44 d          -8.916  49.153  -0.381  0.00  0.00     0.099 C 
ATOM     54  H23 N44 d          -7.992  49.045  -0.967  0.00  0.00     0.082 H 
ATOM     55  H24 N44 d          -9.671  49.684  -0.980  0.00  0.00     0.082 H 
BRANCH  53  56
ATOM     56  C20 N44 d          -8.612  49.979   0.822  0.00  0.00    -0.087 C 
ATOM     57  C19 N44 d          -7.426  50.577   0.988  0.00  0.00    -0.123 C 
ATOM     58  H12 N44 d          -7.238  51.173   1.879  0.00  0.00     0.066 H 
ATOM     59  H13 N44 d          -6.651  50.467   0.232  0.00  0.00     0.066 H 
ATOM     60  H14 N44 d          -9.377  50.099   1.588  0.00  0.00     0.078 H 
ENDBRANCH  53  56
ENDBRANCH  32  53
ENDBRANCH   1  32
TORSDOF 10
ENDMDL
