MODEL 1
REMARK VINA RESULT:      -7.6      0.000      0.000
REMARK  12 active torsions:
REMARK  status: ('A' for Active; 'I' for Inactive)
REMARK    1  A    between atoms: O4_1  and  C4_2 
REMARK    2  A    between atoms: C3_6  and  O3_7 
REMARK    3  A    between atoms: C2_8  and  O2_9 
REMARK    4  A    between atoms: C1_10  and  O1_11 
REMARK    5  A    between atoms: N2_14  and  C8_15 
REMARK    6  A    between atoms: C8_15  and  C9_16 
REMARK    7  A    between atoms: C9_16  and  C10_17 
REMARK    8  A    between atoms: C10_17  and  C11_18 
REMARK    9  A    between atoms: C11_18  and  C12_19 
REMARK   10  A    between atoms: C12_19  and  C13_20 
REMARK   11  A    between atoms: C13_20  and  C14_21 
REMARK   12  A    between atoms: C14_21  and  C15_22 
ROOT
ATOM      1  C4  LGS d           1.653   6.683  13.318  0.00  0.00     0.084 C 
ATOM      2  C5  LGS d           1.053   6.223  11.984  0.00  0.00     0.066 C 
ATOM      3  C6  LGS d           0.640   7.313  10.997  0.00  0.00     0.050 C 
ATOM      4  O6  LGS d           1.135   6.850   9.715  0.00  0.00    -0.319 OA
ATOM      5  C3  LGS d           1.907   5.408  14.130  0.00  0.00     0.091 C 
ATOM      6  C2  LGS d           3.041   4.575  13.510  0.00  0.00     0.104 C 
ATOM      7  C1  LGS d           2.927   4.454  11.970  0.00  0.00     0.133 C 
ATOM      8  N1  LGS d           2.084   5.455  11.272  0.00  0.00    -0.307 N 
ATOM      9  C7  LGS d           2.051   5.845   9.948  0.00  0.00     0.241 C 
ATOM     10  N2  LGS d           2.763   5.300   8.957  0.00  0.00    -0.251 NA
ATOM     11  H2  LGS d           2.593   7.230  13.151  0.00  0.00     0.090 H 
ATOM     12  H3  LGS d           0.178   5.592  12.202  0.00  0.00     0.080 H 
ATOM     13  H4  LGS d           1.100   8.276  11.266  0.00  0.00     0.078 H 
ATOM     14  H5  LGS d          -0.455   7.423  10.974  0.00  0.00     0.078 H 
ATOM     15  H6  LGS d           0.983   4.812  14.166  0.00  0.00     0.091 H 
ATOM     16  H8  LGS d           3.986   5.088  13.742  0.00  0.00     0.093 H 
ATOM     17  H10 LGS d           2.533   3.451  11.747  0.00  0.00     0.122 H 
ENDROOT
BRANCH  10  18
ATOM     18  C8  LGS d           2.619   5.513   7.511  0.00  0.00     0.019 C 
ATOM     19  H12 LGS d           1.839   6.268   7.335  0.00  0.00     0.067 H 
ATOM     20  H13 LGS d           2.325   4.565   7.035  0.00  0.00     0.067 H 
BRANCH  18  21
ATOM     21  C9  LGS d           3.927   5.994   6.896  0.00  0.00    -0.048 C 
ATOM     22  H14 LGS d           4.712   5.251   7.100  0.00  0.00     0.035 H 
ATOM     23  H15 LGS d           4.203   6.956   7.354  0.00  0.00     0.035 H 
BRANCH  21  24
ATOM     24  C10 LGS d           3.807   6.184   5.377  0.00  0.00    -0.064 C 
ATOM     25  H16 LGS d           2.967   6.866   5.173  0.00  0.00     0.033 H 
ATOM     26  H17 LGS d           3.605   5.206   4.915  0.00  0.00     0.033 H 
BRANCH  24  27
ATOM     27  C11 LGS d           5.088   6.775   4.741  0.00  0.00    -0.065 C 
ATOM     28  H18 LGS d           5.897   6.030   4.755  0.00  0.00     0.033 H 
ATOM     29  H19 LGS d           5.406   7.673   5.291  0.00  0.00     0.033 H 
BRANCH  27  30
ATOM     30  C12 LGS d           4.729   7.142   3.289  0.00  0.00    -0.065 C 
ATOM     31  H20 LGS d           3.821   7.763   3.299  0.00  0.00     0.033 H 
ATOM     32  H21 LGS d           4.533   6.214   2.732  0.00  0.00     0.033 H 
BRANCH  30  33
ATOM     33  C13 LGS d           5.848   7.921   2.567  0.00  0.00    -0.065 C 
ATOM     34  H22 LGS d           6.203   8.733   3.220  0.00  0.00     0.033 H 
ATOM     35  H23 LGS d           5.449   8.349   1.636  0.00  0.00     0.033 H 
BRANCH  33  36
ATOM     36  C14 LGS d           7.026   6.989   2.233  0.00  0.00    -0.069 C 
ATOM     37  H24 LGS d           6.635   6.040   1.836  0.00  0.00     0.032 H 
ATOM     38  H25 LGS d           7.603   6.793   3.149  0.00  0.00     0.032 H 
BRANCH  36  39
ATOM     39  C15 LGS d           7.946   7.627   1.188  0.00  0.00    -0.077 C 
ATOM     40  H26 LGS d           8.778   6.944   0.965  0.00  0.00     0.027 H 
ATOM     41  H27 LGS d           8.344   8.575   1.580  0.00  0.00     0.027 H 
ATOM     42  H28 LGS d           7.375   7.823   0.268  0.00  0.00     0.027 H 
ENDBRANCH  36  39
ENDBRANCH  33  36
ENDBRANCH  30  33
ENDBRANCH  27  30
ENDBRANCH  24  27
ENDBRANCH  21  24
ENDBRANCH  18  21
ENDBRANCH  10  18
BRANCH   7  43
ATOM     43  O1  LGS d           4.229   4.616  11.375  0.00  0.00    -0.374 OA
ATOM     44  H11 LGS d           4.173   4.448  10.442  0.00  0.00     0.212 HD
ENDBRANCH   7  43
BRANCH   1  45
ATOM     45  O4  LGS d           0.731   7.514  14.003  0.00  0.00    -0.391 OA
ATOM     46  H1  LGS d           1.110   7.794  14.827  0.00  0.00     0.210 HD
ENDBRANCH   1  45
BRANCH   6  47
ATOM     47  O2  LGS d           3.102   3.253  14.056  0.00  0.00    -0.389 OA
ATOM     48  H9  LGS d           3.814   2.775  13.647  0.00  0.00     0.210 HD
ENDBRANCH   6  47
BRANCH   5  49
ATOM     49  O3  LGS d           2.324   5.747  15.454  0.00  0.00    -0.390 OA
ATOM     50  H7  LGS d           1.644   6.257  15.878  0.00  0.00     0.210 HD
ENDBRANCH   5  49
TORSDOF 12
ENDMDL
