MODEL 1
REMARK VINA RESULT:      -7.9      0.000      0.000
REMARK  12 active torsions:
REMARK  status: ('A' for Active; 'I' for Inactive)
REMARK    1  A    between atoms: O4_1  and  C4_2 
REMARK    2  A    between atoms: C3_6  and  O3_7 
REMARK    3  A    between atoms: C2_8  and  O2_9 
REMARK    4  A    between atoms: C1_10  and  O1_11 
REMARK    5  A    between atoms: N2_14  and  C8_15 
REMARK    6  A    between atoms: C8_15  and  C9_16 
REMARK    7  A    between atoms: C9_16  and  C10_17 
REMARK    8  A    between atoms: C10_17  and  C11_18 
REMARK    9  A    between atoms: C11_18  and  C12_19 
REMARK   10  A    between atoms: C12_19  and  C13_20 
REMARK   11  A    between atoms: C13_20  and  C14_21 
REMARK   12  A    between atoms: C14_21  and  C15_22 
ROOT
ATOM      1  C4  LGS d           1.642   6.675  13.360  0.00  0.00     0.084 C 
ATOM      2  C5  LGS d           1.059   6.222  12.016  0.00  0.00     0.066 C 
ATOM      3  C6  LGS d           0.641   7.317  11.036  0.00  0.00     0.050 C 
ATOM      4  O6  LGS d           1.153   6.873   9.754  0.00  0.00    -0.319 OA
ATOM      5  C3  LGS d           1.905   5.394  14.161  0.00  0.00     0.091 C 
ATOM      6  C2  LGS d           3.054   4.582  13.541  0.00  0.00     0.104 C 
ATOM      7  C1  LGS d           2.954   4.476  12.000  0.00  0.00     0.133 C 
ATOM      8  N1  LGS d           2.106   5.473  11.305  0.00  0.00    -0.307 N 
ATOM      9  C7  LGS d           2.079   5.878   9.985  0.00  0.00     0.241 C 
ATOM     10  N2  LGS d           2.806   5.351   8.995  0.00  0.00    -0.251 NA
ATOM     11  H2  LGS d           2.577   7.235  13.207  0.00  0.00     0.090 H 
ATOM     12  H3  LGS d           0.190   5.578  12.219  0.00  0.00     0.080 H 
ATOM     13  H4  LGS d           1.087   8.282  11.320  0.00  0.00     0.078 H 
ATOM     14  H5  LGS d          -0.454   7.414  11.005  0.00  0.00     0.078 H 
ATOM     15  H6  LGS d           0.988   4.786  14.182  0.00  0.00     0.091 H 
ATOM     16  H8  LGS d           3.991   5.103  13.787  0.00  0.00     0.093 H 
ATOM     17  H10 LGS d           2.575   3.471  11.763  0.00  0.00     0.122 H 
ENDROOT
BRANCH  10  18
ATOM     18  C8  LGS d           2.671   5.577   7.549  0.00  0.00     0.019 C 
ATOM     19  H12 LGS d           3.189   6.511   7.283  0.00  0.00     0.067 H 
ATOM     20  H13 LGS d           1.604   5.663   7.296  0.00  0.00     0.067 H 
BRANCH  18  21
ATOM     21  C9  LGS d           3.280   4.427   6.756  0.00  0.00    -0.048 C 
ATOM     22  H14 LGS d           2.999   3.477   7.234  0.00  0.00     0.035 H 
ATOM     23  H15 LGS d           4.375   4.531   6.761  0.00  0.00     0.035 H 
BRANCH  21  24
ATOM     24  C10 LGS d           2.789   4.415   5.301  0.00  0.00    -0.064 C 
ATOM     25  H16 LGS d           1.828   3.880   5.259  0.00  0.00     0.033 H 
ATOM     26  H17 LGS d           3.530   3.886   4.684  0.00  0.00     0.033 H 
BRANCH  24  27
ATOM     27  C11 LGS d           2.588   5.836   4.722  0.00  0.00    -0.065 C 
ATOM     28  H18 LGS d           2.610   6.582   5.531  0.00  0.00     0.033 H 
ATOM     29  H19 LGS d           1.626   5.898   4.192  0.00  0.00     0.033 H 
BRANCH  27  30
ATOM     30  C12 LGS d           3.751   6.079   3.743  0.00  0.00    -0.065 C 
ATOM     31  H20 LGS d           3.359   6.603   2.858  0.00  0.00     0.033 H 
ATOM     32  H21 LGS d           4.164   5.105   3.440  0.00  0.00     0.033 H 
BRANCH  30  33
ATOM     33  C13 LGS d           4.888   6.927   4.352  0.00  0.00    -0.065 C 
ATOM     34  H22 LGS d           4.524   7.417   5.267  0.00  0.00     0.033 H 
ATOM     35  H23 LGS d           5.198   7.692   3.626  0.00  0.00     0.033 H 
BRANCH  33  36
ATOM     36  C14 LGS d           6.097   6.039   4.699  0.00  0.00    -0.069 C 
ATOM     37  H24 LGS d           5.975   5.646   5.719  0.00  0.00     0.032 H 
ATOM     38  H25 LGS d           7.015   6.643   4.645  0.00  0.00     0.032 H 
BRANCH  36  39
ATOM     39  C15 LGS d           6.209   4.867   3.719  0.00  0.00    -0.077 C 
ATOM     40  H26 LGS d           5.363   4.182   3.869  0.00  0.00     0.027 H 
ATOM     41  H27 LGS d           7.152   4.330   3.898  0.00  0.00     0.027 H 
ATOM     42  H28 LGS d           6.194   5.249   2.688  0.00  0.00     0.027 H 
ENDBRANCH  36  39
ENDBRANCH  33  36
ENDBRANCH  30  33
ENDBRANCH  27  30
ENDBRANCH  24  27
ENDBRANCH  21  24
ENDBRANCH  18  21
ENDBRANCH  10  18
BRANCH   7  43
ATOM     43  O1  LGS d           4.259   4.660  11.418  0.00  0.00    -0.374 OA
ATOM     44  H11 LGS d           4.331   4.133  10.631  0.00  0.00     0.212 HD
ENDBRANCH   7  43
BRANCH   1  45
ATOM     45  O4  LGS d           0.704   7.487  14.045  0.00  0.00    -0.391 OA
ATOM     46  H1  LGS d           0.044   7.792  13.433  0.00  0.00     0.210 HD
ENDBRANCH   1  45
BRANCH   6  47
ATOM     47  O2  LGS d           3.126   3.255  14.075  0.00  0.00    -0.389 OA
ATOM     48  H9  LGS d           4.036   3.023  14.220  0.00  0.00     0.210 HD
ENDBRANCH   6  47
BRANCH   5  49
ATOM     49  O3  LGS d           2.306   5.724  15.492  0.00  0.00    -0.390 OA
ATOM     50  H7  LGS d           3.126   6.203  15.465  0.00  0.00     0.210 HD
ENDBRANCH   5  49
TORSDOF 12
ENDMDL
MODEL 2
REMARK VINA RESULT:      -7.9      1.681      2.282
REMARK  12 active torsions:
REMARK  status: ('A' for Active; 'I' for Inactive)
REMARK    1  A    between atoms: O4_1  and  C4_2 
REMARK    2  A    between atoms: C3_6  and  O3_7 
REMARK    3  A    between atoms: C2_8  and  O2_9 
REMARK    4  A    between atoms: C1_10  and  O1_11 
REMARK    5  A    between atoms: N2_14  and  C8_15 
REMARK    6  A    between atoms: C8_15  and  C9_16 
REMARK    7  A    between atoms: C9_16  and  C10_17 
REMARK    8  A    between atoms: C10_17  and  C11_18 
REMARK    9  A    between atoms: C11_18  and  C12_19 
REMARK   10  A    between atoms: C12_19  and  C13_20 
REMARK   11  A    between atoms: C13_20  and  C14_21 
REMARK   12  A    between atoms: C14_21  and  C15_22 
ROOT
ATOM      1  C4  LGS d           1.631   6.688  13.389  0.00  0.00     0.084 C 
ATOM      2  C5  LGS d           1.042   6.268  12.038  0.00  0.00     0.066 C 
ATOM      3  C6  LGS d           0.634   7.388  11.081  0.00  0.00     0.050 C 
ATOM      4  O6  LGS d           1.138   6.965   9.789  0.00  0.00    -0.319 OA
ATOM      5  C3  LGS d           1.882   5.388  14.163  0.00  0.00     0.091 C 
ATOM      6  C2  LGS d           3.021   4.577  13.525  0.00  0.00     0.104 C 
ATOM      7  C1  LGS d           2.918   4.503  11.982  0.00  0.00     0.133 C 
ATOM      8  N1  LGS d           2.079   5.524  11.309  0.00  0.00    -0.307 N 
ATOM      9  C7  LGS d           2.055   5.955   9.998  0.00  0.00     0.241 C 
ATOM     10  N2  LGS d           2.774   5.441   8.996  0.00  0.00    -0.251 NA
ATOM     11  H2  LGS d           2.572   7.240  13.246  0.00  0.00     0.090 H 
ATOM     12  H3  LGS d           0.166   5.629  12.229  0.00  0.00     0.080 H 
ATOM     13  H4  LGS d           1.090   8.342  11.384  0.00  0.00     0.078 H 
ATOM     14  H5  LGS d          -0.461   7.497  11.054  0.00  0.00     0.078 H 
ATOM     15  H6  LGS d           0.959   4.789  14.174  0.00  0.00     0.091 H 
ATOM     16  H8  LGS d           3.964   5.083  13.780  0.00  0.00     0.093 H 
ATOM     17  H10 LGS d           2.528   3.507  11.726  0.00  0.00     0.122 H 
ENDROOT
BRANCH  10  18
ATOM     18  C8  LGS d           2.640   5.699   7.556  0.00  0.00     0.019 C 
ATOM     19  H12 LGS d           3.307   6.527   7.276  0.00  0.00     0.067 H 
ATOM     20  H13 LGS d           1.598   5.976   7.335  0.00  0.00     0.067 H 
BRANCH  18  21
ATOM     21  C9  LGS d           3.010   4.464   6.742  0.00  0.00    -0.048 C 
ATOM     22  H14 LGS d           3.385   4.784   5.759  0.00  0.00     0.035 H 
ATOM     23  H15 LGS d           2.112   3.843   6.609  0.00  0.00     0.035 H 
BRANCH  21  24
ATOM     24  C10 LGS d           4.093   3.627   7.438  0.00  0.00    -0.064 C 
ATOM     25  H16 LGS d           3.676   2.635   7.671  0.00  0.00     0.033 H 
ATOM     26  H17 LGS d           4.382   4.132   8.372  0.00  0.00     0.033 H 
BRANCH  24  27
ATOM     27  C11 LGS d           5.358   3.436   6.567  0.00  0.00    -0.065 C 
ATOM     28  H18 LGS d           5.346   4.140   5.721  0.00  0.00     0.033 H 
ATOM     29  H19 LGS d           5.406   2.405   6.186  0.00  0.00     0.033 H 
BRANCH  27  30
ATOM     30  C12 LGS d           6.566   3.722   7.479  0.00  0.00    -0.065 C 
ATOM     31  H20 LGS d           7.106   2.779   7.649  0.00  0.00     0.033 H 
ATOM     32  H21 LGS d           6.196   4.112   8.438  0.00  0.00     0.033 H 
BRANCH  30  33
ATOM     33  C13 LGS d           7.549   4.749   6.877  0.00  0.00    -0.065 C 
ATOM     34  H22 LGS d           7.016   5.371   6.142  0.00  0.00     0.033 H 
ATOM     35  H23 LGS d           8.370   4.214   6.377  0.00  0.00     0.033 H 
BRANCH  33  36
ATOM     36  C14 LGS d           8.129   5.652   7.980  0.00  0.00    -0.069 C 
ATOM     37  H24 LGS d           8.509   6.578   7.526  0.00  0.00     0.032 H 
ATOM     38  H25 LGS d           8.954   5.124   8.481  0.00  0.00     0.032 H 
BRANCH  36  39
ATOM     39  C15 LGS d           7.057   6.003   9.015  0.00  0.00    -0.077 C 
ATOM     40  H26 LGS d           7.460   6.739   9.725  0.00  0.00     0.027 H 
ATOM     41  H27 LGS d           6.759   5.094   9.558  0.00  0.00     0.027 H 
ATOM     42  H28 LGS d           6.180   6.429   8.504  0.00  0.00     0.027 H 
ENDBRANCH  36  39
ENDBRANCH  33  36
ENDBRANCH  30  33
ENDBRANCH  27  30
ENDBRANCH  24  27
ENDBRANCH  21  24
ENDBRANCH  18  21
ENDBRANCH  10  18
BRANCH   7  43
ATOM     43  O1  LGS d           4.224   4.686  11.402  0.00  0.00    -0.374 OA
ATOM     44  H11 LGS d           4.254   4.262  10.553  0.00  0.00     0.212 HD
ENDBRANCH   7  43
BRANCH   1  45
ATOM     45  O4  LGS d           0.703   7.495  14.093  0.00  0.00    -0.391 OA
ATOM     46  H1  LGS d           0.518   7.101  14.937  0.00  0.00     0.210 HD
ENDBRANCH   1  45
BRANCH   6  47
ATOM     47  O2  LGS d           3.080   3.238  14.031  0.00  0.00    -0.389 OA
ATOM     48  H9  LGS d           3.734   3.190  14.720  0.00  0.00     0.210 HD
ENDBRANCH   6  47
BRANCH   5  49
ATOM     49  O3  LGS d           2.289   5.686  15.500  0.00  0.00    -0.390 OA
ATOM     50  H7  LGS d           2.756   6.513  15.511  0.00  0.00     0.210 HD
ENDBRANCH   5  49
TORSDOF 12
ENDMDL
MODEL 3
REMARK VINA RESULT:      -6.8      1.463      2.133
REMARK  12 active torsions:
REMARK  status: ('A' for Active; 'I' for Inactive)
REMARK    1  A    between atoms: O4_1  and  C4_2 
REMARK    2  A    between atoms: C3_6  and  O3_7 
REMARK    3  A    between atoms: C2_8  and  O2_9 
REMARK    4  A    between atoms: C1_10  and  O1_11 
REMARK    5  A    between atoms: N2_14  and  C8_15 
REMARK    6  A    between atoms: C8_15  and  C9_16 
REMARK    7  A    between atoms: C9_16  and  C10_17 
REMARK    8  A    between atoms: C10_17  and  C11_18 
REMARK    9  A    between atoms: C11_18  and  C12_19 
REMARK   10  A    between atoms: C12_19  and  C13_20 
REMARK   11  A    between atoms: C13_20  and  C14_21 
REMARK   12  A    between atoms: C14_21  and  C15_22 
ROOT
ATOM      1  C4  LGS d           1.468   6.944  12.165  0.00  0.00     0.084 C 
ATOM      2  C5  LGS d           1.386   5.917  11.029  0.00  0.00     0.066 C 
ATOM      3  C6  LGS d           1.167   6.459   9.618  0.00  0.00     0.050 C 
ATOM      4  O6  LGS d           2.098   5.713   8.793  0.00  0.00    -0.319 OA
ATOM      5  C3  LGS d           1.617   6.134  13.458  0.00  0.00     0.091 C 
ATOM      6  C2  LGS d           2.988   5.441  13.520  0.00  0.00     0.104 C 
ATOM      7  C1  LGS d           3.383   4.767  12.183  0.00  0.00     0.133 C 
ATOM      8  N1  LGS d           2.681   5.224  10.959  0.00  0.00    -0.307 N 
ATOM      9  C7  LGS d           3.017   5.109   9.625  0.00  0.00     0.241 C 
ATOM     10  N2  LGS d           4.071   4.443   9.143  0.00  0.00    -0.251 NA
ATOM     11  H2  LGS d           2.332   7.610  12.023  0.00  0.00     0.090 H 
ATOM     12  H3  LGS d           0.578   5.208  11.266  0.00  0.00     0.080 H 
ATOM     13  H4  LGS d           1.388   7.536   9.577  0.00  0.00     0.078 H 
ATOM     14  H5  LGS d           0.131   6.284   9.290  0.00  0.00     0.078 H 
ATOM     15  H6  LGS d           0.816   5.382  13.508  0.00  0.00     0.091 H 
ATOM     16  H8  LGS d           3.735   6.216  13.745  0.00  0.00     0.093 H 
ATOM     17  H10 LGS d           3.215   3.686  12.297  0.00  0.00     0.122 H 
ENDROOT
BRANCH  10  18
ATOM     18  C8  LGS d           4.365   4.097   7.746  0.00  0.00     0.019 C 
ATOM     19  H12 LGS d           4.045   4.925   7.096  0.00  0.00     0.067 H 
ATOM     20  H13 LGS d           3.812   3.184   7.477  0.00  0.00     0.067 H 
BRANCH  18  21
ATOM     21  C9  LGS d           5.856   3.854   7.545  0.00  0.00    -0.048 C 
ATOM     22  H14 LGS d           6.110   2.857   7.933  0.00  0.00     0.035 H 
ATOM     23  H15 LGS d           6.419   4.619   8.099  0.00  0.00     0.035 H 
BRANCH  21  24
ATOM     24  C10 LGS d           6.250   3.925   6.062  0.00  0.00    -0.064 C 
ATOM     25  H16 LGS d           7.290   3.581   5.958  0.00  0.00     0.033 H 
ATOM     26  H17 LGS d           6.174   4.970   5.728  0.00  0.00     0.033 H 
BRANCH  24  27
ATOM     27  C11 LGS d           5.348   3.051   5.158  0.00  0.00    -0.065 C 
ATOM     28  H18 LGS d           4.550   2.584   5.754  0.00  0.00     0.033 H 
ATOM     29  H19 LGS d           5.946   2.267   4.668  0.00  0.00     0.033 H 
BRANCH  27  30
ATOM     30  C12 LGS d           4.741   3.992   4.101  0.00  0.00    -0.065 C 
ATOM     31  H20 LGS d           4.958   3.585   3.103  0.00  0.00     0.033 H 
ATOM     32  H21 LGS d           5.209   4.982   4.204  0.00  0.00     0.033 H 
BRANCH  30  33
ATOM     33  C13 LGS d           3.212   4.154   4.243  0.00  0.00    -0.065 C 
ATOM     34  H22 LGS d           2.851   3.495   5.047  0.00  0.00     0.033 H 
ATOM     35  H23 LGS d           2.729   3.874   3.296  0.00  0.00     0.033 H 
BRANCH  33  36
ATOM     36  C14 LGS d           2.853   5.612   4.583  0.00  0.00    -0.069 C 
ATOM     37  H24 LGS d           2.433   5.653   5.599  0.00  0.00     0.032 H 
ATOM     38  H25 LGS d           2.107   5.977   3.862  0.00  0.00     0.032 H 
BRANCH  36  39
ATOM     39  C15 LGS d           4.094   6.507   4.517  0.00  0.00    -0.077 C 
ATOM     40  H26 LGS d           3.857   7.420   3.953  0.00  0.00     0.027 H 
ATOM     41  H27 LGS d           4.909   5.966   4.015  0.00  0.00     0.027 H 
ATOM     42  H28 LGS d           4.406   6.776   5.537  0.00  0.00     0.027 H 
ENDBRANCH  36  39
ENDBRANCH  33  36
ENDBRANCH  30  33
ENDBRANCH  27  30
ENDBRANCH  24  27
ENDBRANCH  21  24
ENDBRANCH  18  21
ENDBRANCH  10  18
BRANCH   7  43
ATOM     43  O1  LGS d           4.773   5.024  11.905  0.00  0.00    -0.374 OA
ATOM     44  H11 LGS d           4.966   4.781  11.008  0.00  0.00     0.212 HD
ENDBRANCH   7  43
BRANCH   1  45
ATOM     45  O4  LGS d           0.275   7.709  12.211  0.00  0.00    -0.391 OA
ATOM     46  H1  LGS d           0.110   8.088  11.356  0.00  0.00     0.210 HD
ENDBRANCH   1  45
BRANCH   6  47
ATOM     47  O2  LGS d           3.046   4.450  14.551  0.00  0.00    -0.389 OA
ATOM     48  H9  LGS d           2.874   3.594  14.176  0.00  0.00     0.210 HD
ENDBRANCH   6  47
BRANCH   5  49
ATOM     49  O3  LGS d           1.546   7.004  14.590  0.00  0.00    -0.390 OA
ATOM     50  H7  LGS d           1.071   7.792  14.353  0.00  0.00     0.210 HD
ENDBRANCH   5  49
TORSDOF 12
ENDMDL
MODEL 4
REMARK VINA RESULT:      -6.6      4.052      8.294
REMARK  12 active torsions:
REMARK  status: ('A' for Active; 'I' for Inactive)
REMARK    1  A    between atoms: O4_1  and  C4_2 
REMARK    2  A    between atoms: C3_6  and  O3_7 
REMARK    3  A    between atoms: C2_8  and  O2_9 
REMARK    4  A    between atoms: C1_10  and  O1_11 
REMARK    5  A    between atoms: N2_14  and  C8_15 
REMARK    6  A    between atoms: C8_15  and  C9_16 
REMARK    7  A    between atoms: C9_16  and  C10_17 
REMARK    8  A    between atoms: C10_17  and  C11_18 
REMARK    9  A    between atoms: C11_18  and  C12_19 
REMARK   10  A    between atoms: C12_19  and  C13_20 
REMARK   11  A    between atoms: C13_20  and  C14_21 
REMARK   12  A    between atoms: C14_21  and  C15_22 
ROOT
ATOM      1  C4  LGS d           5.455   3.654   3.714  0.00  0.00     0.084 C 
ATOM      2  C5  LGS d           6.230   3.439   5.019  0.00  0.00     0.066 C 
ATOM      3  C6  LGS d           7.667   3.957   5.066  0.00  0.00     0.050 C 
ATOM      4  O6  LGS d           7.776   4.612   6.356  0.00  0.00    -0.319 OA
ATOM      5  C3  LGS d           4.090   2.987   3.917  0.00  0.00     0.091 C 
ATOM      6  C2  LGS d           3.249   3.755   4.949  0.00  0.00     0.104 C 
ATOM      7  C1  LGS d           4.059   4.163   6.203  0.00  0.00     0.133 C 
ATOM      8  N1  LGS d           5.536   4.186   6.079  0.00  0.00    -0.307 N 
ATOM      9  C7  LGS d           6.500   4.816   6.841  0.00  0.00     0.241 C 
ATOM     10  N2  LGS d           6.278   5.505   7.964  0.00  0.00    -0.251 NA
ATOM     11  H2  LGS d           5.334   4.728   3.508  0.00  0.00     0.090 H 
ATOM     12  H3  LGS d           6.234   2.361   5.242  0.00  0.00     0.080 H 
ATOM     13  H4  LGS d           7.849   4.672   4.250  0.00  0.00     0.078 H 
ATOM     14  H5  LGS d           8.383   3.124   4.992  0.00  0.00     0.078 H 
ATOM     15  H6  LGS d           4.241   1.951   4.255  0.00  0.00     0.091 H 
ATOM     16  H8  LGS d           2.891   4.673   4.460  0.00  0.00     0.093 H 
ATOM     17  H10 LGS d           3.789   3.467   7.011  0.00  0.00     0.122 H 
ENDROOT
BRANCH  10  18
ATOM     18  C8  LGS d           7.262   6.008   8.931  0.00  0.00     0.019 C 
ATOM     19  H12 LGS d           7.768   6.886   8.505  0.00  0.00     0.067 H 
ATOM     20  H13 LGS d           8.002   5.219   9.134  0.00  0.00     0.067 H 
BRANCH  18  21
ATOM     21  C9  LGS d           6.588   6.407  10.239  0.00  0.00    -0.048 C 
ATOM     22  H14 LGS d           7.000   7.371  10.572  0.00  0.00     0.035 H 
ATOM     23  H15 LGS d           6.798   5.637  10.996  0.00  0.00     0.035 H 
BRANCH  21  24
ATOM     24  C10 LGS d           5.067   6.545  10.078  0.00  0.00    -0.064 C 
ATOM     25  H16 LGS d           4.650   5.559   9.826  0.00  0.00     0.033 H 
ATOM     26  H17 LGS d           4.864   7.250   9.258  0.00  0.00     0.033 H 
BRANCH  24  27
ATOM     27  C11 LGS d           4.371   7.063  11.359  0.00  0.00    -0.065 C 
ATOM     28  H18 LGS d           4.109   8.126  11.246  0.00  0.00     0.033 H 
ATOM     29  H19 LGS d           5.035   6.941  12.228  0.00  0.00     0.033 H 
BRANCH  27  30
ATOM     30  C12 LGS d           3.098   6.217  11.540  0.00  0.00    -0.065 C 
ATOM     31  H20 LGS d           2.477   6.681  12.321  0.00  0.00     0.033 H 
ATOM     32  H21 LGS d           3.392   5.206  11.858  0.00  0.00     0.033 H 
BRANCH  30  33
ATOM     33  C13 LGS d           2.260   6.102  10.249  0.00  0.00    -0.065 C 
ATOM     34  H22 LGS d           1.879   5.074  10.155  0.00  0.00     0.033 H 
ATOM     35  H23 LGS d           2.895   6.338   9.383  0.00  0.00     0.033 H 
BRANCH  33  36
ATOM     36  C14 LGS d           1.072   7.081  10.288  0.00  0.00    -0.069 C 
ATOM     37  H24 LGS d           0.357   6.813   9.496  0.00  0.00     0.032 H 
ATOM     38  H25 LGS d           1.442   8.103  10.117  0.00  0.00     0.032 H 
BRANCH  36  39
ATOM     39  C15 LGS d           0.363   7.023  11.644  0.00  0.00    -0.077 C 
ATOM     40  H26 LGS d          -0.330   7.871  11.731  0.00  0.00     0.027 H 
ATOM     41  H27 LGS d           1.110   7.074  12.450  0.00  0.00     0.027 H 
ATOM     42  H28 LGS d          -0.198   6.080  11.724  0.00  0.00     0.027 H 
ENDBRANCH  36  39
ENDBRANCH  33  36
ENDBRANCH  30  33
ENDBRANCH  27  30
ENDBRANCH  24  27
ENDBRANCH  21  24
ENDBRANCH  18  21
ENDBRANCH  10  18
BRANCH   7  43
ATOM     43  O1  LGS d           3.719   5.512   6.580  0.00  0.00    -0.374 OA
ATOM     44  H11 LGS d           3.124   5.492   7.320  0.00  0.00     0.212 HD
ENDBRANCH   7  43
BRANCH   1  45
ATOM     45  O4  LGS d           6.139   3.034   2.638  0.00  0.00    -0.391 OA
ATOM     46  H1  LGS d           6.885   2.551   2.974  0.00  0.00     0.210 HD
ENDBRANCH   1  45
BRANCH   6  47
ATOM     47  O2  LGS d           2.108   3.005   5.381  0.00  0.00    -0.389 OA
ATOM     48  H9  LGS d           1.949   3.175   6.303  0.00  0.00     0.210 HD
ENDBRANCH   6  47
BRANCH   5  49
ATOM     49  O3  LGS d           3.352   3.001   2.693  0.00  0.00    -0.390 OA
ATOM     50  H7  LGS d           3.168   3.900   2.446  0.00  0.00     0.210 HD
ENDBRANCH   5  49
TORSDOF 12
ENDMDL
MODEL 5
REMARK VINA RESULT:      -6.6      3.660      8.324
REMARK  12 active torsions:
REMARK  status: ('A' for Active; 'I' for Inactive)
REMARK    1  A    between atoms: O4_1  and  C4_2 
REMARK    2  A    between atoms: C3_6  and  O3_7 
REMARK    3  A    between atoms: C2_8  and  O2_9 
REMARK    4  A    between atoms: C1_10  and  O1_11 
REMARK    5  A    between atoms: N2_14  and  C8_15 
REMARK    6  A    between atoms: C8_15  and  C9_16 
REMARK    7  A    between atoms: C9_16  and  C10_17 
REMARK    8  A    between atoms: C10_17  and  C11_18 
REMARK    9  A    between atoms: C11_18  and  C12_19 
REMARK   10  A    between atoms: C12_19  and  C13_20 
REMARK   11  A    between atoms: C13_20  and  C14_21 
REMARK   12  A    between atoms: C14_21  and  C15_22 
ROOT
ATOM      1  C4  LGS d           4.445   3.811   4.184  0.00  0.00     0.084 C 
ATOM      2  C5  LGS d           4.149   5.055   5.031  0.00  0.00     0.066 C 
ATOM      3  C6  LGS d           2.778   5.129   5.700  0.00  0.00     0.050 C 
ATOM      4  O6  LGS d           3.055   5.585   7.048  0.00  0.00    -0.319 OA
ATOM      5  C3  LGS d           5.839   4.029   3.584  0.00  0.00     0.091 C 
ATOM      6  C2  LGS d           6.923   3.972   4.673  0.00  0.00     0.104 C 
ATOM      7  C1  LGS d           6.540   4.766   5.946  0.00  0.00     0.133 C 
ATOM      8  N1  LGS d           5.104   5.072   6.149  0.00  0.00    -0.307 N 
ATOM      9  C7  LGS d           4.404   5.423   7.286  0.00  0.00     0.241 C 
ATOM     10  N2  LGS d           4.938   5.653   8.489  0.00  0.00    -0.251 NA
ATOM     11  H2  LGS d           4.430   2.905   4.809  0.00  0.00     0.090 H 
ATOM     12  H3  LGS d           4.281   5.942   4.393  0.00  0.00     0.080 H 
ATOM     13  H4  LGS d           2.299   4.139   5.715  0.00  0.00     0.078 H 
ATOM     14  H5  LGS d           2.127   5.844   5.174  0.00  0.00     0.078 H 
ATOM     15  H6  LGS d           5.867   5.006   3.081  0.00  0.00     0.091 H 
ATOM     16  H8  LGS d           7.048   2.916   4.954  0.00  0.00     0.093 H 
ATOM     17  H10 LGS d           7.099   5.713   5.924  0.00  0.00     0.122 H 
ENDROOT
BRANCH  10  18
ATOM     18  C8  LGS d           4.293   6.235   9.673  0.00  0.00     0.019 C 
ATOM     19  H12 LGS d           3.463   6.880   9.349  0.00  0.00     0.067 H 
ATOM     20  H13 LGS d           5.031   6.836  10.225  0.00  0.00     0.067 H 
BRANCH  18  21
ATOM     21  C9  LGS d           3.749   5.147  10.591  0.00  0.00    -0.048 C 
ATOM     22  H14 LGS d           4.210   5.257  11.584  0.00  0.00     0.035 H 
ATOM     23  H15 LGS d           4.010   4.164  10.172  0.00  0.00     0.035 H 
BRANCH  21  24
ATOM     24  C10 LGS d           2.223   5.235  10.739  0.00  0.00    -0.064 C 
ATOM     25  H16 LGS d           1.909   4.559  11.548  0.00  0.00     0.033 H 
ATOM     26  H17 LGS d           1.760   4.916   9.793  0.00  0.00     0.033 H 
BRANCH  24  27
ATOM     27  C11 LGS d           1.733   6.665  11.070  0.00  0.00    -0.065 C 
ATOM     28  H18 LGS d           1.184   7.086  10.215  0.00  0.00     0.033 H 
ATOM     29  H19 LGS d           2.588   7.314  11.312  0.00  0.00     0.033 H 
BRANCH  27  30
ATOM     30  C12 LGS d           0.801   6.538  12.289  0.00  0.00    -0.065 C 
ATOM     31  H20 LGS d           0.315   5.551  12.257  0.00  0.00     0.033 H 
ATOM     32  H21 LGS d           0.037   7.326  12.230  0.00  0.00     0.033 H 
BRANCH  30  33
ATOM     33  C13 LGS d           1.544   6.675  13.635  0.00  0.00    -0.065 C 
ATOM     34  H22 LGS d           1.006   7.391  14.275  0.00  0.00     0.033 H 
ATOM     35  H23 LGS d           2.563   7.044  13.450  0.00  0.00     0.033 H 
BRANCH  33  36
ATOM     36  C14 LGS d           1.621   5.314  14.351  0.00  0.00    -0.069 C 
ATOM     37  H24 LGS d           0.899   4.623  13.891  0.00  0.00     0.032 H 
ATOM     38  H25 LGS d           1.372   5.451  15.414  0.00  0.00     0.032 H 
BRANCH  36  39
ATOM     39  C15 LGS d           3.027   4.719  14.238  0.00  0.00    -0.077 C 
ATOM     40  H26 LGS d           3.605   4.968  15.139  0.00  0.00     0.027 H 
ATOM     41  H27 LGS d           3.531   5.135  13.353  0.00  0.00     0.027 H 
ATOM     42  H28 LGS d           2.956   3.625  14.139  0.00  0.00     0.027 H 
ENDBRANCH  36  39
ENDBRANCH  33  36
ENDBRANCH  30  33
ENDBRANCH  27  30
ENDBRANCH  24  27
ENDBRANCH  21  24
ENDBRANCH  18  21
ENDBRANCH  10  18
BRANCH   7  43
ATOM     43  O1  LGS d           6.905   4.007   7.115  0.00  0.00    -0.374 OA
ATOM     44  H11 LGS d           7.040   3.099   6.873  0.00  0.00     0.212 HD
ENDBRANCH   7  43
BRANCH   1  45
ATOM     45  O4  LGS d           3.487   3.694   3.146  0.00  0.00    -0.391 OA
ATOM     46  H1  LGS d           3.576   2.844   2.729  0.00  0.00     0.210 HD
ENDBRANCH   1  45
BRANCH   6  47
ATOM     47  O2  LGS d           8.184   4.463   4.205  0.00  0.00    -0.389 OA
ATOM     48  H9  LGS d           8.863   3.827   4.402  0.00  0.00     0.210 HD
ENDBRANCH   6  47
BRANCH   5  49
ATOM     49  O3  LGS d           6.138   2.987   2.653  0.00  0.00    -0.390 OA
ATOM     50  H7  LGS d           5.981   3.300   1.769  0.00  0.00     0.210 HD
ENDBRANCH   5  49
TORSDOF 12
ENDMDL
MODEL 6
REMARK VINA RESULT:      -6.5      1.824      3.224
REMARK  12 active torsions:
REMARK  status: ('A' for Active; 'I' for Inactive)
REMARK    1  A    between atoms: O4_1  and  C4_2 
REMARK    2  A    between atoms: C3_6  and  O3_7 
REMARK    3  A    between atoms: C2_8  and  O2_9 
REMARK    4  A    between atoms: C1_10  and  O1_11 
REMARK    5  A    between atoms: N2_14  and  C8_15 
REMARK    6  A    between atoms: C8_15  and  C9_16 
REMARK    7  A    between atoms: C9_16  and  C10_17 
REMARK    8  A    between atoms: C10_17  and  C11_18 
REMARK    9  A    between atoms: C11_18  and  C12_19 
REMARK   10  A    between atoms: C12_19  and  C13_20 
REMARK   11  A    between atoms: C13_20  and  C14_21 
REMARK   12  A    between atoms: C14_21  and  C15_22 
ROOT
ATOM      1  C4  LGS d           3.009   4.914  12.379  0.00  0.00     0.084 C 
ATOM      2  C5  LGS d           4.001   5.753  11.565  0.00  0.00     0.066 C 
ATOM      3  C6  LGS d           5.205   5.023  10.973  0.00  0.00     0.050 C 
ATOM      4  O6  LGS d           5.306   5.526   9.617  0.00  0.00    -0.319 OA
ATOM      5  C3  LGS d           1.954   5.896  12.903  0.00  0.00     0.091 C 
ATOM      6  C2  LGS d           1.088   6.440  11.756  0.00  0.00     0.104 C 
ATOM      7  C1  LGS d           1.918   6.849  10.515  0.00  0.00     0.133 C 
ATOM      8  N1  LGS d           3.284   6.283  10.396  0.00  0.00    -0.307 N 
ATOM      9  C7  LGS d           4.118   6.152   9.304  0.00  0.00     0.241 C 
ATOM     10  N2  LGS d           3.871   6.617   8.076  0.00  0.00    -0.251 NA
ATOM     11  H2  LGS d           2.540   4.146  11.745  0.00  0.00     0.090 H 
ATOM     12  H3  LGS d           4.362   6.572  12.205  0.00  0.00     0.080 H 
ATOM     13  H4  LGS d           5.038   3.935  10.973  0.00  0.00     0.078 H 
ATOM     14  H5  LGS d           6.118   5.254  11.542  0.00  0.00     0.078 H 
ATOM     15  H6  LGS d           2.459   6.728  13.416  0.00  0.00     0.091 H 
ATOM     16  H8  LGS d           0.401   5.634  11.456  0.00  0.00     0.093 H 
ATOM     17  H10 LGS d           1.995   7.947  10.518  0.00  0.00     0.122 H 
ENDROOT
BRANCH  10  18
ATOM     18  C8  LGS d           4.793   6.707   6.936  0.00  0.00     0.019 C 
ATOM     19  H12 LGS d           5.639   6.023   7.103  0.00  0.00     0.067 H 
ATOM     20  H13 LGS d           5.166   7.739   6.855  0.00  0.00     0.067 H 
BRANCH  18  21
ATOM     21  C9  LGS d           4.095   6.325   5.636  0.00  0.00    -0.048 C 
ATOM     22  H14 LGS d           4.829   5.863   4.960  0.00  0.00     0.035 H 
ATOM     23  H15 LGS d           3.689   7.235   5.170  0.00  0.00     0.035 H 
BRANCH  21  24
ATOM     24  C10 LGS d           2.946   5.335   5.875  0.00  0.00    -0.064 C 
ATOM     25  H16 LGS d           1.991   5.865   5.741  0.00  0.00     0.033 H 
ATOM     26  H17 LGS d           3.016   4.959   6.907  0.00  0.00     0.033 H 
BRANCH  24  27
ATOM     27  C11 LGS d           2.981   4.128   4.907  0.00  0.00    -0.065 C 
ATOM     28  H18 LGS d           3.290   4.455   3.903  0.00  0.00     0.033 H 
ATOM     29  H19 LGS d           1.988   3.658   4.850  0.00  0.00     0.033 H 
BRANCH  27  30
ATOM     30  C12 LGS d           4.006   3.134   5.481  0.00  0.00    -0.065 C 
ATOM     31  H20 LGS d           3.526   2.148   5.571  0.00  0.00     0.033 H 
ATOM     32  H21 LGS d           4.315   3.484   6.477  0.00  0.00     0.033 H 
BRANCH  30  33
ATOM     33  C13 LGS d           5.266   2.987   4.600  0.00  0.00    -0.065 C 
ATOM     34  H22 LGS d           5.268   3.781   3.838  0.00  0.00     0.033 H 
ATOM     35  H23 LGS d           5.249   2.005   4.106  0.00  0.00     0.033 H 
BRANCH  33  36
ATOM     36  C14 LGS d           6.540   3.102   5.456  0.00  0.00    -0.069 C 
ATOM     37  H24 LGS d           7.159   3.926   5.073  0.00  0.00     0.032 H 
ATOM     38  H25 LGS d           7.103   2.159   5.393  0.00  0.00     0.032 H 
BRANCH  36  39
ATOM     39  C15 LGS d           6.188   3.378   6.921  0.00  0.00    -0.077 C 
ATOM     40  H26 LGS d           6.187   4.463   7.099  0.00  0.00     0.027 H 
ATOM     41  H27 LGS d           6.932   2.900   7.573  0.00  0.00     0.027 H 
ATOM     42  H28 LGS d           5.190   2.969   7.141  0.00  0.00     0.027 H 
ENDBRANCH  36  39
ENDBRANCH  33  36
ENDBRANCH  30  33
ENDBRANCH  27  30
ENDBRANCH  24  27
ENDBRANCH  21  24
ENDBRANCH  18  21
ENDBRANCH  10  18
BRANCH   7  43
ATOM     43  O1  LGS d           1.250   6.405   9.319  0.00  0.00    -0.374 OA
ATOM     44  H11 LGS d           0.837   5.565   9.481  0.00  0.00     0.212 HD
ENDBRANCH   7  43
BRANCH   1  45
ATOM     45  O4  LGS d           3.675   4.297  13.467  0.00  0.00    -0.391 OA
ATOM     46  H1  LGS d           3.064   3.744  13.939  0.00  0.00     0.210 HD
ENDBRANCH   1  45
BRANCH   6  47
ATOM     47  O2  LGS d           0.305   7.569  12.160  0.00  0.00    -0.389 OA
ATOM     48  H9  LGS d          -0.609   7.409  11.951  0.00  0.00     0.210 HD
ENDBRANCH   6  47
BRANCH   5  49
ATOM     49  O3  LGS d           1.070   5.227  13.805  0.00  0.00    -0.390 OA
ATOM     50  H7  LGS d           0.180   5.284  13.474  0.00  0.00     0.210 HD
ENDBRANCH   5  49
TORSDOF 12
ENDMDL
MODEL 7
REMARK VINA RESULT:      -6.1      2.728      3.800
REMARK  12 active torsions:
REMARK  status: ('A' for Active; 'I' for Inactive)
REMARK    1  A    between atoms: O4_1  and  C4_2 
REMARK    2  A    between atoms: C3_6  and  O3_7 
REMARK    3  A    between atoms: C2_8  and  O2_9 
REMARK    4  A    between atoms: C1_10  and  O1_11 
REMARK    5  A    between atoms: N2_14  and  C8_15 
REMARK    6  A    between atoms: C8_15  and  C9_16 
REMARK    7  A    between atoms: C9_16  and  C10_17 
REMARK    8  A    between atoms: C10_17  and  C11_18 
REMARK    9  A    between atoms: C11_18  and  C12_19 
REMARK   10  A    between atoms: C12_19  and  C13_20 
REMARK   11  A    between atoms: C13_20  and  C14_21 
REMARK   12  A    between atoms: C14_21  and  C15_22 
ROOT
ATOM      1  C4  LGS d           4.164   7.058  11.082  0.00  0.00     0.084 C 
ATOM      2  C5  LGS d           4.326   5.655  10.485  0.00  0.00     0.066 C 
ATOM      3  C6  LGS d           3.082   4.770  10.446  0.00  0.00     0.050 C 
ATOM      4  O6  LGS d           3.099   4.176   9.123  0.00  0.00    -0.319 OA
ATOM      5  C3  LGS d           5.561   7.691  11.061  0.00  0.00     0.091 C 
ATOM      6  C2  LGS d           6.014   7.979   9.621  0.00  0.00     0.104 C 
ATOM      7  C1  LGS d           5.726   6.805   8.652  0.00  0.00     0.133 C 
ATOM      8  N1  LGS d           4.709   5.812   9.074  0.00  0.00    -0.307 N 
ATOM      9  C7  LGS d           3.981   4.894   8.343  0.00  0.00     0.241 C 
ATOM     10  N2  LGS d           4.124   4.650   7.037  0.00  0.00    -0.251 NA
ATOM     11  H2  LGS d           3.460   7.655  10.484  0.00  0.00     0.090 H 
ATOM     12  H3  LGS d           5.115   5.133  11.047  0.00  0.00     0.080 H 
ATOM     13  H4  LGS d           2.172   5.372  10.590  0.00  0.00     0.078 H 
ATOM     14  H5  LGS d           3.134   3.992  11.222  0.00  0.00     0.078 H 
ATOM     15  H6  LGS d           6.274   7.009  11.547  0.00  0.00     0.091 H 
ATOM     16  H8  LGS d           5.450   8.856   9.270  0.00  0.00     0.093 H 
ATOM     17  H10 LGS d           6.676   6.279   8.481  0.00  0.00     0.122 H 
ENDROOT
BRANCH  10  18
ATOM     18  C8  LGS d           3.547   3.552   6.250  0.00  0.00     0.019 C 
ATOM     19  H12 LGS d           2.799   3.026   6.861  0.00  0.00     0.067 H 
ATOM     20  H13 LGS d           4.349   2.852   5.969  0.00  0.00     0.067 H 
BRANCH  18  21
ATOM     21  C9  LGS d           2.878   4.077   4.986  0.00  0.00    -0.048 C 
ATOM     22  H14 LGS d           1.851   3.686   4.937  0.00  0.00     0.035 H 
ATOM     23  H15 LGS d           3.446   3.728   4.111  0.00  0.00     0.035 H 
BRANCH  21  24
ATOM     24  C10 LGS d           2.826   5.612   4.964  0.00  0.00    -0.064 C 
ATOM     25  H16 LGS d           3.416   5.995   5.810  0.00  0.00     0.033 H 
ATOM     26  H17 LGS d           1.779   5.930   5.074  0.00  0.00     0.033 H 
BRANCH  24  27
ATOM     27  C11 LGS d           3.391   6.215   3.656  0.00  0.00    -0.065 C 
ATOM     28  H18 LGS d           2.676   6.934   3.230  0.00  0.00     0.033 H 
ATOM     29  H19 LGS d           3.588   5.417   2.924  0.00  0.00     0.033 H 
BRANCH  27  30
ATOM     30  C12 LGS d           4.703   6.928   4.031  0.00  0.00    -0.065 C 
ATOM     31  H20 LGS d           4.817   6.899   5.124  0.00  0.00     0.033 H 
ATOM     32  H21 LGS d           4.641   7.974   3.696  0.00  0.00     0.033 H 
BRANCH  30  33
ATOM     33  C13 LGS d           5.948   6.280   3.389  0.00  0.00    -0.065 C 
ATOM     34  H22 LGS d           6.729   7.044   3.262  0.00  0.00     0.033 H 
ATOM     35  H23 LGS d           5.676   5.867   2.407  0.00  0.00     0.033 H 
BRANCH  33  36
ATOM     36  C14 LGS d           6.488   5.147   4.282  0.00  0.00    -0.069 C 
ATOM     37  H24 LGS d           5.949   5.155   5.240  0.00  0.00     0.032 H 
ATOM     38  H25 LGS d           7.560   5.311   4.463  0.00  0.00     0.032 H 
BRANCH  36  39
ATOM     39  C15 LGS d           6.295   3.786   3.609  0.00  0.00    -0.077 C 
ATOM     40  H26 LGS d           5.792   3.100   4.306  0.00  0.00     0.027 H 
ATOM     41  H27 LGS d           7.275   3.372   3.330  0.00  0.00     0.027 H 
ATOM     42  H28 LGS d           5.678   3.907   2.705  0.00  0.00     0.027 H 
ENDBRANCH  36  39
ENDBRANCH  33  36
ENDBRANCH  30  33
ENDBRANCH  27  30
ENDBRANCH  24  27
ENDBRANCH  21  24
ENDBRANCH  18  21
ENDBRANCH  10  18
BRANCH   7  43
ATOM     43  O1  LGS d           5.216   7.321   7.407  0.00  0.00    -0.374 OA
ATOM     44  H11 LGS d           4.347   7.678   7.546  0.00  0.00     0.212 HD
ENDBRANCH   7  43
BRANCH   1  45
ATOM     45  O4  LGS d           3.699   6.964  12.418  0.00  0.00    -0.391 OA
ATOM     46  H1  LGS d           2.763   6.801  12.415  0.00  0.00     0.210 HD
ENDBRANCH   1  45
BRANCH   6  47
ATOM     47  O2  LGS d           7.411   8.284   9.545  0.00  0.00    -0.389 OA
ATOM     48  H9  LGS d           7.521   9.208   9.351  0.00  0.00     0.210 HD
ENDBRANCH   6  47
BRANCH   5  49
ATOM     49  O3  LGS d           5.539   8.947  11.743  0.00  0.00    -0.390 OA
ATOM     50  H7  LGS d           5.690   8.805  12.670  0.00  0.00     0.210 HD
ENDBRANCH   5  49
TORSDOF 12
ENDMDL
MODEL 8
REMARK VINA RESULT:      -6.1      4.160      8.428
REMARK  12 active torsions:
REMARK  status: ('A' for Active; 'I' for Inactive)
REMARK    1  A    between atoms: O4_1  and  C4_2 
REMARK    2  A    between atoms: C3_6  and  O3_7 
REMARK    3  A    between atoms: C2_8  and  O2_9 
REMARK    4  A    between atoms: C1_10  and  O1_11 
REMARK    5  A    between atoms: N2_14  and  C8_15 
REMARK    6  A    between atoms: C8_15  and  C9_16 
REMARK    7  A    between atoms: C9_16  and  C10_17 
REMARK    8  A    between atoms: C10_17  and  C11_18 
REMARK    9  A    between atoms: C11_18  and  C12_19 
REMARK   10  A    between atoms: C12_19  and  C13_20 
REMARK   11  A    between atoms: C13_20  and  C14_21 
REMARK   12  A    between atoms: C14_21  and  C15_22 
ROOT
ATOM      1  C4  LGS d           7.186   4.126   4.783  0.00  0.00     0.084 C 
ATOM      2  C5  LGS d           6.733   4.403   6.221  0.00  0.00     0.066 C 
ATOM      3  C6  LGS d           7.805   4.851   7.212  0.00  0.00     0.050 C 
ATOM      4  O6  LGS d           7.194   5.947   7.939  0.00  0.00    -0.319 OA
ATOM      5  C3  LGS d           5.942   3.633   4.034  0.00  0.00     0.091 C 
ATOM      6  C2  LGS d           4.917   4.766   3.861  0.00  0.00     0.104 C 
ATOM      7  C1  LGS d           4.716   5.598   5.152  0.00  0.00     0.133 C 
ATOM      8  N1  LGS d           5.780   5.522   6.181  0.00  0.00    -0.307 N 
ATOM      9  C7  LGS d           6.086   6.364   7.232  0.00  0.00     0.241 C 
ATOM     10  N2  LGS d           5.381   7.438   7.599  0.00  0.00    -0.251 NA
ATOM     11  H2  LGS d           7.580   5.042   4.318  0.00  0.00     0.090 H 
ATOM     12  H3  LGS d           6.249   3.493   6.609  0.00  0.00     0.080 H 
ATOM     13  H4  LGS d           8.707   5.191   6.681  0.00  0.00     0.078 H 
ATOM     14  H5  LGS d           8.070   4.030   7.896  0.00  0.00     0.078 H 
ATOM     15  H6  LGS d           5.488   2.802   4.594  0.00  0.00     0.091 H 
ATOM     16  H8  LGS d           5.302   5.437   3.080  0.00  0.00     0.093 H 
ATOM     17  H10 LGS d           3.768   5.275   5.607  0.00  0.00     0.122 H 
ENDROOT
BRANCH  10  18
ATOM     18  C8  LGS d           5.520   8.241   8.821  0.00  0.00     0.019 C 
ATOM     19  H12 LGS d           5.433   9.306   8.563  0.00  0.00     0.067 H 
ATOM     20  H13 LGS d           6.507   8.050   9.267  0.00  0.00     0.067 H 
BRANCH  18  21
ATOM     21  C9  LGS d           4.439   7.884   9.836  0.00  0.00    -0.048 C 
ATOM     22  H14 LGS d           3.817   7.076   9.424  0.00  0.00     0.035 H 
ATOM     23  H15 LGS d           3.815   8.772  10.017  0.00  0.00     0.035 H 
BRANCH  21  24
ATOM     24  C10 LGS d           5.041   7.419  11.170  0.00  0.00    -0.064 C 
ATOM     25  H16 LGS d           5.409   8.301  11.716  0.00  0.00     0.033 H 
ATOM     26  H17 LGS d           5.882   6.742  10.959  0.00  0.00     0.033 H 
BRANCH  24  27
ATOM     27  C11 LGS d           4.020   6.675  12.064  0.00  0.00    -0.065 C 
ATOM     28  H18 LGS d           3.138   7.309  12.240  0.00  0.00     0.033 H 
ATOM     29  H19 LGS d           4.481   6.411  13.027  0.00  0.00     0.033 H 
BRANCH  27  30
ATOM     30  C12 LGS d           3.615   5.401  11.301  0.00  0.00    -0.065 C 
ATOM     31  H20 LGS d           4.059   4.532  11.810  0.00  0.00     0.033 H 
ATOM     32  H21 LGS d           4.008   5.466  10.276  0.00  0.00     0.033 H 
BRANCH  30  33
ATOM     33  C13 LGS d           2.087   5.199  11.229  0.00  0.00    -0.065 C 
ATOM     34  H22 LGS d           1.801   4.363  11.885  0.00  0.00     0.033 H 
ATOM     35  H23 LGS d           1.801   4.965  10.193  0.00  0.00     0.033 H 
BRANCH  33  36
ATOM     36  C14 LGS d           1.352   6.473  11.682  0.00  0.00    -0.069 C 
ATOM     37  H24 LGS d           2.065   7.141  12.187  0.00  0.00     0.032 H 
ATOM     38  H25 LGS d           0.549   6.198  12.381  0.00  0.00     0.032 H 
BRANCH  36  39
ATOM     39  C15 LGS d           0.743   7.205  10.482  0.00  0.00    -0.077 C 
ATOM     40  H26 LGS d           0.872   8.289  10.610  0.00  0.00     0.027 H 
ATOM     41  H27 LGS d          -0.329   6.968  10.414  0.00  0.00     0.027 H 
ATOM     42  H28 LGS d           1.249   6.881   9.560  0.00  0.00     0.027 H 
ENDBRANCH  36  39
ENDBRANCH  33  36
ENDBRANCH  30  33
ENDBRANCH  27  30
ENDBRANCH  24  27
ENDBRANCH  21  24
ENDBRANCH  18  21
ENDBRANCH  10  18
BRANCH   7  43
ATOM     43  O1  LGS d           4.651   6.998   4.818  0.00  0.00    -0.374 OA
ATOM     44  H11 LGS d           4.200   7.466   5.510  0.00  0.00     0.212 HD
ENDBRANCH   7  43
BRANCH   1  45
ATOM     45  O4  LGS d           8.183   3.118   4.775  0.00  0.00    -0.391 OA
ATOM     46  H1  LGS d           8.058   2.545   5.523  0.00  0.00     0.210 HD
ENDBRANCH   1  45
BRANCH   6  47
ATOM     47  O2  LGS d           3.638   4.278   3.442  0.00  0.00    -0.389 OA
ATOM     48  H9  LGS d           2.999   4.442   4.126  0.00  0.00     0.210 HD
ENDBRANCH   6  47
BRANCH   5  49
ATOM     49  O3  LGS d           6.301   3.201   2.720  0.00  0.00    -0.390 OA
ATOM     50  H7  LGS d           5.648   2.589   2.400  0.00  0.00     0.210 HD
ENDBRANCH   5  49
TORSDOF 12
ENDMDL
MODEL 9
REMARK VINA RESULT:      -6.0      3.926      8.773
REMARK  12 active torsions:
REMARK  status: ('A' for Active; 'I' for Inactive)
REMARK    1  A    between atoms: O4_1  and  C4_2 
REMARK    2  A    between atoms: C3_6  and  O3_7 
REMARK    3  A    between atoms: C2_8  and  O2_9 
REMARK    4  A    between atoms: C1_10  and  O1_11 
REMARK    5  A    between atoms: N2_14  and  C8_15 
REMARK    6  A    between atoms: C8_15  and  C9_16 
REMARK    7  A    between atoms: C9_16  and  C10_17 
REMARK    8  A    between atoms: C10_17  and  C11_18 
REMARK    9  A    between atoms: C11_18  and  C12_19 
REMARK   10  A    between atoms: C12_19  and  C13_20 
REMARK   11  A    between atoms: C13_20  and  C14_21 
REMARK   12  A    between atoms: C14_21  and  C15_22 
ROOT
ATOM      1  C4  LGS d           6.903   4.848   4.116  0.00  0.00     0.084 C 
ATOM      2  C5  LGS d           5.665   4.405   4.904  0.00  0.00     0.066 C 
ATOM      3  C6  LGS d           5.787   3.123   5.725  0.00  0.00     0.050 C 
ATOM      4  O6  LGS d           5.168   3.444   6.997  0.00  0.00    -0.319 OA
ATOM      5  C3  LGS d           6.485   6.103   3.340  0.00  0.00     0.091 C 
ATOM      6  C2  LGS d           6.241   7.284   4.293  0.00  0.00     0.104 C 
ATOM      7  C1  LGS d           5.421   6.889   5.545  0.00  0.00     0.133 C 
ATOM      8  N1  LGS d           5.370   5.449   5.896  0.00  0.00    -0.307 N 
ATOM      9  C7  LGS d           5.055   4.816   7.082  0.00  0.00     0.241 C 
ATOM     10  N2  LGS d           4.623   5.418   8.194  0.00  0.00    -0.251 NA
ATOM     11  H2  LGS d           7.736   5.075   4.798  0.00  0.00     0.090 H 
ATOM     12  H3  LGS d           4.830   4.295   4.196  0.00  0.00     0.080 H 
ATOM     13  H4  LGS d           6.844   2.851   5.865  0.00  0.00     0.078 H 
ATOM     14  H5  LGS d           5.257   2.294   5.234  0.00  0.00     0.078 H 
ATOM     15  H6  LGS d           5.568   5.887   2.771  0.00  0.00     0.091 H 
ATOM     16  H8  LGS d           7.226   7.641   4.629  0.00  0.00     0.093 H 
ATOM     17  H10 LGS d           4.392   7.246   5.392  0.00  0.00     0.122 H 
ENDROOT
BRANCH  10  18
ATOM     18  C8  LGS d           4.066   4.798   9.405  0.00  0.00     0.019 C 
ATOM     19  H12 LGS d           4.670   5.100  10.273  0.00  0.00     0.067 H 
ATOM     20  H13 LGS d           4.100   3.704   9.297  0.00  0.00     0.067 H 
BRANCH  18  21
ATOM     21  C9  LGS d           2.622   5.232   9.627  0.00  0.00    -0.048 C 
ATOM     22  H14 LGS d           2.013   4.343   9.846  0.00  0.00     0.035 H 
ATOM     23  H15 LGS d           2.250   5.715   8.711  0.00  0.00     0.035 H 
BRANCH  21  24
ATOM     24  C10 LGS d           2.497   6.221  10.795  0.00  0.00    -0.064 C 
ATOM     25  H16 LGS d           3.219   7.037  10.643  0.00  0.00     0.033 H 
ATOM     26  H17 LGS d           2.734   5.691  11.730  0.00  0.00     0.033 H 
BRANCH  24  27
ATOM     27  C11 LGS d           1.081   6.831  10.919  0.00  0.00    -0.065 C 
ATOM     28  H18 LGS d           0.368   6.264  10.301  0.00  0.00     0.033 H 
ATOM     29  H19 LGS d           1.090   7.882  10.596  0.00  0.00     0.033 H 
BRANCH  27  30
ATOM     30  C12 LGS d           0.689   6.735  12.405  0.00  0.00    -0.065 C 
ATOM     31  H20 LGS d           0.112   5.812  12.556  0.00  0.00     0.033 H 
ATOM     32  H21 LGS d           0.065   7.605  12.659  0.00  0.00     0.033 H 
BRANCH  30  33
ATOM     33  C13 LGS d           1.909   6.713  13.351  0.00  0.00    -0.065 C 
ATOM     34  H22 LGS d           1.912   7.630  13.959  0.00  0.00     0.033 H 
ATOM     35  H23 LGS d           2.830   6.667  12.753  0.00  0.00     0.033 H 
BRANCH  33  36
ATOM     36  C14 LGS d           1.847   5.488  14.282  0.00  0.00    -0.069 C 
ATOM     37  H24 LGS d           0.863   5.008  14.182  0.00  0.00     0.032 H 
ATOM     38  H25 LGS d           1.991   5.817  15.321  0.00  0.00     0.032 H 
BRANCH  36  39
ATOM     39  C15 LGS d           2.938   4.476  13.920  0.00  0.00    -0.077 C 
ATOM     40  H26 LGS d           2.911   3.638  14.631  0.00  0.00     0.027 H 
ATOM     41  H27 LGS d           3.922   4.965  13.967  0.00  0.00     0.027 H 
ATOM     42  H28 LGS d           2.765   4.098  12.902  0.00  0.00     0.027 H 
ENDBRANCH  36  39
ENDBRANCH  33  36
ENDBRANCH  30  33
ENDBRANCH  27  30
ENDBRANCH  24  27
ENDBRANCH  21  24
ENDBRANCH  18  21
ENDBRANCH  10  18
BRANCH   7  43
ATOM     43  O1  LGS d           5.991   7.514   6.712  0.00  0.00    -0.374 OA
ATOM     44  H11 LGS d           6.884   7.778   6.524  0.00  0.00     0.212 HD
ENDBRANCH   7  43
BRANCH   1  45
ATOM     45  O4  LGS d           7.290   3.829   3.209  0.00  0.00    -0.391 OA
ATOM     46  H1  LGS d           8.224   3.675   3.287  0.00  0.00     0.210 HD
ENDBRANCH   1  45
BRANCH   6  47
ATOM     47  O2  LGS d           5.568   8.370   3.646  0.00  0.00    -0.389 OA
ATOM     48  H9  LGS d           6.109   8.698   2.936  0.00  0.00     0.210 HD
ENDBRANCH   6  47
BRANCH   5  49
ATOM     49  O3  LGS d           7.532   6.501   2.453  0.00  0.00    -0.390 OA
ATOM     50  H7  LGS d           8.066   7.164   2.873  0.00  0.00     0.210 HD
ENDBRANCH   5  49
TORSDOF 12
ENDMDL
MODEL 10
REMARK VINA RESULT:      -5.9      3.814      8.399
REMARK  12 active torsions:
REMARK  status: ('A' for Active; 'I' for Inactive)
REMARK    1  A    between atoms: O4_1  and  C4_2 
REMARK    2  A    between atoms: C3_6  and  O3_7 
REMARK    3  A    between atoms: C2_8  and  O2_9 
REMARK    4  A    between atoms: C1_10  and  O1_11 
REMARK    5  A    between atoms: N2_14  and  C8_15 
REMARK    6  A    between atoms: C8_15  and  C9_16 
REMARK    7  A    between atoms: C9_16  and  C10_17 
REMARK    8  A    between atoms: C10_17  and  C11_18 
REMARK    9  A    between atoms: C11_18  and  C12_19 
REMARK   10  A    between atoms: C12_19  and  C13_20 
REMARK   11  A    between atoms: C13_20  and  C14_21 
REMARK   12  A    between atoms: C14_21  and  C15_22 
ROOT
ATOM      1  C4  LGS d           6.141   7.429   4.641  0.00  0.00     0.084 C 
ATOM      2  C5  LGS d           6.327   6.871   6.057  0.00  0.00     0.066 C 
ATOM      3  C6  LGS d           5.991   7.804   7.219  0.00  0.00     0.050 C 
ATOM      4  O6  LGS d           5.236   6.978   8.142  0.00  0.00    -0.319 OA
ATOM      5  C3  LGS d           6.611   6.325   3.686  0.00  0.00     0.091 C 
ATOM      6  C2  LGS d           5.649   5.125   3.715  0.00  0.00     0.104 C 
ATOM      7  C1  LGS d           5.229   4.724   5.150  0.00  0.00     0.133 C 
ATOM      8  N1  LGS d           5.402   5.739   6.216  0.00  0.00    -0.307 N 
ATOM      9  C7  LGS d           4.829   5.846   7.468  0.00  0.00     0.241 C 
ATOM     10  N2  LGS d           4.015   4.948   8.030  0.00  0.00    -0.251 NA
ATOM     11  H2  LGS d           5.084   7.675   4.457  0.00  0.00     0.090 H 
ATOM     12  H3  LGS d           7.371   6.539   6.160  0.00  0.00     0.080 H 
ATOM     13  H4  LGS d           5.384   8.654   6.872  0.00  0.00     0.078 H 
ATOM     14  H5  LGS d           6.909   8.179   7.696  0.00  0.00     0.078 H 
ATOM     15  H6  LGS d           7.620   6.000   3.978  0.00  0.00     0.091 H 
ATOM     16  H8  LGS d           4.744   5.420   3.164  0.00  0.00     0.093 H 
ATOM     17  H10 LGS d           5.806   3.829   5.424  0.00  0.00     0.122 H 
ENDROOT
BRANCH  10  18
ATOM     18  C8  LGS d           3.550   4.889   9.422  0.00  0.00     0.019 C 
ATOM     19  H12 LGS d           4.285   5.391  10.068  0.00  0.00     0.067 H 
ATOM     20  H13 LGS d           3.453   3.836   9.725  0.00  0.00     0.067 H 
BRANCH  18  21
ATOM     21  C9  LGS d           2.199   5.578   9.577  0.00  0.00    -0.048 C 
ATOM     22  H14 LGS d           1.464   4.843   9.937  0.00  0.00     0.035 H 
ATOM     23  H15 LGS d           1.883   5.966   8.598  0.00  0.00     0.035 H 
BRANCH  21  24
ATOM     24  C10 LGS d           2.265   6.744  10.575  0.00  0.00    -0.064 C 
ATOM     25  H16 LGS d           2.795   7.583  10.100  0.00  0.00     0.033 H 
ATOM     26  H17 LGS d           2.823   6.414  11.464  0.00  0.00     0.033 H 
BRANCH  24  27
ATOM     27  C11 LGS d           0.867   7.232  11.023  0.00  0.00    -0.065 C 
ATOM     28  H18 LGS d           0.103   6.915  10.297  0.00  0.00     0.033 H 
ATOM     29  H19 LGS d           0.857   8.329  11.109  0.00  0.00     0.033 H 
BRANCH  27  30
ATOM     30  C12 LGS d           0.596   6.590  12.395  0.00  0.00    -0.065 C 
ATOM     31  H20 LGS d           0.356   5.527  12.243  0.00  0.00     0.033 H 
ATOM     32  H21 LGS d          -0.265   7.097  12.856  0.00  0.00     0.033 H 
BRANCH  30  33
ATOM     33  C13 LGS d           1.798   6.689  13.358  0.00  0.00    -0.065 C 
ATOM     34  H22 LGS d           1.699   7.599  13.969  0.00  0.00     0.033 H 
ATOM     35  H23 LGS d           2.727   6.741  12.773  0.00  0.00     0.033 H 
BRANCH  33  36
ATOM     36  C14 LGS d           1.851   5.461  14.285  0.00  0.00    -0.069 C 
ATOM     37  H24 LGS d           0.871   4.961  14.278  0.00  0.00     0.032 H 
ATOM     38  H25 LGS d           2.088   5.790  15.307  0.00  0.00     0.032 H 
BRANCH  36  39
ATOM     39  C15 LGS d           2.922   4.472  13.815  0.00  0.00    -0.077 C 
ATOM     40  H26 LGS d           3.679   5.005  13.222  0.00  0.00     0.027 H 
ATOM     41  H27 LGS d           2.454   3.692  13.197  0.00  0.00     0.027 H 
ATOM     42  H28 LGS d           3.401   4.008  14.690  0.00  0.00     0.027 H 
ENDBRANCH  36  39
ENDBRANCH  33  36
ENDBRANCH  30  33
ENDBRANCH  27  30
ENDBRANCH  24  27
ENDBRANCH  21  24
ENDBRANCH  18  21
ENDBRANCH  10  18
BRANCH   7  43
ATOM     43  O1  LGS d           3.819   4.428   5.174  0.00  0.00    -0.374 OA
ATOM     44  H11 LGS d           3.677   3.543   4.861  0.00  0.00     0.212 HD
ENDBRANCH   7  43
BRANCH   1  45
ATOM     45  O4  LGS d           6.940   8.586   4.468  0.00  0.00    -0.391 OA
ATOM     46  H1  LGS d           6.761   8.969   3.617  0.00  0.00     0.210 HD
ENDBRANCH   1  45
BRANCH   6  47
ATOM     47  O2  LGS d           6.207   3.971   3.076  0.00  0.00    -0.389 OA
ATOM     48  H9  LGS d           5.966   3.193   3.565  0.00  0.00     0.210 HD
ENDBRANCH   6  47
BRANCH   5  49
ATOM     49  O3  LGS d           6.620   6.811   2.343  0.00  0.00    -0.390 OA
ATOM     50  H7  LGS d           6.923   7.712   2.335  0.00  0.00     0.210 HD
ENDBRANCH   5  49
TORSDOF 12
ENDMDL
