MODEL 1
REMARK VINA RESULT:      -6.1      0.000      0.000
REMARK  21 active torsions:
REMARK  status: ('A' for Active; 'I' for Inactive)
REMARK    1  A    between atoms: C12_6  and  C3_3 
REMARK    2  A    between atoms: O13_7  and  C12_6 
REMARK    3  A    between atoms: C16_8  and  O13_7 
REMARK    4  A    between atoms: C5_11  and  N11_10 
REMARK    5  A    between atoms: CA_13  and  N_12 
REMARK    6  A    between atoms: CA_13  and  CB_16 
REMARK    7  A    between atoms: C_14  and  CA_13 
REMARK       I    between atoms: N_28  and  C_14 
REMARK    8  A    between atoms: CB_16  and  CG_17 
REMARK    9  A    between atoms: CZ_22  and  OH_23 
REMARK   10  A    between atoms: OH_23  and  P_24 
REMARK   11  A    between atoms: CA_29  and  N_28 
REMARK   12  A    between atoms: CA_29  and  CB_33 
REMARK   13  A    between atoms: C_31  and  CA_29 
REMARK   14  A    between atoms: CA_29  and  CH3_30 
REMARK       I    between atoms: C_31  and  N_45 
REMARK   15  A    between atoms: CB_33  and  CG_34 
REMARK   16  A    between atoms: CZ_39  and  OH_40 
REMARK   17  A    between atoms: OH_40  and  P_41 
REMARK   18  A    between atoms: N_45  and  CA_46 
REMARK   19  A    between atoms: CA_46  and  C_47 
REMARK   20  A    between atoms: CA_46  and  CB_49 
REMARK   21  A    between atoms: CB_49  and  CG_50 
REMARK       I    between atoms: CG_50  and  ND2_52 
ROOT
ATOM      1  C   MOL d         -28.125  45.703  31.066  0.00  0.00     0.241 C 
ATOM      2  O   MOL d         -28.087  46.588  30.170  0.00  0.00    -0.271 OA
ATOM      3  N   MOL d         -29.196  45.114  31.507  0.00  0.00    -0.341 N 
ATOM      4  H17 MOL d         -29.104  44.371  32.169  0.00  0.00     0.163 HD
ENDROOT
BRANCH   1   5
ATOM      5  CA  MOL d         -26.916  45.055  31.655  0.00  0.00     0.094 C 
ATOM      6  H10 MOL d         -26.199  44.718  30.893  0.00  0.00     0.088 H 
BRANCH   5   7
ATOM      7  N   MOL d         -26.389  46.107  32.438  0.00  0.00    -0.335 N 
ATOM      8  C16 MOL d         -27.046  46.894  33.258  0.00  0.00     0.292 C 
ATOM      9  O18 MOL d         -28.131  46.405  33.948  0.00  0.00    -0.143 OA
ATOM     10  H9  MOL d         -25.405  46.269  32.360  0.00  0.00     0.164 HD
BRANCH   8  11
ATOM     11  O13 MOL d         -26.283  47.861  33.684  0.00  0.00    -0.310 OA
BRANCH  11  12
ATOM     12  C12 MOL d         -26.561  49.268  33.772  0.00  0.00     0.053 C 
ATOM     13  H5  MOL d         -25.722  49.778  33.276  0.00  0.00     0.082 H 
ATOM     14  H6  MOL d         -27.484  49.436  33.197  0.00  0.00     0.082 H 
BRANCH  12  15
ATOM     15  C3  MOL d         -26.752  49.953  35.075  0.00  0.00    -0.032 A 
ATOM     16  C2  MOL d         -26.739  49.259  36.298  0.00  0.00    -0.075 A 
ATOM     17  C1  MOL d         -26.901  49.997  37.506  0.00  0.00    -0.080 A 
ATOM     18  H2  MOL d         -26.609  48.184  36.322  0.00  0.00     0.084 H 
ATOM     19  C6  MOL d         -27.095  51.406  37.459  0.00  0.00    -0.058 A 
ATOM     20  H1  MOL d         -26.875  49.486  38.461  0.00  0.00     0.083 H 
ATOM     21  C5  MOL d         -27.118  52.070  36.218  0.00  0.00     0.026 A 
ATOM     22  H4  MOL d         -27.226  51.967  38.378  0.00  0.00     0.086 H 
ATOM     23  C4  MOL d         -26.939  51.345  35.033  0.00  0.00    -0.050 A 
ATOM     24  H3  MOL d         -26.945  51.860  34.079  0.00  0.00     0.087 H 
BRANCH  21  25
ATOM     25  N11 MOL d         -27.316  53.406  36.147  0.00  0.00    -0.399 N 
ATOM     26  H7  MOL d         -27.189  53.991  36.985  0.00  0.00     0.156 HD
ATOM     27  H8  MOL d         -27.593  53.838  35.254  0.00  0.00     0.156 HD
ENDBRANCH  21  25
ENDBRANCH  12  15
ENDBRANCH  11  12
ENDBRANCH   8  11
ENDBRANCH   5   7
BRANCH   5  28
ATOM     28  CB  MOL d         -27.411  43.851  32.508  0.00  0.00    -0.014 C 
ATOM     29  H11 MOL d         -28.395  43.532  32.134  0.00  0.00     0.043 H 
ATOM     30  H12 MOL d         -27.504  44.173  33.556  0.00  0.00     0.043 H 
BRANCH  28  31
ATOM     31  CG  MOL d         -26.452  42.665  32.443  0.00  0.00    -0.056 A 
ATOM     32  CD2 MOL d         -25.237  42.659  33.175  0.00  0.00    -0.074 A 
ATOM     33  CE2 MOL d         -24.365  41.544  33.116  0.00  0.00    -0.050 A 
ATOM     34  H14 MOL d         -24.973  43.515  33.784  0.00  0.00     0.084 H 
ATOM     35  CZ  MOL d         -24.794  40.450  32.304  0.00  0.00     0.082 A 
ATOM     36  H16 MOL d         -23.426  41.522  33.656  0.00  0.00     0.087 H 
ATOM     37  CE1 MOL d         -25.988  40.436  31.583  0.00  0.00    -0.050 A 
ATOM     38  CD1 MOL d         -26.814  41.544  31.651  0.00  0.00    -0.074 A 
ATOM     39  H15 MOL d         -26.263  39.575  30.983  0.00  0.00     0.087 H 
ATOM     40  H13 MOL d         -27.745  41.557  31.095  0.00  0.00     0.084 H 
BRANCH  35  41
ATOM     41  OH  MOL d         -23.967  39.318  32.216  0.00  0.00    -0.240 OA
BRANCH  41  42
ATOM     42  P   MOL d         -23.593  38.360  33.338  0.00  0.00     0.427 P 
ATOM     43  O3P MOL d         -23.941  39.028  34.695  0.00  0.00    -0.617 OA
ATOM     44  O2P MOL d         -24.236  37.061  33.229  0.00  0.00    -0.617 OA
ATOM     45  O1P MOL d         -22.161  38.192  33.269  0.00  0.00    -0.617 OA
ENDBRANCH  41  42
ENDBRANCH  35  41
ENDBRANCH  28  31
ENDBRANCH   5  28
ENDBRANCH   1   5
BRANCH   3  46
ATOM     46  CA  MOL d         -30.502  45.501  31.072  0.00  0.00     0.114 C 
BRANCH  46  47
ATOM     47  CB  MOL d         -31.425  44.639  32.006  0.00  0.00    -0.009 C 
ATOM     48  H21 MOL d         -32.307  44.335  31.423  0.00  0.00     0.044 H 
ATOM     49  H22 MOL d         -31.742  45.273  32.847  0.00  0.00     0.044 H 
BRANCH  47  50
ATOM     50  CG  MOL d         -30.784  43.372  32.585  0.00  0.00    -0.055 A 
ATOM     51  CD2 MOL d         -30.331  43.365  33.909  0.00  0.00    -0.074 A 
ATOM     52  CE2 MOL d         -29.743  42.212  34.497  0.00  0.00    -0.050 A 
ATOM     53  H24 MOL d         -30.432  44.265  34.505  0.00  0.00     0.084 H 
ATOM     54  CZ  MOL d         -29.643  41.084  33.672  0.00  0.00     0.082 A 
ATOM     55  H26 MOL d         -29.391  42.206  35.522  0.00  0.00     0.087 H 
ATOM     56  CE1 MOL d         -30.095  41.060  32.338  0.00  0.00    -0.050 A 
ATOM     57  CD1 MOL d         -30.667  42.207  31.786  0.00  0.00    -0.074 A 
ATOM     58  H25 MOL d         -30.000  40.157  31.745  0.00  0.00     0.087 H 
ATOM     59  H23 MOL d         -31.017  42.207  30.760  0.00  0.00     0.084 H 
BRANCH  54  60
ATOM     60  OH  MOL d         -29.055  39.943  34.251  0.00  0.00    -0.240 OA
BRANCH  60  61
ATOM     61  P   MOL d         -29.957  38.593  34.582  0.00  0.00     0.427 P 
ATOM     62  O3P MOL d         -31.410  38.924  34.537  0.00  0.00    -0.617 OA
ATOM     63  O2P MOL d         -29.686  37.564  33.550  0.00  0.00    -0.617 OA
ATOM     64  O1P MOL d         -29.571  38.204  35.951  0.00  0.00    -0.617 OA
ENDBRANCH  60  61
ENDBRANCH  54  60
ENDBRANCH  47  50
ENDBRANCH  46  47
BRANCH  46  65
ATOM     65  C   MOL d         -30.821  46.986  31.378  0.00  0.00     0.246 C 
ATOM     66  O   MOL d         -31.271  47.322  32.491  0.00  0.00    -0.271 OA
ATOM     67  N   MOL d         -30.659  47.870  30.412  0.00  0.00    -0.344 N 
ATOM     68  H27 MOL d         -30.325  47.583  29.513  0.00  0.00     0.163 HD
BRANCH  67  69
ATOM     69  CA  MOL d         -30.972  49.259  30.668  0.00  0.00     0.104 C 
ATOM     70  H28 MOL d         -31.954  49.319  31.160  0.00  0.00     0.090 H 
BRANCH  69  71
ATOM     71  C   MOL d         -31.023  50.011  29.337  0.00  0.00     0.197 C 
ATOM     72  OXT MOL d         -31.911  49.683  28.553  0.00  0.00    -0.646 OA
ATOM     73  O   MOL d         -30.176  50.917  29.056  0.00  0.00    -0.646 OA
ENDBRANCH  69  71
BRANCH  69  74
ATOM     74  CB  MOL d         -29.908  49.923  31.585  0.00  0.00     0.037 C 
ATOM     75  H29 MOL d         -29.382  50.698  31.008  0.00  0.00     0.051 H 
ATOM     76  H30 MOL d         -29.190  49.153  31.903  0.00  0.00     0.051 H 
BRANCH  74  77
ATOM     77  CG  MOL d         -30.530  50.590  32.871  0.00  0.00     0.217 C 
ATOM     78  OD1 MOL d         -31.130  51.621  32.802  0.00  0.00    -0.274 OA
ATOM     79  ND2 MOL d         -30.329  49.982  34.007  0.00  0.00    -0.370 N 
ATOM     80  H31 MOL d         -30.703  50.364  34.852  0.00  0.00     0.159 HD
ATOM     81  H32 MOL d         -29.801  49.133  34.033  0.00  0.00     0.159 HD
ENDBRANCH  74  77
ENDBRANCH  69  74
ENDBRANCH  67  69
ENDBRANCH  46  65
BRANCH  46  82
ATOM     82  CH3 MOL d         -30.809  44.914  29.667  0.00  0.00    -0.044 C 
ATOM     83  H18 MOL d         -30.115  45.345  28.931  0.00  0.00     0.031 H 
ATOM     84  H19 MOL d         -31.843  45.160  29.384  0.00  0.00     0.031 H 
ATOM     85  H20 MOL d         -30.686  43.821  29.691  0.00  0.00     0.031 H 
ENDBRANCH  46  82
ENDBRANCH   3  46
TORSDOF 21
ENDMDL
MODEL 2
REMARK VINA RESULT:      -5.8      3.663      8.347
REMARK  21 active torsions:
REMARK  status: ('A' for Active; 'I' for Inactive)
REMARK    1  A    between atoms: C12_6  and  C3_3 
REMARK    2  A    between atoms: O13_7  and  C12_6 
REMARK    3  A    between atoms: C16_8  and  O13_7 
REMARK    4  A    between atoms: C5_11  and  N11_10 
REMARK    5  A    between atoms: CA_13  and  N_12 
REMARK    6  A    between atoms: CA_13  and  CB_16 
REMARK    7  A    between atoms: C_14  and  CA_13 
REMARK       I    between atoms: N_28  and  C_14 
REMARK    8  A    between atoms: CB_16  and  CG_17 
REMARK    9  A    between atoms: CZ_22  and  OH_23 
REMARK   10  A    between atoms: OH_23  and  P_24 
REMARK   11  A    between atoms: CA_29  and  N_28 
REMARK   12  A    between atoms: CA_29  and  CB_33 
REMARK   13  A    between atoms: C_31  and  CA_29 
REMARK   14  A    between atoms: CA_29  and  CH3_30 
REMARK       I    between atoms: C_31  and  N_45 
REMARK   15  A    between atoms: CB_33  and  CG_34 
REMARK   16  A    between atoms: CZ_39  and  OH_40 
REMARK   17  A    between atoms: OH_40  and  P_41 
REMARK   18  A    between atoms: N_45  and  CA_46 
REMARK   19  A    between atoms: CA_46  and  C_47 
REMARK   20  A    between atoms: CA_46  and  CB_49 
REMARK   21  A    between atoms: CB_49  and  CG_50 
REMARK       I    between atoms: CG_50  and  ND2_52 
ROOT
ATOM      1  C   MOL d         -29.972  44.361  33.283  0.00  0.00     0.241 C 
ATOM      2  O   MOL d         -30.771  44.614  32.342  0.00  0.00    -0.271 OA
ATOM      3  N   MOL d         -29.581  45.200  34.195  0.00  0.00    -0.341 N 
ATOM      4  H17 MOL d         -29.002  44.872  34.940  0.00  0.00     0.163 HD
ENDROOT
BRANCH   1   5
ATOM      5  CA  MOL d         -29.469  42.994  33.609  0.00  0.00     0.094 C 
ATOM      6  H10 MOL d         -28.489  43.007  34.107  0.00  0.00     0.088 H 
BRANCH   5   7
ATOM      7  N   MOL d         -30.485  42.520  34.470  0.00  0.00    -0.335 N 
ATOM      8  C16 MOL d         -30.378  42.243  35.748  0.00  0.00     0.292 C 
ATOM      9  O18 MOL d         -29.516  42.974  36.533  0.00  0.00    -0.143 OA
ATOM     10  H9  MOL d         -31.386  42.380  34.059  0.00  0.00     0.164 HD
BRANCH   8  11
ATOM     11  O13 MOL d         -31.460  41.666  36.190  0.00  0.00    -0.310 OA
BRANCH  11  12
ATOM     12  C12 MOL d         -31.674  40.294  36.558  0.00  0.00     0.053 C 
ATOM     13  H5  MOL d         -31.148  40.146  37.513  0.00  0.00     0.082 H 
ATOM     14  H6  MOL d         -32.757  40.182  36.715  0.00  0.00     0.082 H 
BRANCH  12  15
ATOM     15  C3  MOL d         -31.264  39.170  35.679  0.00  0.00    -0.032 A 
ATOM     16  C2  MOL d         -30.427  38.131  36.127  0.00  0.00    -0.075 A 
ATOM     17  C1  MOL d         -30.106  37.075  35.227  0.00  0.00    -0.080 A 
ATOM     18  H2  MOL d         -30.035  38.135  37.137  0.00  0.00     0.084 H 
ATOM     19  C6  MOL d         -30.608  37.095  33.896  0.00  0.00    -0.058 A 
ATOM     20  H1  MOL d         -29.479  36.254  35.557  0.00  0.00     0.083 H 
ATOM     21  C5  MOL d         -31.430  38.156  33.473  0.00  0.00     0.026 A 
ATOM     22  H4  MOL d         -30.357  36.294  33.209  0.00  0.00     0.086 H 
ATOM     23  C4  MOL d         -31.762  39.184  34.365  0.00  0.00    -0.050 A 
ATOM     24  H3  MOL d         -32.405  39.994  34.040  0.00  0.00     0.087 H 
BRANCH  21  25
ATOM     25  N11 MOL d         -31.908  38.205  32.209  0.00  0.00    -0.399 N 
ATOM     26  H7  MOL d         -31.595  38.948  31.568  0.00  0.00     0.156 HD
ATOM     27  H8  MOL d         -32.586  37.499  31.887  0.00  0.00     0.156 HD
ENDBRANCH  21  25
ENDBRANCH  12  15
ENDBRANCH  11  12
ENDBRANCH   8  11
ENDBRANCH   5   7
BRANCH   5  28
ATOM     28  CB  MOL d         -29.389  42.203  32.270  0.00  0.00    -0.014 C 
ATOM     29  H11 MOL d         -29.244  42.916  31.445  0.00  0.00     0.043 H 
ATOM     30  H12 MOL d         -30.334  41.659  32.123  0.00  0.00     0.043 H 
BRANCH  28  31
ATOM     31  CG  MOL d         -28.239  41.200  32.260  0.00  0.00    -0.056 A 
ATOM     32  CD2 MOL d         -26.944  41.569  31.813  0.00  0.00    -0.074 A 
ATOM     33  CE2 MOL d         -25.882  40.631  31.824  0.00  0.00    -0.050 A 
ATOM     34  H14 MOL d         -26.765  42.578  31.460  0.00  0.00     0.084 H 
ATOM     35  CZ  MOL d         -26.195  39.329  32.320  0.00  0.00     0.082 A 
ATOM     36  H16 MOL d         -24.888  40.888  31.476  0.00  0.00     0.087 H 
ATOM     37  CE1 MOL d         -27.461  38.951  32.770  0.00  0.00    -0.050 A 
ATOM     38  CD1 MOL d         -28.481  39.886  32.736  0.00  0.00    -0.074 A 
ATOM     39  H15 MOL d         -27.641  37.947  33.138  0.00  0.00     0.087 H 
ATOM     40  H13 MOL d         -29.473  39.612  33.076  0.00  0.00     0.084 H 
BRANCH  35  41
ATOM     41  OH  MOL d         -25.176  38.365  32.356  0.00  0.00    -0.240 OA
BRANCH  41  42
ATOM     42  P   MOL d         -23.785  38.514  32.957  0.00  0.00     0.427 P 
ATOM     43  O3P MOL d         -22.858  39.169  31.899  0.00  0.00    -0.617 OA
ATOM     44  O2P MOL d         -23.767  39.277  34.194  0.00  0.00    -0.617 OA
ATOM     45  O1P MOL d         -23.308  37.176  33.213  0.00  0.00    -0.617 OA
ENDBRANCH  41  42
ENDBRANCH  35  41
ENDBRANCH  28  31
ENDBRANCH   5  28
ENDBRANCH   1   5
BRANCH   3  46
ATOM     46  CA  MOL d         -29.958  46.579  34.161  0.00  0.00     0.114 C 
BRANCH  46  47
ATOM     47  CB  MOL d         -29.404  47.102  35.534  0.00  0.00    -0.009 C 
ATOM     48  H21 MOL d         -28.386  46.705  35.662  0.00  0.00     0.044 H 
ATOM     49  H22 MOL d         -30.053  46.710  36.332  0.00  0.00     0.044 H 
BRANCH  47  50
ATOM     50  CG  MOL d         -29.338  48.626  35.685  0.00  0.00    -0.055 A 
ATOM     51  CD2 MOL d         -28.126  49.241  36.016  0.00  0.00    -0.074 A 
ATOM     52  CE2 MOL d         -28.010  50.651  36.155  0.00  0.00    -0.050 A 
ATOM     53  H24 MOL d         -27.248  48.624  36.172  0.00  0.00     0.084 H 
ATOM     54  CZ  MOL d         -29.181  51.388  35.939  0.00  0.00     0.082 A 
ATOM     55  H26 MOL d         -27.071  51.128  36.411  0.00  0.00     0.087 H 
ATOM     56  CE1 MOL d         -30.414  50.798  35.600  0.00  0.00    -0.050 A 
ATOM     57  CD1 MOL d         -30.500  49.410  35.473  0.00  0.00    -0.074 A 
ATOM     58  H25 MOL d         -31.290  51.416  35.438  0.00  0.00     0.087 H 
ATOM     59  H23 MOL d         -31.441  48.939  35.216  0.00  0.00     0.084 H 
BRANCH  54  60
ATOM     60  OH  MOL d         -29.070  52.785  36.082  0.00  0.00    -0.240 OA
BRANCH  60  61
ATOM     61  P   MOL d         -27.599  53.500  36.350  0.00  0.00     0.427 P 
ATOM     62  O3P MOL d         -27.304  53.533  37.811  0.00  0.00    -0.617 OA
ATOM     63  O2P MOL d         -26.542  52.700  35.685  0.00  0.00    -0.617 OA
ATOM     64  O1P MOL d         -27.744  54.873  35.833  0.00  0.00    -0.617 OA
ENDBRANCH  60  61
ENDBRANCH  54  60
ENDBRANCH  47  50
ENDBRANCH  46  47
BRANCH  46  65
ATOM     65  C   MOL d         -29.224  47.374  33.052  0.00  0.00     0.246 C 
ATOM     66  O   MOL d         -29.859  48.112  32.274  0.00  0.00    -0.271 OA
ATOM     67  N   MOL d         -27.922  47.200  32.919  0.00  0.00    -0.344 N 
ATOM     68  H27 MOL d         -27.429  46.581  33.531  0.00  0.00     0.163 HD
BRANCH  67  69
ATOM     69  CA  MOL d         -27.219  47.915  31.876  0.00  0.00     0.104 C 
ATOM     70  H28 MOL d         -27.715  48.882  31.709  0.00  0.00     0.090 H 
BRANCH  69  71
ATOM     71  C   MOL d         -27.267  47.089  30.589  0.00  0.00     0.197 C 
ATOM     72  OXT MOL d         -27.162  45.871  30.712  0.00  0.00    -0.646 OA
ATOM     73  O   MOL d         -27.392  47.643  29.451  0.00  0.00    -0.646 OA
ENDBRANCH  69  71
BRANCH  69  74
ATOM     74  CB  MOL d         -25.735  48.169  32.260  0.00  0.00     0.037 C 
ATOM     75  H29 MOL d         -25.322  47.247  32.693  0.00  0.00     0.051 H 
ATOM     76  H30 MOL d         -25.701  48.973  33.010  0.00  0.00     0.051 H 
BRANCH  74  77
ATOM     77  CG  MOL d         -24.842  48.591  31.030  0.00  0.00     0.217 C 
ATOM     78  OD1 MOL d         -23.895  47.940  30.704  0.00  0.00    -0.274 OA
ATOM     79  ND2 MOL d         -25.168  49.693  30.416  0.00  0.00    -0.370 N 
ATOM     80  H31 MOL d         -24.633  50.004  29.630  0.00  0.00     0.159 HD
ATOM     81  H32 MOL d         -25.953  50.228  30.730  0.00  0.00     0.159 HD
ENDBRANCH  74  77
ENDBRANCH  69  74
ENDBRANCH  67  69
ENDBRANCH  46  65
BRANCH  46  82
ATOM     82  CH3 MOL d         -31.493  46.734  34.340  0.00  0.00    -0.044 C 
ATOM     83  H18 MOL d         -31.698  47.524  35.077  0.00  0.00     0.031 H 
ATOM     84  H19 MOL d         -31.919  45.783  34.695  0.00  0.00     0.031 H 
ATOM     85  H20 MOL d         -31.949  47.004  33.377  0.00  0.00     0.031 H 
ENDBRANCH  46  82
ENDBRANCH   3  46
TORSDOF 21
ENDMDL
MODEL 3
REMARK VINA RESULT:      -5.2      3.373      7.328
REMARK  21 active torsions:
REMARK  status: ('A' for Active; 'I' for Inactive)
REMARK    1  A    between atoms: C12_6  and  C3_3 
REMARK    2  A    between atoms: O13_7  and  C12_6 
REMARK    3  A    between atoms: C16_8  and  O13_7 
REMARK    4  A    between atoms: C5_11  and  N11_10 
REMARK    5  A    between atoms: CA_13  and  N_12 
REMARK    6  A    between atoms: CA_13  and  CB_16 
REMARK    7  A    between atoms: C_14  and  CA_13 
REMARK       I    between atoms: N_28  and  C_14 
REMARK    8  A    between atoms: CB_16  and  CG_17 
REMARK    9  A    between atoms: CZ_22  and  OH_23 
REMARK   10  A    between atoms: OH_23  and  P_24 
REMARK   11  A    between atoms: CA_29  and  N_28 
REMARK   12  A    between atoms: CA_29  and  CB_33 
REMARK   13  A    between atoms: C_31  and  CA_29 
REMARK   14  A    between atoms: CA_29  and  CH3_30 
REMARK       I    between atoms: C_31  and  N_45 
REMARK   15  A    between atoms: CB_33  and  CG_34 
REMARK   16  A    between atoms: CZ_39  and  OH_40 
REMARK   17  A    between atoms: OH_40  and  P_41 
REMARK   18  A    between atoms: N_45  and  CA_46 
REMARK   19  A    between atoms: CA_46  and  C_47 
REMARK   20  A    between atoms: CA_46  and  CB_49 
REMARK   21  A    between atoms: CB_49  and  CG_50 
REMARK       I    between atoms: CG_50  and  ND2_52 
ROOT
ATOM      1  C   MOL d         -29.027  43.574  31.303  0.00  0.00     0.241 C 
ATOM      2  O   MOL d         -30.008  43.313  30.557  0.00  0.00    -0.271 OA
ATOM      3  N   MOL d         -28.630  44.762  31.649  0.00  0.00    -0.341 N 
ATOM      4  H17 MOL d         -27.884  44.852  32.308  0.00  0.00     0.163 HD
ENDROOT
BRANCH   1   5
ATOM      5  CA  MOL d         -28.255  42.545  32.060  0.00  0.00     0.094 C 
ATOM      6  H10 MOL d         -27.272  42.909  32.394  0.00  0.00     0.088 H 
BRANCH   5   7
ATOM      7  N   MOL d         -29.117  42.294  33.151  0.00  0.00    -0.335 N 
ATOM      8  C16 MOL d         -28.773  42.020  34.388  0.00  0.00     0.292 C 
ATOM      9  O18 MOL d         -27.632  42.576  34.917  0.00  0.00    -0.143 OA
ATOM     10  H9  MOL d         -30.098  42.331  32.960  0.00  0.00     0.164 HD
BRANCH   8  11
ATOM     11  O13 MOL d         -29.814  41.675  35.093  0.00  0.00    -0.310 OA
BRANCH  11  12
ATOM     12  C12 MOL d         -30.725  40.581  34.897  0.00  0.00     0.053 C 
ATOM     13  H5  MOL d         -31.676  40.887  35.356  0.00  0.00     0.082 H 
ATOM     14  H6  MOL d         -30.857  40.482  33.809  0.00  0.00     0.082 H 
BRANCH  12  15
ATOM     15  C3  MOL d         -30.437  39.217  35.406  0.00  0.00    -0.032 A 
ATOM     16  C2  MOL d         -31.100  38.676  36.523  0.00  0.00    -0.075 A 
ATOM     17  C1  MOL d         -30.785  37.347  36.928  0.00  0.00    -0.080 A 
ATOM     18  H2  MOL d         -31.836  39.259  37.064  0.00  0.00     0.084 H 
ATOM     19  C6  MOL d         -29.800  36.601  36.223  0.00  0.00    -0.058 A 
ATOM     20  H1  MOL d         -31.298  36.903  37.774  0.00  0.00     0.083 H 
ATOM     21  C5  MOL d         -29.143  37.176  35.119  0.00  0.00     0.026 A 
ATOM     22  H4  MOL d         -29.555  35.592  36.536  0.00  0.00     0.086 H 
ATOM     23  C4  MOL d         -29.468  38.476  34.710  0.00  0.00    -0.050 A 
ATOM     24  H3  MOL d         -28.969  38.912  33.851  0.00  0.00     0.087 H 
BRANCH  21  25
ATOM     25  N11 MOL d         -28.193  36.493  34.441  0.00  0.00    -0.399 N 
ATOM     26  H7  MOL d         -28.420  35.587  34.007  0.00  0.00     0.156 HD
ATOM     27  H8  MOL d         -27.241  36.879  34.359  0.00  0.00     0.156 HD
ENDBRANCH  21  25
ENDBRANCH  12  15
ENDBRANCH  11  12
ENDBRANCH   8  11
ENDBRANCH   5   7
BRANCH   5  28
ATOM     28  CB  MOL d         -28.089  41.314  31.122  0.00  0.00    -0.014 C 
ATOM     29  H11 MOL d         -27.965  41.670  30.088  0.00  0.00     0.043 H 
ATOM     30  H12 MOL d         -28.994  40.692  31.189  0.00  0.00     0.043 H 
BRANCH  28  31
ATOM     31  CG  MOL d         -26.879  40.462  31.495  0.00  0.00    -0.056 A 
ATOM     32  CD2 MOL d         -25.654  41.056  31.892  0.00  0.00    -0.074 A 
ATOM     33  CE2 MOL d         -24.544  40.251  32.251  0.00  0.00    -0.050 A 
ATOM     34  H14 MOL d         -25.565  42.136  31.921  0.00  0.00     0.084 H 
ATOM     35  CZ  MOL d         -24.748  38.839  32.203  0.00  0.00     0.082 A 
ATOM     36  H16 MOL d         -23.595  40.683  32.545  0.00  0.00     0.087 H 
ATOM     37  CE1 MOL d         -25.947  38.237  31.822  0.00  0.00    -0.050 A 
ATOM     38  CD1 MOL d         -27.010  39.049  31.466  0.00  0.00    -0.074 A 
ATOM     39  H15 MOL d         -26.045  37.157  31.806  0.00  0.00     0.087 H 
ATOM     40  H13 MOL d         -27.951  38.602  31.162  0.00  0.00     0.084 H 
BRANCH  35  41
ATOM     41  OH  MOL d         -23.680  37.997  32.554  0.00  0.00    -0.240 OA
BRANCH  41  42
ATOM     42  P   MOL d         -23.527  37.185  33.833  0.00  0.00     0.427 P 
ATOM     43  O3P MOL d         -24.712  36.187  33.928  0.00  0.00    -0.617 OA
ATOM     44  O2P MOL d         -22.258  36.482  33.923  0.00  0.00    -0.617 OA
ATOM     45  O1P MOL d         -23.633  38.122  34.925  0.00  0.00    -0.617 OA
ENDBRANCH  41  42
ENDBRANCH  35  41
ENDBRANCH  28  31
ENDBRANCH   5  28
ENDBRANCH   1   5
BRANCH   3  46
ATOM     46  CA  MOL d         -29.232  45.943  31.114  0.00  0.00     0.114 C 
BRANCH  46  47
ATOM     47  CB  MOL d         -30.533  46.069  31.985  0.00  0.00    -0.009 C 
ATOM     48  H21 MOL d         -30.929  45.057  32.152  0.00  0.00     0.044 H 
ATOM     49  H22 MOL d         -31.266  46.660  31.415  0.00  0.00     0.044 H 
BRANCH  47  50
ATOM     50  CG  MOL d         -30.352  46.737  33.354  0.00  0.00    -0.055 A 
ATOM     51  CD2 MOL d         -29.394  46.245  34.247  0.00  0.00    -0.074 A 
ATOM     52  CE2 MOL d         -29.179  46.837  35.521  0.00  0.00    -0.050 A 
ATOM     53  H24 MOL d         -28.797  45.388  33.958  0.00  0.00     0.084 H 
ATOM     54  CZ  MOL d         -29.983  47.942  35.829  0.00  0.00     0.082 A 
ATOM     55  H26 MOL d         -28.436  46.457  36.213  0.00  0.00     0.087 H 
ATOM     56  CE1 MOL d         -30.952  48.461  34.949  0.00  0.00    -0.050 A 
ATOM     57  CD1 MOL d         -31.144  47.859  33.705  0.00  0.00    -0.074 A 
ATOM     58  H25 MOL d         -31.545  49.323  35.236  0.00  0.00     0.087 H 
ATOM     59  H23 MOL d         -31.887  48.244  33.017  0.00  0.00     0.084 H 
BRANCH  54  60
ATOM     60  OH  MOL d         -29.775  48.526  37.094  0.00  0.00    -0.240 OA
BRANCH  60  61
ATOM     61  P   MOL d         -29.790  50.172  37.287  0.00  0.00     0.427 P 
ATOM     62  O3P MOL d         -29.459  50.841  35.996  0.00  0.00    -0.617 OA
ATOM     63  O2P MOL d         -31.150  50.600  37.692  0.00  0.00    -0.617 OA
ATOM     64  O1P MOL d         -28.739  50.447  38.283  0.00  0.00    -0.617 OA
ENDBRANCH  60  61
ENDBRANCH  54  60
ENDBRANCH  47  50
ENDBRANCH  46  47
BRANCH  46  65
ATOM     65  C   MOL d         -28.391  47.217  31.381  0.00  0.00     0.246 C 
ATOM     66  O   MOL d         -28.859  48.348  31.142  0.00  0.00    -0.271 OA
ATOM     67  N   MOL d         -27.153  47.068  31.810  0.00  0.00    -0.344 N 
ATOM     68  H27 MOL d         -26.779  46.154  31.970  0.00  0.00     0.163 HD
BRANCH  67  69
ATOM     69  CA  MOL d         -26.342  48.243  32.045  0.00  0.00     0.104 C 
ATOM     70  H28 MOL d         -26.919  49.137  31.766  0.00  0.00     0.090 H 
BRANCH  69  71
ATOM     71  C   MOL d         -25.083  48.159  31.180  0.00  0.00     0.197 C 
ATOM     72  OXT MOL d         -24.727  47.035  30.833  0.00  0.00    -0.646 OA
ATOM     73  O   MOL d         -24.434  49.203  30.853  0.00  0.00    -0.646 OA
ENDBRANCH  69  71
BRANCH  69  74
ATOM     74  CB  MOL d         -25.924  48.358  33.537  0.00  0.00     0.037 C 
ATOM     75  H29 MOL d         -24.886  48.718  33.583  0.00  0.00     0.051 H 
ATOM     76  H30 MOL d         -25.987  47.361  33.997  0.00  0.00     0.051 H 
BRANCH  74  77
ATOM     77  CG  MOL d         -26.836  49.348  34.359  0.00  0.00     0.217 C 
ATOM     78  OD1 MOL d         -26.602  49.594  35.505  0.00  0.00    -0.274 OA
ATOM     79  ND2 MOL d         -27.866  49.852  33.740  0.00  0.00    -0.370 N 
ATOM     80  H31 MOL d         -28.476  50.485  34.218  0.00  0.00     0.159 HD
ATOM     81  H32 MOL d         -28.047  49.606  32.788  0.00  0.00     0.159 HD
ENDBRANCH  74  77
ENDBRANCH  69  74
ENDBRANCH  67  69
ENDBRANCH  46  65
BRANCH  46  82
ATOM     82  CH3 MOL d         -29.805  45.674  29.696  0.00  0.00    -0.044 C 
ATOM     83  H18 MOL d         -29.261  46.283  28.959  0.00  0.00     0.031 H 
ATOM     84  H19 MOL d         -30.873  45.940  29.675  0.00  0.00     0.031 H 
ATOM     85  H20 MOL d         -29.688  44.608  29.450  0.00  0.00     0.031 H 
ENDBRANCH  46  82
ENDBRANCH   3  46
TORSDOF 21
ENDMDL
MODEL 4
REMARK VINA RESULT:      -5.1      3.715      8.264
REMARK  21 active torsions:
REMARK  status: ('A' for Active; 'I' for Inactive)
REMARK    1  A    between atoms: C12_6  and  C3_3 
REMARK    2  A    between atoms: O13_7  and  C12_6 
REMARK    3  A    between atoms: C16_8  and  O13_7 
REMARK    4  A    between atoms: C5_11  and  N11_10 
REMARK    5  A    between atoms: CA_13  and  N_12 
REMARK    6  A    between atoms: CA_13  and  CB_16 
REMARK    7  A    between atoms: C_14  and  CA_13 
REMARK       I    between atoms: N_28  and  C_14 
REMARK    8  A    between atoms: CB_16  and  CG_17 
REMARK    9  A    between atoms: CZ_22  and  OH_23 
REMARK   10  A    between atoms: OH_23  and  P_24 
REMARK   11  A    between atoms: CA_29  and  N_28 
REMARK   12  A    between atoms: CA_29  and  CB_33 
REMARK   13  A    between atoms: C_31  and  CA_29 
REMARK   14  A    between atoms: CA_29  and  CH3_30 
REMARK       I    between atoms: C_31  and  N_45 
REMARK   15  A    between atoms: CB_33  and  CG_34 
REMARK   16  A    between atoms: CZ_39  and  OH_40 
REMARK   17  A    between atoms: OH_40  and  P_41 
REMARK   18  A    between atoms: N_45  and  CA_46 
REMARK   19  A    between atoms: CA_46  and  C_47 
REMARK   20  A    between atoms: CA_46  and  CB_49 
REMARK   21  A    between atoms: CB_49  and  CG_50 
REMARK       I    between atoms: CG_50  and  ND2_52 
ROOT
ATOM      1  C   MOL d         -29.962  43.681  32.811  0.00  0.00     0.241 C 
ATOM      2  O   MOL d         -30.893  43.904  31.993  0.00  0.00    -0.271 OA
ATOM      3  N   MOL d         -29.480  44.534  33.665  0.00  0.00    -0.341 N 
ATOM      4  H17 MOL d         -28.790  44.228  34.320  0.00  0.00     0.163 HD
ENDROOT
BRANCH   1   5
ATOM      5  CA  MOL d         -29.368  42.333  33.057  0.00  0.00     0.094 C 
ATOM      6  H10 MOL d         -28.564  42.352  33.806  0.00  0.00     0.088 H 
BRANCH   5   7
ATOM      7  N   MOL d         -30.493  41.611  33.517  0.00  0.00    -0.335 N 
ATOM      8  C16 MOL d         -30.634  41.016  34.678  0.00  0.00     0.292 C 
ATOM      9  O18 MOL d         -30.035  41.551  35.795  0.00  0.00    -0.143 OA
ATOM     10  H9  MOL d         -31.268  41.547  32.887  0.00  0.00     0.164 HD
BRANCH   8  11
ATOM     11  O13 MOL d         -31.724  40.300  34.703  0.00  0.00    -0.310 OA
BRANCH  11  12
ATOM     12  C12 MOL d         -31.876  38.879  34.841  0.00  0.00     0.053 C 
ATOM     13  H5  MOL d         -32.849  38.719  35.328  0.00  0.00     0.082 H 
ATOM     14  H6  MOL d         -31.906  38.471  33.819  0.00  0.00     0.082 H 
BRANCH  12  15
ATOM     15  C3  MOL d         -30.896  38.051  35.589  0.00  0.00    -0.032 A 
ATOM     16  C2  MOL d         -31.090  37.689  36.934  0.00  0.00    -0.075 A 
ATOM     17  C1  MOL d         -30.115  36.867  37.569  0.00  0.00    -0.080 A 
ATOM     18  H2  MOL d         -31.964  38.029  37.477  0.00  0.00     0.084 H 
ATOM     19  C6  MOL d         -28.960  36.448  36.852  0.00  0.00    -0.058 A 
ATOM     20  H1  MOL d         -30.253  36.561  38.600  0.00  0.00     0.083 H 
ATOM     21  C5  MOL d         -28.787  36.839  35.511  0.00  0.00     0.026 A 
ATOM     22  H4  MOL d         -28.214  35.829  37.338  0.00  0.00     0.086 H 
ATOM     23  C4  MOL d         -29.757  37.631  34.882  0.00  0.00    -0.050 A 
ATOM     24  H3  MOL d         -29.627  37.921  33.845  0.00  0.00     0.087 H 
BRANCH  21  25
ATOM     25  N11 MOL d         -27.691  36.466  34.812  0.00  0.00    -0.399 N 
ATOM     26  H7  MOL d         -26.908  37.124  34.692  0.00  0.00     0.156 HD
ATOM     27  H8  MOL d         -27.640  35.523  34.400  0.00  0.00     0.156 HD
ENDBRANCH  21  25
ENDBRANCH  12  15
ENDBRANCH  11  12
ENDBRANCH   8  11
ENDBRANCH   5   7
BRANCH   5  28
ATOM     28  CB  MOL d         -28.829  41.814  31.692  0.00  0.00    -0.014 C 
ATOM     29  H11 MOL d         -28.449  42.668  31.112  0.00  0.00     0.043 H 
ATOM     30  H12 MOL d         -29.655  41.338  31.143  0.00  0.00     0.043 H 
BRANCH  28  31
ATOM     31  CG  MOL d         -27.704  40.798  31.864  0.00  0.00    -0.056 A 
ATOM     32  CD2 MOL d         -27.972  39.406  31.930  0.00  0.00    -0.074 A 
ATOM     33  CE2 MOL d         -26.915  38.474  32.075  0.00  0.00    -0.050 A 
ATOM     34  H14 MOL d         -28.995  39.052  31.869  0.00  0.00     0.084 H 
ATOM     35  CZ  MOL d         -25.596  39.019  32.130  0.00  0.00     0.082 A 
ATOM     36  H16 MOL d         -27.097  37.408  32.140  0.00  0.00     0.087 H 
ATOM     37  CE1 MOL d         -25.314  40.383  32.060  0.00  0.00    -0.050 A 
ATOM     38  CD1 MOL d         -26.368  41.271  31.930  0.00  0.00    -0.074 A 
ATOM     39  H15 MOL d         -24.291  40.740  32.106  0.00  0.00     0.087 H 
ATOM     40  H13 MOL d         -26.171  42.336  31.879  0.00  0.00     0.084 H 
BRANCH  35  41
ATOM     41  OH  MOL d         -24.513  38.136  32.268  0.00  0.00    -0.240 OA
BRANCH  41  42
ATOM     42  P   MOL d         -23.598  37.980  33.474  0.00  0.00     0.427 P 
ATOM     43  O3P MOL d         -22.942  36.574  33.418  0.00  0.00    -0.617 OA
ATOM     44  O2P MOL d         -22.580  39.014  33.566  0.00  0.00    -0.617 OA
ATOM     45  O1P MOL d         -24.446  38.040  34.640  0.00  0.00    -0.617 OA
ENDBRANCH  41  42
ENDBRANCH  35  41
ENDBRANCH  28  31
ENDBRANCH   5  28
ENDBRANCH   1   5
BRANCH   3  46
ATOM     46  CA  MOL d         -29.909  45.897  33.691  0.00  0.00     0.114 C 
BRANCH  46  47
ATOM     47  CB  MOL d         -29.511  46.336  35.146  0.00  0.00    -0.009 C 
ATOM     48  H21 MOL d         -28.414  46.311  35.219  0.00  0.00     0.044 H 
ATOM     49  H22 MOL d         -29.942  45.607  35.848  0.00  0.00     0.044 H 
BRANCH  47  50
ATOM     50  CG  MOL d         -29.980  47.733  35.569  0.00  0.00    -0.055 A 
ATOM     51  CD2 MOL d         -30.254  48.700  34.596  0.00  0.00    -0.074 A 
ATOM     52  CE2 MOL d         -30.705  50.004  34.936  0.00  0.00    -0.050 A 
ATOM     53  H24 MOL d         -30.118  48.447  33.550  0.00  0.00     0.084 H 
ATOM     54  CZ  MOL d         -30.859  50.263  36.304  0.00  0.00     0.082 A 
ATOM     55  H26 MOL d         -30.916  50.754  34.182  0.00  0.00     0.087 H 
ATOM     56  CE1 MOL d         -30.597  49.309  37.306  0.00  0.00    -0.050 A 
ATOM     57  CD1 MOL d         -30.153  48.036  36.943  0.00  0.00    -0.074 A 
ATOM     58  H25 MOL d         -30.739  49.560  38.351  0.00  0.00     0.087 H 
ATOM     59  H23 MOL d         -29.943  47.291  37.701  0.00  0.00     0.084 H 
BRANCH  54  60
ATOM     60  OH  MOL d         -31.300  51.557  36.644  0.00  0.00    -0.240 OA
BRANCH  60  61
ATOM     61  P   MOL d         -30.219  52.788  36.896  0.00  0.00     0.427 P 
ATOM     62  O3P MOL d         -29.814  52.828  38.330  0.00  0.00    -0.617 OA
ATOM     63  O2P MOL d         -29.005  52.541  36.081  0.00  0.00    -0.617 OA
ATOM     64  O1P MOL d         -30.954  54.017  36.544  0.00  0.00    -0.617 OA
ENDBRANCH  60  61
ENDBRANCH  54  60
ENDBRANCH  47  50
ENDBRANCH  46  47
BRANCH  46  65
ATOM     65  C   MOL d         -29.105  46.797  32.719  0.00  0.00     0.246 C 
ATOM     66  O   MOL d         -29.613  47.189  31.650  0.00  0.00    -0.271 OA
ATOM     67  N   MOL d         -27.854  47.085  33.026  0.00  0.00    -0.344 N 
ATOM     68  H27 MOL d         -27.449  46.740  33.873  0.00  0.00     0.163 HD
BRANCH  67  69
ATOM     69  CA  MOL d         -27.077  47.905  32.122  0.00  0.00     0.104 C 
ATOM     70  H28 MOL d         -27.753  48.597  31.597  0.00  0.00     0.090 H 
BRANCH  69  71
ATOM     71  C   MOL d         -26.383  47.001  31.103  0.00  0.00     0.197 C 
ATOM     72  OXT MOL d         -26.585  47.251  29.917  0.00  0.00    -0.646 OA
ATOM     73  O   MOL d         -25.648  46.031  31.471  0.00  0.00    -0.646 OA
ENDBRANCH  69  71
BRANCH  69  74
ATOM     74  CB  MOL d         -26.002  48.731  32.883  0.00  0.00     0.037 C 
ATOM     75  H29 MOL d         -25.796  49.648  32.312  0.00  0.00     0.051 H 
ATOM     76  H30 MOL d         -25.084  48.129  32.953  0.00  0.00     0.051 H 
BRANCH  74  77
ATOM     77  CG  MOL d         -26.450  49.136  34.339  0.00  0.00     0.217 C 
ATOM     78  OD1 MOL d         -26.286  48.397  35.263  0.00  0.00    -0.274 OA
ATOM     79  ND2 MOL d         -27.033  50.294  34.476  0.00  0.00    -0.370 N 
ATOM     80  H31 MOL d         -27.336  50.598  35.379  0.00  0.00     0.159 HD
ATOM     81  H32 MOL d         -27.178  50.879  33.677  0.00  0.00     0.159 HD
ENDBRANCH  74  77
ENDBRANCH  69  74
ENDBRANCH  67  69
ENDBRANCH  46  65
BRANCH  46  82
ATOM     82  CH3 MOL d         -31.459  45.986  33.729  0.00  0.00    -0.044 C 
ATOM     83  H18 MOL d         -31.827  46.369  32.766  0.00  0.00     0.031 H 
ATOM     84  H19 MOL d         -31.768  46.665  34.537  0.00  0.00     0.031 H 
ATOM     85  H20 MOL d         -31.878  44.985  33.910  0.00  0.00     0.031 H 
ENDBRANCH  46  82
ENDBRANCH   3  46
TORSDOF 21
ENDMDL
MODEL 5
REMARK VINA RESULT:      -5.0      3.473      7.669
REMARK  21 active torsions:
REMARK  status: ('A' for Active; 'I' for Inactive)
REMARK    1  A    between atoms: C12_6  and  C3_3 
REMARK    2  A    between atoms: O13_7  and  C12_6 
REMARK    3  A    between atoms: C16_8  and  O13_7 
REMARK    4  A    between atoms: C5_11  and  N11_10 
REMARK    5  A    between atoms: CA_13  and  N_12 
REMARK    6  A    between atoms: CA_13  and  CB_16 
REMARK    7  A    between atoms: C_14  and  CA_13 
REMARK       I    between atoms: N_28  and  C_14 
REMARK    8  A    between atoms: CB_16  and  CG_17 
REMARK    9  A    between atoms: CZ_22  and  OH_23 
REMARK   10  A    between atoms: OH_23  and  P_24 
REMARK   11  A    between atoms: CA_29  and  N_28 
REMARK   12  A    between atoms: CA_29  and  CB_33 
REMARK   13  A    between atoms: C_31  and  CA_29 
REMARK   14  A    between atoms: CA_29  and  CH3_30 
REMARK       I    between atoms: C_31  and  N_45 
REMARK   15  A    between atoms: CB_33  and  CG_34 
REMARK   16  A    between atoms: CZ_39  and  OH_40 
REMARK   17  A    between atoms: OH_40  and  P_41 
REMARK   18  A    between atoms: N_45  and  CA_46 
REMARK   19  A    between atoms: CA_46  and  C_47 
REMARK   20  A    between atoms: CA_46  and  CB_49 
REMARK   21  A    between atoms: CB_49  and  CG_50 
REMARK       I    between atoms: CG_50  and  ND2_52 
ROOT
ATOM      1  C   MOL d         -28.808  43.733  31.528  0.00  0.00     0.241 C 
ATOM      2  O   MOL d         -29.832  43.524  30.825  0.00  0.00    -0.271 OA
ATOM      3  N   MOL d         -28.380  44.896  31.920  0.00  0.00    -0.341 N 
ATOM      4  H17 MOL d         -27.597  44.942  32.539  0.00  0.00     0.163 HD
ENDROOT
BRANCH   1   5
ATOM      5  CA  MOL d         -28.004  42.656  32.178  0.00  0.00     0.094 C 
ATOM      6  H10 MOL d         -27.109  43.040  32.688  0.00  0.00     0.088 H 
BRANCH   5   7
ATOM      7  N   MOL d         -28.939  42.124  33.094  0.00  0.00    -0.335 N 
ATOM      8  C16 MOL d         -28.728  41.807  34.350  0.00  0.00     0.292 C 
ATOM      9  O18 MOL d         -27.830  42.536  35.095  0.00  0.00    -0.143 OA
ATOM     10  H9  MOL d         -29.865  41.971  32.747  0.00  0.00     0.164 HD
BRANCH   8  11
ATOM     11  O13 MOL d         -29.758  41.183  34.851  0.00  0.00    -0.310 OA
BRANCH  11  12
ATOM     12  C12 MOL d         -30.472  40.048  34.337  0.00  0.00     0.053 C 
ATOM     13  H5  MOL d         -31.326  39.890  35.013  0.00  0.00     0.082 H 
ATOM     14  H6  MOL d         -30.841  40.340  33.342  0.00  0.00     0.082 H 
BRANCH  12  15
ATOM     15  C3  MOL d         -29.826  38.722  34.166  0.00  0.00    -0.032 A 
ATOM     16  C2  MOL d         -29.396  38.250  32.913  0.00  0.00    -0.075 A 
ATOM     17  C1  MOL d         -28.759  36.979  32.842  0.00  0.00    -0.080 A 
ATOM     18  H2  MOL d         -29.548  38.843  32.019  0.00  0.00     0.084 H 
ATOM     19  C6  MOL d         -28.588  36.200  34.021  0.00  0.00    -0.058 A 
ATOM     20  H1  MOL d         -28.402  36.604  31.889  0.00  0.00     0.083 H 
ATOM     21  C5  MOL d         -29.043  36.693  35.258  0.00  0.00     0.026 A 
ATOM     22  H4  MOL d         -28.109  35.229  33.965  0.00  0.00     0.086 H 
ATOM     23  C4  MOL d         -29.652  37.952  35.329  0.00  0.00    -0.050 A 
ATOM     24  H3  MOL d         -29.990  38.335  36.286  0.00  0.00     0.087 H 
BRANCH  21  25
ATOM     25  N11 MOL d         -28.905  35.966  36.390  0.00  0.00    -0.399 N 
ATOM     26  H7  MOL d         -28.082  36.103  36.994  0.00  0.00     0.156 HD
ATOM     27  H8  MOL d         -29.624  35.275  36.649  0.00  0.00     0.156 HD
ENDBRANCH  21  25
ENDBRANCH  12  15
ENDBRANCH  11  12
ENDBRANCH   8  11
ENDBRANCH   5   7
BRANCH   5  28
ATOM     28  CB  MOL d         -27.604  41.646  31.063  0.00  0.00    -0.014 C 
ATOM     29  H11 MOL d         -27.300  42.209  30.167  0.00  0.00     0.043 H 
ATOM     30  H12 MOL d         -28.475  41.019  30.823  0.00  0.00     0.043 H 
BRANCH  28  31
ATOM     31  CG  MOL d         -26.450  40.743  31.489  0.00  0.00    -0.056 A 
ATOM     32  CD2 MOL d         -25.431  41.209  32.359  0.00  0.00    -0.074 A 
ATOM     33  CE2 MOL d         -24.375  40.353  32.758  0.00  0.00    -0.050 A 
ATOM     34  H14 MOL d         -25.461  42.231  32.721  0.00  0.00     0.084 H 
ATOM     35  CZ  MOL d         -24.419  39.019  32.251  0.00  0.00     0.082 A 
ATOM     36  H16 MOL d         -23.580  40.692  33.411  0.00  0.00     0.087 H 
ATOM     37  CE1 MOL d         -25.416  38.541  31.401  0.00  0.00    -0.050 A 
ATOM     38  CD1 MOL d         -26.429  39.404  31.019  0.00  0.00    -0.074 A 
ATOM     39  H15 MOL d         -25.399  37.516  31.047  0.00  0.00     0.087 H 
ATOM     40  H13 MOL d         -27.211  39.055  30.354  0.00  0.00     0.084 H 
BRANCH  35  41
ATOM     41  OH  MOL d         -23.397  38.130  32.621  0.00  0.00    -0.240 OA
BRANCH  41  42
ATOM     42  P   MOL d         -23.463  37.037  33.679  0.00  0.00     0.427 P 
ATOM     43  O3P MOL d         -24.890  36.426  33.667  0.00  0.00    -0.617 OA
ATOM     44  O2P MOL d         -22.462  35.998  33.502  0.00  0.00    -0.617 OA
ATOM     45  O1P MOL d         -23.258  37.688  34.950  0.00  0.00    -0.617 OA
ENDBRANCH  41  42
ENDBRANCH  35  41
ENDBRANCH  28  31
ENDBRANCH   5  28
ENDBRANCH   1   5
BRANCH   3  46
ATOM     46  CA  MOL d         -28.999  46.111  31.490  0.00  0.00     0.114 C 
BRANCH  46  47
ATOM     47  CB  MOL d         -30.242  46.199  32.446  0.00  0.00    -0.009 C 
ATOM     48  H21 MOL d         -30.547  45.173  32.701  0.00  0.00     0.044 H 
ATOM     49  H22 MOL d         -31.055  46.697  31.897  0.00  0.00     0.044 H 
BRANCH  47  50
ATOM     50  CG  MOL d         -30.018  46.964  33.755  0.00  0.00    -0.055 A 
ATOM     51  CD2 MOL d         -29.326  46.355  34.808  0.00  0.00    -0.074 A 
ATOM     52  CE2 MOL d         -29.081  47.027  36.036  0.00  0.00    -0.050 A 
ATOM     53  H24 MOL d         -28.965  45.340  34.683  0.00  0.00     0.084 H 
ATOM     54  CZ  MOL d         -29.574  48.334  36.130  0.00  0.00     0.082 A 
ATOM     55  H26 MOL d         -28.544  46.555  36.851  0.00  0.00     0.087 H 
ATOM     56  CE1 MOL d         -30.269  48.975  35.087  0.00  0.00    -0.050 A 
ATOM     57  CD1 MOL d         -30.498  48.291  33.892  0.00  0.00    -0.074 A 
ATOM     58  H25 MOL d         -30.625  49.992  35.210  0.00  0.00     0.087 H 
ATOM     59  H23 MOL d         -31.034  48.767  33.080  0.00  0.00     0.084 H 
BRANCH  54  60
ATOM     60  OH  MOL d         -29.337  48.999  37.349  0.00  0.00    -0.240 OA
BRANCH  60  61
ATOM     61  P   MOL d         -28.497  50.427  37.393  0.00  0.00     0.427 P 
ATOM     62  O3P MOL d         -28.797  51.159  38.657  0.00  0.00    -0.617 OA
ATOM     63  O2P MOL d         -27.044  50.135  37.363  0.00  0.00    -0.617 OA
ATOM     64  O1P MOL d         -28.992  51.195  36.236  0.00  0.00    -0.617 OA
ENDBRANCH  60  61
ENDBRANCH  54  60
ENDBRANCH  47  50
ENDBRANCH  46  47
BRANCH  46  65
ATOM     65  C   MOL d         -28.128  47.360  31.775  0.00  0.00     0.246 C 
ATOM     66  O   MOL d         -28.514  48.495  31.431  0.00  0.00    -0.271 OA
ATOM     67  N   MOL d         -26.946  47.182  32.336  0.00  0.00    -0.344 N 
ATOM     68  H27 MOL d         -26.636  46.263  32.580  0.00  0.00     0.163 HD
BRANCH  67  69
ATOM     69  CA  MOL d         -26.107  48.332  32.591  0.00  0.00     0.104 C 
ATOM     70  H28 MOL d         -25.052  48.030  32.507  0.00  0.00     0.090 H 
BRANCH  69  71
ATOM     71  C   MOL d         -26.379  48.841  34.007  0.00  0.00     0.197 C 
ATOM     72  OXT MOL d         -26.946  49.928  34.102  0.00  0.00    -0.646 OA
ATOM     73  O   MOL d         -26.019  48.178  35.030  0.00  0.00    -0.646 OA
ENDBRANCH  69  71
BRANCH  69  74
ATOM     74  CB  MOL d         -26.385  49.477  31.578  0.00  0.00     0.037 C 
ATOM     75  H29 MOL d         -26.379  50.434  32.120  0.00  0.00     0.051 H 
ATOM     76  H30 MOL d         -27.378  49.316  31.131  0.00  0.00     0.051 H 
BRANCH  74  77
ATOM     77  CG  MOL d         -25.319  49.550  30.419  0.00  0.00     0.217 C 
ATOM     78  OD1 MOL d         -25.597  49.223  29.304  0.00  0.00    -0.274 OA
ATOM     79  ND2 MOL d         -24.121  49.950  30.744  0.00  0.00    -0.370 N 
ATOM     80  H31 MOL d         -23.409  50.013  30.045  0.00  0.00     0.159 HD
ATOM     81  H32 MOL d         -23.915  50.193  31.692  0.00  0.00     0.159 HD
ENDBRANCH  74  77
ENDBRANCH  69  74
ENDBRANCH  67  69
ENDBRANCH  46  65
BRANCH  46  82
ATOM     82  CH3 MOL d         -29.661  45.927  30.097  0.00  0.00    -0.044 C 
ATOM     83  H18 MOL d         -28.931  46.162  29.310  0.00  0.00     0.031 H 
ATOM     84  H19 MOL d         -30.525  46.603  30.010  0.00  0.00     0.031 H 
ATOM     85  H20 MOL d         -29.998  44.886  29.986  0.00  0.00     0.031 H 
ENDBRANCH  46  82
ENDBRANCH   3  46
TORSDOF 21
ENDMDL
MODEL 6
REMARK VINA RESULT:      -5.0      3.612      8.244
REMARK  21 active torsions:
REMARK  status: ('A' for Active; 'I' for Inactive)
REMARK    1  A    between atoms: C12_6  and  C3_3 
REMARK    2  A    between atoms: O13_7  and  C12_6 
REMARK    3  A    between atoms: C16_8  and  O13_7 
REMARK    4  A    between atoms: C5_11  and  N11_10 
REMARK    5  A    between atoms: CA_13  and  N_12 
REMARK    6  A    between atoms: CA_13  and  CB_16 
REMARK    7  A    between atoms: C_14  and  CA_13 
REMARK       I    between atoms: N_28  and  C_14 
REMARK    8  A    between atoms: CB_16  and  CG_17 
REMARK    9  A    between atoms: CZ_22  and  OH_23 
REMARK   10  A    between atoms: OH_23  and  P_24 
REMARK   11  A    between atoms: CA_29  and  N_28 
REMARK   12  A    between atoms: CA_29  and  CB_33 
REMARK   13  A    between atoms: C_31  and  CA_29 
REMARK   14  A    between atoms: CA_29  and  CH3_30 
REMARK       I    between atoms: C_31  and  N_45 
REMARK   15  A    between atoms: CB_33  and  CG_34 
REMARK   16  A    between atoms: CZ_39  and  OH_40 
REMARK   17  A    between atoms: OH_40  and  P_41 
REMARK   18  A    between atoms: N_45  and  CA_46 
REMARK   19  A    between atoms: CA_46  and  C_47 
REMARK   20  A    between atoms: CA_46  and  CB_49 
REMARK   21  A    between atoms: CB_49  and  CG_50 
REMARK       I    between atoms: CG_50  and  ND2_52 
ROOT
ATOM      1  C   MOL d         -29.897  44.951  32.329  0.00  0.00     0.241 C 
ATOM      2  O   MOL d         -30.684  45.217  31.383  0.00  0.00    -0.271 OA
ATOM      3  N   MOL d         -29.627  45.728  33.335  0.00  0.00    -0.341 N 
ATOM      4  H17 MOL d         -29.044  45.386  34.071  0.00  0.00     0.163 HD
ENDROOT
BRANCH   1   5
ATOM      5  CA  MOL d         -29.268  43.614  32.544  0.00  0.00     0.094 C 
ATOM      6  H10 MOL d         -28.769  43.529  33.521  0.00  0.00     0.088 H 
BRANCH   5   7
ATOM      7  N   MOL d         -30.390  42.759  32.455  0.00  0.00    -0.335 N 
ATOM      8  C16 MOL d         -30.847  41.948  33.381  0.00  0.00     0.292 C 
ATOM      9  O18 MOL d         -30.728  42.294  34.707  0.00  0.00    -0.143 OA
ATOM     10  H9  MOL d         -30.893  42.774  31.591  0.00  0.00     0.164 HD
BRANCH   8  11
ATOM     11  O13 MOL d         -31.789  41.184  32.905  0.00  0.00    -0.310 OA
BRANCH  11  12
ATOM     12  C12 MOL d         -31.680  39.987  32.118  0.00  0.00     0.053 C 
ATOM     13  H5  MOL d         -32.600  39.413  32.302  0.00  0.00     0.082 H 
ATOM     14  H6  MOL d         -31.653  40.311  31.067  0.00  0.00     0.082 H 
BRANCH  12  15
ATOM     15  C3  MOL d         -30.555  39.033  32.287  0.00  0.00    -0.032 A 
ATOM     16  C2  MOL d         -29.799  38.561  31.199  0.00  0.00    -0.075 A 
ATOM     17  C1  MOL d         -28.717  37.669  31.453  0.00  0.00    -0.080 A 
ATOM     18  H2  MOL d         -30.036  38.868  30.188  0.00  0.00     0.084 H 
ATOM     19  C6  MOL d         -28.433  37.254  32.784  0.00  0.00    -0.058 A 
ATOM     20  H1  MOL d         -28.109  37.308  30.631  0.00  0.00     0.083 H 
ATOM     21  C5  MOL d         -29.217  37.733  33.850  0.00  0.00     0.026 A 
ATOM     22  H4  MOL d         -27.613  36.570  32.976  0.00  0.00     0.086 H 
ATOM     23  C4  MOL d         -30.268  38.625  33.601  0.00  0.00    -0.050 A 
ATOM     24  H3  MOL d         -30.863  39.002  34.426  0.00  0.00     0.087 H 
BRANCH  21  25
ATOM     25  N11 MOL d         -28.975  37.343  35.122  0.00  0.00    -0.399 N 
ATOM     26  H7  MOL d         -29.759  37.205  35.776  0.00  0.00     0.156 HD
ATOM     27  H8  MOL d         -28.008  37.182  35.437  0.00  0.00     0.156 HD
ENDBRANCH  21  25
ENDBRANCH  12  15
ENDBRANCH  11  12
ENDBRANCH   8  11
ENDBRANCH   5   7
BRANCH   5  28
ATOM     28  CB  MOL d         -28.246  43.397  31.390  0.00  0.00    -0.014 C 
ATOM     29  H11 MOL d         -27.891  44.378  31.042  0.00  0.00     0.043 H 
ATOM     30  H12 MOL d         -28.751  42.876  30.563  0.00  0.00     0.043 H 
BRANCH  28  31
ATOM     31  CG  MOL d         -27.044  42.567  31.832  0.00  0.00    -0.056 A 
ATOM     32  CD2 MOL d         -26.085  43.085  32.740  0.00  0.00    -0.074 A 
ATOM     33  CE2 MOL d         -24.983  42.297  33.153  0.00  0.00    -0.050 A 
ATOM     34  H14 MOL d         -26.197  44.093  33.122  0.00  0.00     0.084 H 
ATOM     35  CZ  MOL d         -24.917  40.975  32.618  0.00  0.00     0.082 A 
ATOM     36  H16 MOL d         -24.232  42.676  33.836  0.00  0.00     0.087 H 
ATOM     37  CE1 MOL d         -25.854  40.446  31.729  0.00  0.00    -0.050 A 
ATOM     38  CD1 MOL d         -26.914  41.244  31.335  0.00  0.00    -0.074 A 
ATOM     39  H15 MOL d         -25.754  39.433  31.356  0.00  0.00     0.087 H 
ATOM     40  H13 MOL d         -27.651  40.856  30.641  0.00  0.00     0.084 H 
BRANCH  35  41
ATOM     41  OH  MOL d         -23.845  40.152  33.000  0.00  0.00    -0.240 OA
BRANCH  41  42
ATOM     42  P   MOL d         -23.865  38.642  33.195  0.00  0.00     0.427 P 
ATOM     43  O3P MOL d         -23.218  37.975  31.952  0.00  0.00    -0.617 OA
ATOM     44  O2P MOL d         -23.200  38.207  34.412  0.00  0.00    -0.617 OA
ATOM     45  O1P MOL d         -25.255  38.257  33.246  0.00  0.00    -0.617 OA
ENDBRANCH  41  42
ENDBRANCH  35  41
ENDBRANCH  28  31
ENDBRANCH   5  28
ENDBRANCH   1   5
BRANCH   3  46
ATOM     46  CA  MOL d         -30.142  47.059  33.417  0.00  0.00     0.114 C 
BRANCH  46  47
ATOM     47  CB  MOL d         -29.826  47.439  34.908  0.00  0.00    -0.009 C 
ATOM     48  H21 MOL d         -29.179  46.654  35.328  0.00  0.00     0.044 H 
ATOM     49  H22 MOL d         -30.777  47.465  35.460  0.00  0.00     0.044 H 
BRANCH  47  50
ATOM     50  CG  MOL d         -29.125  48.787  35.114  0.00  0.00    -0.055 A 
ATOM     51  CD2 MOL d         -27.735  48.878  34.973  0.00  0.00    -0.074 A 
ATOM     52  CE2 MOL d         -27.041  50.106  35.140  0.00  0.00    -0.050 A 
ATOM     53  H24 MOL d         -27.172  47.985  34.729  0.00  0.00     0.084 H 
ATOM     54  CZ  MOL d         -27.829  51.221  35.455  0.00  0.00     0.082 A 
ATOM     55  H26 MOL d         -25.964  50.177  35.031  0.00  0.00     0.087 H 
ATOM     56  CE1 MOL d         -29.229  51.161  35.598  0.00  0.00    -0.050 A 
ATOM     57  CD1 MOL d         -29.886  49.941  35.430  0.00  0.00    -0.074 A 
ATOM     58  H25 MOL d         -29.793  52.056  35.836  0.00  0.00     0.087 H 
ATOM     59  H23 MOL d         -30.962  49.876  35.540  0.00  0.00     0.084 H 
BRANCH  54  60
ATOM     60  OH  MOL d         -27.142  52.438  35.627  0.00  0.00    -0.240 OA
BRANCH  60  61
ATOM     61  P   MOL d         -27.854  53.718  36.402  0.00  0.00     0.427 P 
ATOM     62  O3P MOL d         -27.594  54.980  35.651  0.00  0.00    -0.617 OA
ATOM     63  O2P MOL d         -29.320  53.502  36.447  0.00  0.00    -0.617 OA
ATOM     64  O1P MOL d         -27.202  53.773  37.723  0.00  0.00    -0.617 OA
ENDBRANCH  60  61
ENDBRANCH  54  60
ENDBRANCH  47  50
ENDBRANCH  46  47
BRANCH  46  65
ATOM     65  C   MOL d         -29.362  48.060  32.527  0.00  0.00     0.246 C 
ATOM     66  O   MOL d         -29.828  49.191  32.286  0.00  0.00    -0.271 OA
ATOM     67  N   MOL d         -28.227  47.659  31.987  0.00  0.00    -0.344 N 
ATOM     68  H27 MOL d         -27.879  46.738  32.165  0.00  0.00     0.163 HD
BRANCH  67  69
ATOM     69  CA  MOL d         -27.493  48.569  31.135  0.00  0.00     0.104 C 
ATOM     70  H28 MOL d         -27.775  49.602  31.387  0.00  0.00     0.090 H 
BRANCH  69  71
ATOM     71  C   MOL d         -27.854  48.284  29.676  0.00  0.00     0.197 C 
ATOM     72  OXT MOL d         -28.496  49.152  29.089  0.00  0.00    -0.646 OA
ATOM     73  O   MOL d         -27.519  47.195  29.111  0.00  0.00    -0.646 OA
ENDBRANCH  69  71
BRANCH  69  74
ATOM     74  CB  MOL d         -25.957  48.408  31.317  0.00  0.00     0.037 C 
ATOM     75  H29 MOL d         -25.663  47.416  30.944  0.00  0.00     0.051 H 
ATOM     76  H30 MOL d         -25.723  48.481  32.389  0.00  0.00     0.051 H 
BRANCH  74  77
ATOM     77  CG  MOL d         -25.126  49.502  30.544  0.00  0.00     0.217 C 
ATOM     78  OD1 MOL d         -24.210  50.063  31.067  0.00  0.00    -0.274 OA
ATOM     79  ND2 MOL d         -25.507  49.784  29.329  0.00  0.00    -0.370 N 
ATOM     80  H31 MOL d         -25.012  50.471  28.797  0.00  0.00     0.159 HD
ATOM     81  H32 MOL d         -26.294  49.313  28.930  0.00  0.00     0.159 HD
ENDBRANCH  74  77
ENDBRANCH  69  74
ENDBRANCH  67  69
ENDBRANCH  46  65
BRANCH  46  82
ATOM     82  CH3 MOL d         -31.695  47.050  33.398  0.00  0.00    -0.044 C 
ATOM     83  H18 MOL d         -32.049  47.131  32.360  0.00  0.00     0.031 H 
ATOM     84  H19 MOL d         -32.074  47.901  33.983  0.00  0.00     0.031 H 
ATOM     85  H20 MOL d         -32.061  46.111  33.838  0.00  0.00     0.031 H 
ENDBRANCH  46  82
ENDBRANCH   3  46
TORSDOF 21
ENDMDL
MODEL 7
REMARK VINA RESULT:      -5.0      3.396      7.863
REMARK  21 active torsions:
REMARK  status: ('A' for Active; 'I' for Inactive)
REMARK    1  A    between atoms: C12_6  and  C3_3 
REMARK    2  A    between atoms: O13_7  and  C12_6 
REMARK    3  A    between atoms: C16_8  and  O13_7 
REMARK    4  A    between atoms: C5_11  and  N11_10 
REMARK    5  A    between atoms: CA_13  and  N_12 
REMARK    6  A    between atoms: CA_13  and  CB_16 
REMARK    7  A    between atoms: C_14  and  CA_13 
REMARK       I    between atoms: N_28  and  C_14 
REMARK    8  A    between atoms: CB_16  and  CG_17 
REMARK    9  A    between atoms: CZ_22  and  OH_23 
REMARK   10  A    between atoms: OH_23  and  P_24 
REMARK   11  A    between atoms: CA_29  and  N_28 
REMARK   12  A    between atoms: CA_29  and  CB_33 
REMARK   13  A    between atoms: C_31  and  CA_29 
REMARK   14  A    between atoms: CA_29  and  CH3_30 
REMARK       I    between atoms: C_31  and  N_45 
REMARK   15  A    between atoms: CB_33  and  CG_34 
REMARK   16  A    between atoms: CZ_39  and  OH_40 
REMARK   17  A    between atoms: OH_40  and  P_41 
REMARK   18  A    between atoms: N_45  and  CA_46 
REMARK   19  A    between atoms: CA_46  and  C_47 
REMARK   20  A    between atoms: CA_46  and  CB_49 
REMARK   21  A    between atoms: CB_49  and  CG_50 
REMARK       I    between atoms: CG_50  and  ND2_52 
ROOT
ATOM      1  C   MOL d         -29.766  43.839  31.445  0.00  0.00     0.241 C 
ATOM      2  O   MOL d         -30.693  43.673  30.608  0.00  0.00    -0.271 OA
ATOM      3  N   MOL d         -29.505  44.941  32.082  0.00  0.00    -0.341 N 
ATOM      4  H17 MOL d         -28.791  44.941  32.781  0.00  0.00     0.163 HD
ENDROOT
BRANCH   1   5
ATOM      5  CA  MOL d         -28.912  42.736  31.978  0.00  0.00     0.094 C 
ATOM      6  H10 MOL d         -28.168  43.087  32.707  0.00  0.00     0.088 H 
BRANCH   5   7
ATOM      7  N   MOL d         -29.879  41.900  32.581  0.00  0.00    -0.335 N 
ATOM      8  C16 MOL d         -29.678  40.994  33.510  0.00  0.00     0.292 C 
ATOM      9  O18 MOL d         -28.695  41.192  34.452  0.00  0.00    -0.143 OA
ATOM     10  H9  MOL d         -30.822  42.011  32.266  0.00  0.00     0.164 HD
BRANCH   8  11
ATOM     11  O13 MOL d         -30.756  40.290  33.712  0.00  0.00    -0.310 OA
BRANCH  11  12
ATOM     12  C12 MOL d         -30.947  38.870  33.610  0.00  0.00     0.053 C 
ATOM     13  H5  MOL d         -30.768  38.462  34.616  0.00  0.00     0.082 H 
ATOM     14  H6  MOL d         -32.003  38.720  33.336  0.00  0.00     0.082 H 
BRANCH  12  15
ATOM     15  C3  MOL d         -30.153  38.033  32.675  0.00  0.00    -0.032 A 
ATOM     16  C2  MOL d         -30.327  38.091  31.281  0.00  0.00    -0.075 A 
ATOM     17  C1  MOL d         -29.503  37.276  30.454  0.00  0.00    -0.080 A 
ATOM     18  H2  MOL d         -31.074  38.744  30.845  0.00  0.00     0.084 H 
ATOM     19  C6  MOL d         -28.543  36.405  31.041  0.00  0.00    -0.058 A 
ATOM     20  H1  MOL d         -29.607  37.319  29.375  0.00  0.00     0.083 H 
ATOM     21  C5  MOL d         -28.403  36.358  32.441  0.00  0.00     0.026 A 
ATOM     22  H4  MOL d         -27.921  35.779  30.412  0.00  0.00     0.086 H 
ATOM     23  C4  MOL d         -29.201  37.176  33.252  0.00  0.00    -0.050 A 
ATOM     24  H3  MOL d         -29.083  37.147  34.330  0.00  0.00     0.087 H 
BRANCH  21  25
ATOM     25  N11 MOL d         -27.508  35.529  33.024  0.00  0.00    -0.399 N 
ATOM     26  H7  MOL d         -26.521  35.550  32.733  0.00  0.00     0.156 HD
ATOM     27  H8  MOL d         -27.814  34.876  33.760  0.00  0.00     0.156 HD
ENDBRANCH  21  25
ENDBRANCH  12  15
ENDBRANCH  11  12
ENDBRANCH   8  11
ENDBRANCH   5   7
BRANCH   5  28
ATOM     28  CB  MOL d         -28.209  42.070  30.759  0.00  0.00    -0.014 C 
ATOM     29  H11 MOL d         -27.838  42.860  30.089  0.00  0.00     0.043 H 
ATOM     30  H12 MOL d         -28.943  41.450  30.222  0.00  0.00     0.043 H 
BRANCH  28  31
ATOM     31  CG  MOL d         -27.036  41.190  31.178  0.00  0.00    -0.056 A 
ATOM     32  CD2 MOL d         -26.079  41.639  32.125  0.00  0.00    -0.074 A 
ATOM     33  CE2 MOL d         -25.004  40.804  32.516  0.00  0.00    -0.050 A 
ATOM     34  H14 MOL d         -26.172  42.631  32.553  0.00  0.00     0.084 H 
ATOM     35  CZ  MOL d         -24.963  39.507  31.920  0.00  0.00     0.082 A 
ATOM     36  H16 MOL d         -24.256  41.131  33.228  0.00  0.00     0.087 H 
ATOM     37  CE1 MOL d         -25.898  39.046  30.993  0.00  0.00    -0.050 A 
ATOM     38  CD1 MOL d         -26.931  39.889  30.621  0.00  0.00    -0.074 A 
ATOM     39  H15 MOL d         -25.818  38.050  30.573  0.00  0.00     0.087 H 
ATOM     40  H13 MOL d         -27.667  39.553  29.898  0.00  0.00     0.084 H 
BRANCH  35  41
ATOM     41  OH  MOL d         -23.919  38.639  32.279  0.00  0.00    -0.240 OA
BRANCH  41  42
ATOM     42  P   MOL d         -23.862  37.714  33.486  0.00  0.00     0.427 P 
ATOM     43  O3P MOL d         -23.735  38.582  34.767  0.00  0.00    -0.617 OA
ATOM     44  O2P MOL d         -25.004  36.821  33.586  0.00  0.00    -0.617 OA
ATOM     45  O1P MOL d         -22.656  36.935  33.344  0.00  0.00    -0.617 OA
ENDBRANCH  41  42
ENDBRANCH  35  41
ENDBRANCH  28  31
ENDBRANCH   5  28
ENDBRANCH   1   5
BRANCH   3  46
ATOM     46  CA  MOL d         -30.211  46.154  31.809  0.00  0.00     0.114 C 
BRANCH  46  47
ATOM     47  CB  MOL d         -30.980  46.393  33.157  0.00  0.00    -0.009 C 
ATOM     48  H21 MOL d         -31.105  45.420  33.654  0.00  0.00     0.044 H 
ATOM     49  H22 MOL d         -31.968  46.811  32.913  0.00  0.00     0.044 H 
BRANCH  47  50
ATOM     50  CG  MOL d         -30.299  47.344  34.149  0.00  0.00    -0.055 A 
ATOM     51  CD2 MOL d         -30.774  48.652  34.299  0.00  0.00    -0.074 A 
ATOM     52  CE2 MOL d         -30.186  49.566  35.214  0.00  0.00    -0.050 A 
ATOM     53  H24 MOL d         -31.616  48.977  33.699  0.00  0.00     0.084 H 
ATOM     54  CZ  MOL d         -29.102  49.081  35.957  0.00  0.00     0.082 A 
ATOM     55  H26 MOL d         -30.554  50.579  35.330  0.00  0.00     0.087 H 
ATOM     56  CE1 MOL d         -28.605  47.769  35.832  0.00  0.00    -0.050 A 
ATOM     57  CD1 MOL d         -29.200  46.892  34.923  0.00  0.00    -0.074 A 
ATOM     58  H25 MOL d         -27.766  47.443  36.437  0.00  0.00     0.087 H 
ATOM     59  H23 MOL d         -28.829  45.881  34.812  0.00  0.00     0.084 H 
BRANCH  54  60
ATOM     60  OH  MOL d         -28.514  49.988  36.860  0.00  0.00    -0.240 OA
BRANCH  60  61
ATOM     61  P   MOL d         -27.689  51.319  36.317  0.00  0.00     0.427 P 
ATOM     62  O3P MOL d         -28.598  52.199  35.528  0.00  0.00    -0.617 OA
ATOM     63  O2P MOL d         -27.195  52.091  37.482  0.00  0.00    -0.617 OA
ATOM     64  O1P MOL d         -26.629  50.778  35.446  0.00  0.00    -0.617 OA
ENDBRANCH  60  61
ENDBRANCH  54  60
ENDBRANCH  47  50
ENDBRANCH  46  47
BRANCH  46  65
ATOM     65  C   MOL d         -29.266  47.366  31.613  0.00  0.00     0.246 C 
ATOM     66  O   MOL d         -28.090  47.327  32.025  0.00  0.00    -0.271 OA
ATOM     67  N   MOL d         -29.758  48.456  31.054  0.00  0.00    -0.344 N 
ATOM     68  H27 MOL d         -30.712  48.485  30.755  0.00  0.00     0.163 HD
BRANCH  67  69
ATOM     69  CA  MOL d         -28.900  49.608  30.881  0.00  0.00     0.104 C 
ATOM     70  H28 MOL d         -28.060  49.537  31.589  0.00  0.00     0.090 H 
BRANCH  69  71
ATOM     71  C   MOL d         -29.705  50.875  31.172  0.00  0.00     0.197 C 
ATOM     72  OXT MOL d         -29.631  51.325  32.313  0.00  0.00    -0.646 OA
ATOM     73  O   MOL d         -30.426  51.421  30.278  0.00  0.00    -0.646 OA
ENDBRANCH  69  71
BRANCH  69  74
ATOM     74  CB  MOL d         -28.335  49.686  29.435  0.00  0.00     0.037 C 
ATOM     75  H29 MOL d         -28.271  50.744  29.142  0.00  0.00     0.051 H 
ATOM     76  H30 MOL d         -29.026  49.159  28.761  0.00  0.00     0.051 H 
BRANCH  74  77
ATOM     77  CG  MOL d         -26.904  49.038  29.295  0.00  0.00     0.217 C 
ATOM     78  OD1 MOL d         -26.719  48.102  28.577  0.00  0.00    -0.274 OA
ATOM     79  ND2 MOL d         -25.951  49.551  30.023  0.00  0.00    -0.370 N 
ATOM     80  H31 MOL d         -25.026  49.176  29.970  0.00  0.00     0.159 HD
ATOM     81  H32 MOL d         -26.146  50.319  30.633  0.00  0.00     0.159 HD
ENDBRANCH  74  77
ENDBRANCH  69  74
ENDBRANCH  67  69
ENDBRANCH  46  65
BRANCH  46  82
ATOM     82  CH3 MOL d         -31.369  45.902  30.805  0.00  0.00    -0.044 C 
ATOM     83  H18 MOL d         -31.551  44.821  30.719  0.00  0.00     0.031 H 
ATOM     84  H19 MOL d         -31.096  46.308  29.820  0.00  0.00     0.031 H 
ATOM     85  H20 MOL d         -32.282  46.399  31.167  0.00  0.00     0.031 H 
ENDBRANCH  46  82
ENDBRANCH   3  46
TORSDOF 21
ENDMDL
MODEL 8
REMARK VINA RESULT:      -4.8      2.789      6.396
REMARK  21 active torsions:
REMARK  status: ('A' for Active; 'I' for Inactive)
REMARK    1  A    between atoms: C12_6  and  C3_3 
REMARK    2  A    between atoms: O13_7  and  C12_6 
REMARK    3  A    between atoms: C16_8  and  O13_7 
REMARK    4  A    between atoms: C5_11  and  N11_10 
REMARK    5  A    between atoms: CA_13  and  N_12 
REMARK    6  A    between atoms: CA_13  and  CB_16 
REMARK    7  A    between atoms: C_14  and  CA_13 
REMARK       I    between atoms: N_28  and  C_14 
REMARK    8  A    between atoms: CB_16  and  CG_17 
REMARK    9  A    between atoms: CZ_22  and  OH_23 
REMARK   10  A    between atoms: OH_23  and  P_24 
REMARK   11  A    between atoms: CA_29  and  N_28 
REMARK   12  A    between atoms: CA_29  and  CB_33 
REMARK   13  A    between atoms: C_31  and  CA_29 
REMARK   14  A    between atoms: CA_29  and  CH3_30 
REMARK       I    between atoms: C_31  and  N_45 
REMARK   15  A    between atoms: CB_33  and  CG_34 
REMARK   16  A    between atoms: CZ_39  and  OH_40 
REMARK   17  A    between atoms: OH_40  and  P_41 
REMARK   18  A    between atoms: N_45  and  CA_46 
REMARK   19  A    between atoms: CA_46  and  C_47 
REMARK   20  A    between atoms: CA_46  and  CB_49 
REMARK   21  A    between atoms: CB_49  and  CG_50 
REMARK       I    between atoms: CG_50  and  ND2_52 
ROOT
ATOM      1  C   MOL d         -30.709  45.464  34.219  0.00  0.00     0.241 C 
ATOM      2  O   MOL d         -30.977  44.722  33.237  0.00  0.00    -0.271 OA
ATOM      3  N   MOL d         -30.188  45.077  35.345  0.00  0.00    -0.341 N 
ATOM      4  H17 MOL d         -29.947  45.763  36.030  0.00  0.00     0.163 HD
ENDROOT
BRANCH   1   5
ATOM      5  CA  MOL d         -30.788  46.955  34.188  0.00  0.00     0.094 C 
ATOM      6  H10 MOL d         -31.567  47.355  34.853  0.00  0.00     0.088 H 
BRANCH   5   7
ATOM      7  N   MOL d         -29.493  47.313  34.628  0.00  0.00    -0.335 N 
ATOM      8  C16 MOL d         -29.183  48.042  35.674  0.00  0.00     0.292 C 
ATOM      9  O18 MOL d         -29.972  47.989  36.799  0.00  0.00    -0.143 OA
ATOM     10  H9  MOL d         -28.728  46.972  34.082  0.00  0.00     0.164 HD
BRANCH   8  11
ATOM     11  O13 MOL d         -27.908  48.318  35.686  0.00  0.00    -0.310 OA
BRANCH  11  12
ATOM     12  C12 MOL d         -27.130  48.977  36.698  0.00  0.00     0.053 C 
ATOM     13  H5  MOL d         -27.271  48.397  37.621  0.00  0.00     0.082 H 
ATOM     14  H6  MOL d         -26.080  48.903  36.375  0.00  0.00     0.082 H 
BRANCH  12  15
ATOM     15  C3  MOL d         -27.353  50.399  37.062  0.00  0.00    -0.032 A 
ATOM     16  C2  MOL d         -28.159  50.779  38.150  0.00  0.00    -0.075 A 
ATOM     17  C1  MOL d         -28.297  52.165  38.449  0.00  0.00    -0.080 A 
ATOM     18  H2  MOL d         -28.666  50.031  38.749  0.00  0.00     0.084 H 
ATOM     19  C6  MOL d         -27.646  53.137  37.639  0.00  0.00    -0.058 A 
ATOM     20  H1  MOL d         -28.898  52.479  39.295  0.00  0.00     0.083 H 
ATOM     21  C5  MOL d         -26.858  52.725  36.548  0.00  0.00     0.026 A 
ATOM     22  H4  MOL d         -27.756  54.192  37.862  0.00  0.00     0.086 H 
ATOM     23  C4  MOL d         -26.707  51.361  36.267  0.00  0.00    -0.050 A 
ATOM     24  H3  MOL d         -26.089  51.047  35.433  0.00  0.00     0.087 H 
BRANCH  21  25
ATOM     25  N11 MOL d         -26.240  53.630  35.755  0.00  0.00    -0.399 N 
ATOM     26  H7  MOL d         -25.529  54.262  36.151  0.00  0.00     0.156 HD
ATOM     27  H8  MOL d         -26.480  53.688  34.755  0.00  0.00     0.156 HD
ENDBRANCH  21  25
ENDBRANCH  12  15
ENDBRANCH  11  12
ENDBRANCH   8  11
ENDBRANCH   5   7
BRANCH   5  28
ATOM     28  CB  MOL d         -31.064  47.369  32.713  0.00  0.00    -0.014 C 
ATOM     29  H11 MOL d         -31.706  48.263  32.710  0.00  0.00     0.043 H 
ATOM     30  H12 MOL d         -31.583  46.543  32.204  0.00  0.00     0.043 H 
BRANCH  28  31
ATOM     31  CG  MOL d         -29.779  47.685  31.952  0.00  0.00    -0.056 A 
ATOM     32  CD2 MOL d         -29.142  46.708  31.145  0.00  0.00    -0.074 A 
ATOM     33  CE2 MOL d         -27.959  47.021  30.432  0.00  0.00    -0.050 A 
ATOM     34  H14 MOL d         -29.565  45.712  31.073  0.00  0.00     0.084 H 
ATOM     35  CZ  MOL d         -27.476  48.358  30.566  0.00  0.00     0.082 A 
ATOM     36  H16 MOL d         -27.448  46.287  29.819  0.00  0.00     0.087 H 
ATOM     37  CE1 MOL d         -28.093  49.334  31.349  0.00  0.00    -0.050 A 
ATOM     38  CD1 MOL d         -29.242  48.995  32.044  0.00  0.00    -0.074 A 
ATOM     39  H15 MOL d         -27.682  50.335  31.413  0.00  0.00     0.087 H 
ATOM     40  H13 MOL d         -29.735  49.736  32.663  0.00  0.00     0.084 H 
BRANCH  35  41
ATOM     41  OH  MOL d         -26.309  48.720  29.875  0.00  0.00    -0.240 OA
BRANCH  41  42
ATOM     42  P   MOL d         -24.870  48.552  30.343  0.00  0.00     0.427 P 
ATOM     43  O3P MOL d         -24.031  47.985  29.167  0.00  0.00    -0.617 OA
ATOM     44  O2P MOL d         -24.278  49.781  30.847  0.00  0.00    -0.617 OA
ATOM     45  O1P MOL d         -24.898  47.568  31.397  0.00  0.00    -0.617 OA
ENDBRANCH  41  42
ENDBRANCH  35  41
ENDBRANCH  28  31
ENDBRANCH   5  28
ENDBRANCH   1   5
BRANCH   3  46
ATOM     46  CA  MOL d         -29.951  43.696  35.629  0.00  0.00     0.114 C 
BRANCH  46  47
ATOM     47  CB  MOL d         -31.093  42.994  34.811  0.00  0.00    -0.009 C 
ATOM     48  H21 MOL d         -31.140  43.468  33.819  0.00  0.00     0.044 H 
ATOM     49  H22 MOL d         -32.042  43.161  35.343  0.00  0.00     0.044 H 
BRANCH  47  50
ATOM     50  CG  MOL d         -30.928  41.484  34.604  0.00  0.00    -0.055 A 
ATOM     51  CD2 MOL d         -30.751  40.973  33.313  0.00  0.00    -0.074 A 
ATOM     52  CE2 MOL d         -30.580  39.583  33.071  0.00  0.00    -0.050 A 
ATOM     53  H24 MOL d         -30.745  41.658  32.473  0.00  0.00     0.084 H 
ATOM     54  CZ  MOL d         -30.599  38.755  34.200  0.00  0.00     0.082 A 
ATOM     55  H26 MOL d         -30.444  39.188  32.071  0.00  0.00     0.087 H 
ATOM     56  CE1 MOL d         -30.769  39.241  35.511  0.00  0.00    -0.050 A 
ATOM     57  CD1 MOL d         -30.937  40.610  35.721  0.00  0.00    -0.074 A 
ATOM     58  H25 MOL d         -30.769  38.556  36.352  0.00  0.00     0.087 H 
ATOM     59  H23 MOL d         -31.072  41.001  36.722  0.00  0.00     0.084 H 
BRANCH  54  60
ATOM     60  OH  MOL d         -30.435  37.377  33.961  0.00  0.00    -0.240 OA
BRANCH  60  61
ATOM     61  P   MOL d         -28.930  36.724  33.724  0.00  0.00     0.427 P 
ATOM     62  O3P MOL d         -28.856  35.370  34.344  0.00  0.00    -0.617 OA
ATOM     63  O2P MOL d         -28.688  36.579  32.268  0.00  0.00    -0.617 OA
ATOM     64  O1P MOL d         -28.005  37.645  34.410  0.00  0.00    -0.617 OA
ENDBRANCH  60  61
ENDBRANCH  54  60
ENDBRANCH  47  50
ENDBRANCH  46  47
BRANCH  46  65
ATOM     65  C   MOL d         -28.608  43.187  35.048  0.00  0.00     0.246 C 
ATOM     66  O   MOL d         -27.735  42.703  35.795  0.00  0.00    -0.271 OA
ATOM     67  N   MOL d         -28.393  43.335  33.754  0.00  0.00    -0.344 N 
ATOM     68  H27 MOL d         -29.090  43.752  33.169  0.00  0.00     0.163 HD
BRANCH  67  69
ATOM     69  CA  MOL d         -27.137  42.887  33.193  0.00  0.00     0.104 C 
ATOM     70  H28 MOL d         -26.333  43.075  33.920  0.00  0.00     0.090 H 
BRANCH  69  71
ATOM     71  C   MOL d         -26.857  43.674  31.911  0.00  0.00     0.197 C 
ATOM     72  OXT MOL d         -25.867  44.403  31.918  0.00  0.00    -0.646 OA
ATOM     73  O   MOL d         -27.622  43.586  30.899  0.00  0.00    -0.646 OA
ENDBRANCH  69  71
BRANCH  69  74
ATOM     74  CB  MOL d         -27.171  41.370  32.858  0.00  0.00     0.037 C 
ATOM     75  H29 MOL d         -27.990  41.186  32.148  0.00  0.00     0.051 H 
ATOM     76  H30 MOL d         -27.358  40.811  33.787  0.00  0.00     0.051 H 
BRANCH  74  77
ATOM     77  CG  MOL d         -25.826  40.848  32.221  0.00  0.00     0.217 C 
ATOM     78  OD1 MOL d         -25.826  40.244  31.191  0.00  0.00    -0.274 OA
ATOM     79  ND2 MOL d         -24.730  41.077  32.889  0.00  0.00    -0.370 N 
ATOM     80  H31 MOL d         -23.851  40.766  32.527  0.00  0.00     0.159 HD
ATOM     81  H32 MOL d         -24.768  41.564  33.761  0.00  0.00     0.159 HD
ENDBRANCH  74  77
ENDBRANCH  69  74
ENDBRANCH  67  69
ENDBRANCH  46  65
BRANCH  46  82
ATOM     82  CH3 MOL d         -30.338  43.363  37.096  0.00  0.00    -0.044 C 
ATOM     83  H18 MOL d         -29.456  42.981  37.630  0.00  0.00     0.031 H 
ATOM     84  H19 MOL d         -31.130  42.598  37.101  0.00  0.00     0.031 H 
ATOM     85  H20 MOL d         -30.703  44.272  37.595  0.00  0.00     0.031 H 
ENDBRANCH  46  82
ENDBRANCH   3  46
TORSDOF 21
ENDMDL
MODEL 9
REMARK VINA RESULT:      -4.6      1.962      4.886
REMARK  21 active torsions:
REMARK  status: ('A' for Active; 'I' for Inactive)
REMARK    1  A    between atoms: C12_6  and  C3_3 
REMARK    2  A    between atoms: O13_7  and  C12_6 
REMARK    3  A    between atoms: C16_8  and  O13_7 
REMARK    4  A    between atoms: C5_11  and  N11_10 
REMARK    5  A    between atoms: CA_13  and  N_12 
REMARK    6  A    between atoms: CA_13  and  CB_16 
REMARK    7  A    between atoms: C_14  and  CA_13 
REMARK       I    between atoms: N_28  and  C_14 
REMARK    8  A    between atoms: CB_16  and  CG_17 
REMARK    9  A    between atoms: CZ_22  and  OH_23 
REMARK   10  A    between atoms: OH_23  and  P_24 
REMARK   11  A    between atoms: CA_29  and  N_28 
REMARK   12  A    between atoms: CA_29  and  CB_33 
REMARK   13  A    between atoms: C_31  and  CA_29 
REMARK   14  A    between atoms: CA_29  and  CH3_30 
REMARK       I    between atoms: C_31  and  N_45 
REMARK   15  A    between atoms: CB_33  and  CG_34 
REMARK   16  A    between atoms: CZ_39  and  OH_40 
REMARK   17  A    between atoms: OH_40  and  P_41 
REMARK   18  A    between atoms: N_45  and  CA_46 
REMARK   19  A    between atoms: CA_46  and  C_47 
REMARK   20  A    between atoms: CA_46  and  CB_49 
REMARK   21  A    between atoms: CB_49  and  CG_50 
REMARK       I    between atoms: CG_50  and  ND2_52 
ROOT
ATOM      1  C   MOL d         -29.400  45.069  33.455  0.00  0.00     0.241 C 
ATOM      2  O   MOL d         -30.308  45.103  32.582  0.00  0.00    -0.271 OA
ATOM      3  N   MOL d         -28.128  44.941  33.224  0.00  0.00    -0.341 N 
ATOM      4  H17 MOL d         -27.487  45.002  33.988  0.00  0.00     0.163 HD
ENDROOT
BRANCH   1   5
ATOM      5  CA  MOL d         -29.622  45.344  34.905  0.00  0.00     0.094 C 
ATOM      6  H10 MOL d         -28.900  44.828  35.554  0.00  0.00     0.088 H 
BRANCH   5   7
ATOM      7  N   MOL d         -29.455  46.747  34.952  0.00  0.00    -0.335 N 
ATOM      8  C16 MOL d         -28.765  47.436  35.832  0.00  0.00     0.292 C 
ATOM      9  O18 MOL d         -27.628  46.892  36.382  0.00  0.00    -0.143 OA
ATOM     10  H9  MOL d         -29.912  47.274  34.235  0.00  0.00     0.164 HD
BRANCH   8  11
ATOM     11  O13 MOL d         -28.966  48.715  35.680  0.00  0.00    -0.310 OA
BRANCH  11  12
ATOM     12  C12 MOL d         -28.133  49.698  35.044  0.00  0.00     0.053 C 
ATOM     13  H5  MOL d         -27.165  49.208  34.861  0.00  0.00     0.082 H 
ATOM     14  H6  MOL d         -28.612  49.933  34.082  0.00  0.00     0.082 H 
BRANCH  12  15
ATOM     15  C3  MOL d         -27.824  51.001  35.684  0.00  0.00    -0.032 A 
ATOM     16  C2  MOL d         -26.513  51.501  35.779  0.00  0.00    -0.075 A 
ATOM     17  C1  MOL d         -26.307  52.775  36.383  0.00  0.00    -0.080 A 
ATOM     18  H2  MOL d         -25.675  50.927  35.400  0.00  0.00     0.084 H 
ATOM     19  C6  MOL d         -27.414  53.506  36.898  0.00  0.00    -0.058 A 
ATOM     20  H1  MOL d         -25.307  53.188  36.449  0.00  0.00     0.083 H 
ATOM     21  C5  MOL d         -28.712  52.972  36.801  0.00  0.00     0.026 A 
ATOM     22  H4  MOL d         -27.256  54.472  37.364  0.00  0.00     0.086 H 
ATOM     23  C4  MOL d         -28.915  51.728  36.190  0.00  0.00    -0.050 A 
ATOM     24  H3  MOL d         -29.918  51.325  36.106  0.00  0.00     0.087 H 
BRANCH  21  25
ATOM     25  N11 MOL d         -29.779  53.641  37.296  0.00  0.00    -0.399 N 
ATOM     26  H7  MOL d         -30.194  54.417  36.760  0.00  0.00     0.156 HD
ATOM     27  H8  MOL d         -30.176  53.376  38.208  0.00  0.00     0.156 HD
ENDBRANCH  21  25
ENDBRANCH  12  15
ENDBRANCH  11  12
ENDBRANCH   8  11
ENDBRANCH   5   7
BRANCH   5  28
ATOM     28  CB  MOL d         -31.075  44.895  35.240  0.00  0.00    -0.014 C 
ATOM     29  H11 MOL d         -31.703  45.032  34.347  0.00  0.00     0.043 H 
ATOM     30  H12 MOL d         -31.459  45.521  36.059  0.00  0.00     0.043 H 
BRANCH  28  31
ATOM     31  CG  MOL d         -31.142  43.432  35.668  0.00  0.00    -0.056 A 
ATOM     32  CD2 MOL d         -30.835  43.038  36.996  0.00  0.00    -0.074 A 
ATOM     33  CE2 MOL d         -30.917  41.677  37.382  0.00  0.00    -0.050 A 
ATOM     34  H14 MOL d         -30.535  43.785  37.722  0.00  0.00     0.084 H 
ATOM     35  CZ  MOL d         -31.337  40.759  36.373  0.00  0.00     0.082 A 
ATOM     36  H16 MOL d         -30.675  41.352  38.387  0.00  0.00     0.087 H 
ATOM     37  CE1 MOL d         -31.649  41.129  35.064  0.00  0.00    -0.050 A 
ATOM     38  CD1 MOL d         -31.548  42.464  34.713  0.00  0.00    -0.074 A 
ATOM     39  H15 MOL d         -31.964  40.388  34.339  0.00  0.00     0.087 H 
ATOM     40  H13 MOL d         -31.781  42.774  33.700  0.00  0.00     0.084 H 
BRANCH  35  41
ATOM     41  OH  MOL d         -31.438  39.399  36.706  0.00  0.00    -0.240 OA
BRANCH  41  42
ATOM     42  P   MOL d         -30.533  38.265  36.246  0.00  0.00     0.427 P 
ATOM     43  O3P MOL d         -29.754  37.726  37.476  0.00  0.00    -0.617 OA
ATOM     44  O2P MOL d         -31.246  37.188  35.581  0.00  0.00    -0.617 OA
ATOM     45  O1P MOL d         -29.585  38.849  35.329  0.00  0.00    -0.617 OA
ENDBRANCH  41  42
ENDBRANCH  35  41
ENDBRANCH  28  31
ENDBRANCH   5  28
ENDBRANCH   1   5
BRANCH   3  46
ATOM     46  CA  MOL d         -27.620  44.717  31.906  0.00  0.00     0.114 C 
BRANCH  46  47
ATOM     47  CB  MOL d         -28.088  43.244  31.623  0.00  0.00    -0.009 C 
ATOM     48  H21 MOL d         -28.459  43.199  30.589  0.00  0.00     0.044 H 
ATOM     49  H22 MOL d         -28.910  43.012  32.317  0.00  0.00     0.044 H 
BRANCH  47  50
ATOM     50  CG  MOL d         -27.013  42.164  31.787  0.00  0.00    -0.055 A 
ATOM     51  CD2 MOL d         -27.041  41.025  30.974  0.00  0.00    -0.074 A 
ATOM     52  CE2 MOL d         -26.060  40.003  31.077  0.00  0.00    -0.050 A 
ATOM     53  H24 MOL d         -27.835  40.919  30.244  0.00  0.00     0.084 H 
ATOM     54  CZ  MOL d         -25.062  40.202  32.040  0.00  0.00     0.082 A 
ATOM     55  H26 MOL d         -26.082  39.120  30.448  0.00  0.00     0.087 H 
ATOM     56  CE1 MOL d         -25.005  41.340  32.868  0.00  0.00    -0.050 A 
ATOM     57  CD1 MOL d         -25.983  42.328  32.747  0.00  0.00    -0.074 A 
ATOM     58  H25 MOL d         -24.206  41.448  33.594  0.00  0.00     0.087 H 
ATOM     59  H23 MOL d         -25.956  43.209  33.379  0.00  0.00     0.084 H 
BRANCH  54  60
ATOM     60  OH  MOL d         -24.092  39.187  32.148  0.00  0.00    -0.240 OA
BRANCH  60  61
ATOM     61  P   MOL d         -24.109  38.122  33.418  0.00  0.00     0.427 P 
ATOM     62  O3P MOL d         -23.670  38.807  34.667  0.00  0.00    -0.617 OA
ATOM     63  O2P MOL d         -25.494  37.633  33.622  0.00  0.00    -0.617 OA
ATOM     64  O1P MOL d         -23.139  37.075  33.049  0.00  0.00    -0.617 OA
ENDBRANCH  60  61
ENDBRANCH  54  60
ENDBRANCH  47  50
ENDBRANCH  46  47
BRANCH  46  65
ATOM     65  C   MOL d         -28.301  45.613  30.841  0.00  0.00     0.246 C 
ATOM     66  O   MOL d         -28.818  45.110  29.824  0.00  0.00    -0.271 OA
ATOM     67  N   MOL d         -28.266  46.921  31.013  0.00  0.00    -0.344 N 
ATOM     68  H27 MOL d         -27.823  47.314  31.819  0.00  0.00     0.163 HD
BRANCH  67  69
ATOM     69  CA  MOL d         -28.876  47.779  30.020  0.00  0.00     0.104 C 
ATOM     70  H28 MOL d         -29.030  47.202  29.096  0.00  0.00     0.090 H 
BRANCH  69  71
ATOM     71  C   MOL d         -27.940  48.954  29.736  0.00  0.00     0.197 C 
ATOM     72  OXT MOL d         -27.382  49.461  30.707  0.00  0.00    -0.646 OA
ATOM     73  O   MOL d         -27.764  49.391  28.554  0.00  0.00    -0.646 OA
ENDBRANCH  69  71
BRANCH  69  74
ATOM     74  CB  MOL d         -30.247  48.328  30.505  0.00  0.00     0.037 C 
ATOM     75  H29 MOL d         -30.065  49.178  31.179  0.00  0.00     0.051 H 
ATOM     76  H30 MOL d         -30.769  47.531  31.054  0.00  0.00     0.051 H 
BRANCH  74  77
ATOM     77  CG  MOL d         -31.171  48.812  29.323  0.00  0.00     0.217 C 
ATOM     78  OD1 MOL d         -31.209  49.962  29.001  0.00  0.00    -0.274 OA
ATOM     79  ND2 MOL d         -31.911  47.908  28.745  0.00  0.00    -0.370 N 
ATOM     80  H31 MOL d         -32.515  48.164  27.990  0.00  0.00     0.159 HD
ATOM     81  H32 MOL d         -31.874  46.958  29.055  0.00  0.00     0.159 HD
ENDBRANCH  74  77
ENDBRANCH  69  74
ENDBRANCH  67  69
ENDBRANCH  46  65
BRANCH  46  82
ATOM     82  CH3 MOL d         -26.074  44.576  31.929  0.00  0.00    -0.044 C 
ATOM     83  H18 MOL d         -25.793  43.566  31.597  0.00  0.00     0.031 H 
ATOM     84  H19 MOL d         -25.705  44.742  32.952  0.00  0.00     0.031 H 
ATOM     85  H20 MOL d         -25.628  45.321  31.254  0.00  0.00     0.031 H 
ENDBRANCH  46  82
ENDBRANCH   3  46
TORSDOF 21
ENDMDL
MODEL 10
REMARK VINA RESULT:      -4.6      3.189      8.005
REMARK  21 active torsions:
REMARK  status: ('A' for Active; 'I' for Inactive)
REMARK    1  A    between atoms: C12_6  and  C3_3 
REMARK    2  A    between atoms: O13_7  and  C12_6 
REMARK    3  A    between atoms: C16_8  and  O13_7 
REMARK    4  A    between atoms: C5_11  and  N11_10 
REMARK    5  A    between atoms: CA_13  and  N_12 
REMARK    6  A    between atoms: CA_13  and  CB_16 
REMARK    7  A    between atoms: C_14  and  CA_13 
REMARK       I    between atoms: N_28  and  C_14 
REMARK    8  A    between atoms: CB_16  and  CG_17 
REMARK    9  A    between atoms: CZ_22  and  OH_23 
REMARK   10  A    between atoms: OH_23  and  P_24 
REMARK   11  A    between atoms: CA_29  and  N_28 
REMARK   12  A    between atoms: CA_29  and  CB_33 
REMARK   13  A    between atoms: C_31  and  CA_29 
REMARK   14  A    between atoms: CA_29  and  CH3_30 
REMARK       I    between atoms: C_31  and  N_45 
REMARK   15  A    between atoms: CB_33  and  CG_34 
REMARK   16  A    between atoms: CZ_39  and  OH_40 
REMARK   17  A    between atoms: OH_40  and  P_41 
REMARK   18  A    between atoms: N_45  and  CA_46 
REMARK   19  A    between atoms: CA_46  and  C_47 
REMARK   20  A    between atoms: CA_46  and  CB_49 
REMARK   21  A    between atoms: CB_49  and  CG_50 
REMARK       I    between atoms: CG_50  and  ND2_52 
ROOT
ATOM      1  C   MOL d         -28.999  43.245  33.453  0.00  0.00     0.241 C 
ATOM      2  O   MOL d         -29.601  43.663  32.428  0.00  0.00    -0.271 OA
ATOM      3  N   MOL d         -27.719  43.051  33.556  0.00  0.00    -0.341 N 
ATOM      4  H17 MOL d         -27.337  42.789  34.442  0.00  0.00     0.163 HD
ENDROOT
BRANCH   1   5
ATOM      5  CA  MOL d         -29.644  43.066  34.787  0.00  0.00     0.094 C 
ATOM      6  H10 MOL d         -29.008  42.520  35.499  0.00  0.00     0.088 H 
BRANCH   5   7
ATOM      7  N   MOL d         -29.840  44.408  35.186  0.00  0.00    -0.335 N 
ATOM      8  C16 MOL d         -29.241  45.040  36.168  0.00  0.00     0.292 C 
ATOM      9  O18 MOL d         -27.939  44.729  36.485  0.00  0.00    -0.143 OA
ATOM     10  H9  MOL d         -30.509  44.934  34.661  0.00  0.00     0.164 HD
BRANCH   8  11
ATOM     11  O13 MOL d         -29.784  46.208  36.367  0.00  0.00    -0.310 OA
BRANCH  11  12
ATOM     12  C12 MOL d         -29.558  47.446  35.674  0.00  0.00     0.053 C 
ATOM     13  H5  MOL d         -29.269  47.176  34.648  0.00  0.00     0.082 H 
ATOM     14  H6  MOL d         -30.526  47.971  35.657  0.00  0.00     0.082 H 
BRANCH  12  15
ATOM     15  C3  MOL d         -28.557  48.439  36.140  0.00  0.00    -0.032 A 
ATOM     16  C2  MOL d         -27.174  48.185  36.105  0.00  0.00    -0.075 A 
ATOM     17  C1  MOL d         -26.280  49.203  36.544  0.00  0.00    -0.080 A 
ATOM     18  H2  MOL d         -26.796  47.233  35.751  0.00  0.00     0.084 H 
ATOM     19  C6  MOL d         -26.790  50.439  37.030  0.00  0.00    -0.058 A 
ATOM     20  H1  MOL d         -25.209  49.036  36.508  0.00  0.00     0.083 H 
ATOM     21  C5  MOL d         -28.180  50.657  37.067  0.00  0.00     0.026 A 
ATOM     22  H4  MOL d         -26.109  51.211  37.371  0.00  0.00     0.086 H 
ATOM     23  C4  MOL d         -29.057  49.662  36.616  0.00  0.00    -0.050 A 
ATOM     24  H3  MOL d         -30.127  49.838  36.634  0.00  0.00     0.087 H 
BRANCH  21  25
ATOM     25  N11 MOL d         -28.690  51.818  37.537  0.00  0.00    -0.399 N 
ATOM     26  H7  MOL d         -28.187  52.345  38.265  0.00  0.00     0.156 HD
ATOM     27  H8  MOL d         -29.583  52.175  37.168  0.00  0.00     0.156 HD
ENDBRANCH  21  25
ENDBRANCH  12  15
ENDBRANCH  11  12
ENDBRANCH   8  11
ENDBRANCH   5   7
BRANCH   5  28
ATOM     28  CB  MOL d         -30.980  42.301  34.552  0.00  0.00    -0.014 C 
ATOM     29  H11 MOL d         -31.116  42.150  33.471  0.00  0.00     0.043 H 
ATOM     30  H12 MOL d         -31.809  42.908  34.944  0.00  0.00     0.043 H 
BRANCH  28  31
ATOM     31  CG  MOL d         -30.996  40.941  35.244  0.00  0.00    -0.056 A 
ATOM     32  CD2 MOL d         -31.770  40.718  36.412  0.00  0.00    -0.074 A 
ATOM     33  CE2 MOL d         -31.787  39.445  37.033  0.00  0.00    -0.050 A 
ATOM     34  H14 MOL d         -32.354  41.528  36.832  0.00  0.00     0.084 H 
ATOM     35  CZ  MOL d         -31.005  38.427  36.408  0.00  0.00     0.082 A 
ATOM     36  H16 MOL d         -32.361  39.255  37.933  0.00  0.00     0.087 H 
ATOM     37  CE1 MOL d         -30.243  38.627  35.257  0.00  0.00    -0.050 A 
ATOM     38  CD1 MOL d         -30.237  39.884  34.678  0.00  0.00    -0.074 A 
ATOM     39  H15 MOL d         -29.669  37.815  34.825  0.00  0.00     0.087 H 
ATOM     40  H13 MOL d         -29.648  40.063  33.785  0.00  0.00     0.084 H 
BRANCH  35  41
ATOM     41  OH  MOL d         -30.992  37.146  36.984  0.00  0.00    -0.240 OA
BRANCH  41  42
ATOM     42  P   MOL d         -29.851  36.489  37.748  0.00  0.00     0.427 P 
ATOM     43  O3P MOL d         -30.438  35.362  38.639  0.00  0.00    -0.617 OA
ATOM     44  O2P MOL d         -28.803  35.966  36.887  0.00  0.00    -0.617 OA
ATOM     45  O1P MOL d         -29.299  37.507  38.608  0.00  0.00    -0.617 OA
ENDBRANCH  41  42
ENDBRANCH  35  41
ENDBRANCH  28  31
ENDBRANCH   5  28
ENDBRANCH   1   5
BRANCH   3  46
ATOM     46  CA  MOL d         -26.841  43.204  32.438  0.00  0.00     0.114 C 
BRANCH  46  47
ATOM     47  CB  MOL d         -26.030  44.489  32.833  0.00  0.00    -0.009 C 
ATOM     48  H21 MOL d         -24.986  44.340  32.521  0.00  0.00     0.044 H 
ATOM     49  H22 MOL d         -26.075  44.594  33.927  0.00  0.00     0.044 H 
BRANCH  47  50
ATOM     50  CG  MOL d         -26.525  45.802  32.213  0.00  0.00    -0.055 A 
ATOM     51  CD2 MOL d         -25.905  46.306  31.064  0.00  0.00    -0.074 A 
ATOM     52  CE2 MOL d         -26.335  47.510  30.444  0.00  0.00    -0.050 A 
ATOM     53  H24 MOL d         -25.071  45.762  30.634  0.00  0.00     0.084 H 
ATOM     54  CZ  MOL d         -27.416  48.162  31.051  0.00  0.00     0.082 A 
ATOM     55  H26 MOL d         -25.854  47.901  29.554  0.00  0.00     0.087 H 
ATOM     56  CE1 MOL d         -28.063  47.676  32.203  0.00  0.00    -0.050 A 
ATOM     57  CD1 MOL d         -27.619  46.492  32.793  0.00  0.00    -0.074 A 
ATOM     58  H25 MOL d         -28.901  48.218  32.629  0.00  0.00     0.087 H 
ATOM     59  H23 MOL d         -28.103  46.105  33.682  0.00  0.00     0.084 H 
BRANCH  54  60
ATOM     60  OH  MOL d         -27.839  49.359  30.441  0.00  0.00    -0.240 OA
BRANCH  60  61
ATOM     61  P   MOL d         -29.366  49.502  29.811  0.00  0.00     0.427 P 
ATOM     62  O3P MOL d         -29.601  50.901  29.353  0.00  0.00    -0.617 OA
ATOM     63  O2P MOL d         -29.492  48.605  28.638  0.00  0.00    -0.617 OA
ATOM     64  O1P MOL d         -30.270  49.179  30.930  0.00  0.00    -0.617 OA
ENDBRANCH  60  61
ENDBRANCH  54  60
ENDBRANCH  47  50
ENDBRANCH  46  47
BRANCH  46  65
ATOM     65  C   MOL d         -25.815  42.048  32.320  0.00  0.00     0.246 C 
ATOM     66  O   MOL d         -24.652  42.186  32.748  0.00  0.00    -0.271 OA
ATOM     67  N   MOL d         -26.189  40.943  31.704  0.00  0.00    -0.344 N 
ATOM     68  H27 MOL d         -27.116  40.856  31.338  0.00  0.00     0.163 HD
BRANCH  67  69
ATOM     69  CA  MOL d         -25.241  39.860  31.562  0.00  0.00     0.104 C 
ATOM     70  H28 MOL d         -24.223  40.277  31.537  0.00  0.00     0.090 H 
BRANCH  69  71
ATOM     71  C   MOL d         -25.521  39.121  30.253  0.00  0.00     0.197 C 
ATOM     72  OXT MOL d         -26.661  39.212  29.802  0.00  0.00    -0.646 OA
ATOM     73  O   MOL d         -24.620  38.436  29.673  0.00  0.00    -0.646 OA
ENDBRANCH  69  71
BRANCH  69  74
ATOM     74  CB  MOL d         -25.343  38.854  32.743  0.00  0.00     0.037 C 
ATOM     75  H29 MOL d         -25.931  37.985  32.413  0.00  0.00     0.051 H 
ATOM     76  H30 MOL d         -25.858  39.348  33.580  0.00  0.00     0.051 H 
BRANCH  74  77
ATOM     77  CG  MOL d         -23.938  38.348  33.247  0.00  0.00     0.217 C 
ATOM     78  OD1 MOL d         -23.810  37.862  34.331  0.00  0.00    -0.274 OA
ATOM     79  ND2 MOL d         -22.926  38.517  32.442  0.00  0.00    -0.370 N 
ATOM     80  H31 MOL d         -22.014  38.213  32.715  0.00  0.00     0.159 HD
ATOM     81  H32 MOL d         -23.064  38.949  31.551  0.00  0.00     0.159 HD
ENDBRANCH  74  77
ENDBRANCH  69  74
ENDBRANCH  67  69
ENDBRANCH  46  65
BRANCH  46  82
ATOM     82  CH3 MOL d         -27.625  43.676  31.184  0.00  0.00    -0.044 C 
ATOM     83  H18 MOL d         -26.927  44.127  30.463  0.00  0.00     0.031 H 
ATOM     84  H19 MOL d         -28.378  44.422  31.481  0.00  0.00     0.031 H 
ATOM     85  H20 MOL d         -28.126  42.815  30.718  0.00  0.00     0.031 H 
ENDBRANCH  46  82
ENDBRANCH   3  46
TORSDOF 21
ENDMDL
