REMARK  11 active torsions:
REMARK  status: ('A' for Active; 'I' for Inactive)
REMARK       I    between atoms: N1_3  and  C20_36 
REMARK    1  A    between atoms: C28_44  and  N1_3 
REMARK    2  A    between atoms: O1_4  and  C9_24 
REMARK    3  A    between atoms: C20_36  and  O1_4 
REMARK    4  A    between atoms: N3_10  and  S1_5 
REMARK    5  A    between atoms: S1_5  and  C23_39 
REMARK    6  A    between atoms: C2_6  and  C4_12 
REMARK       I    between atoms: C4_12  and  N3_10 
REMARK       I    between atoms: C35_51  and  N4_13 
REMARK    7  A    between atoms: C9_24  and  C6_18 
REMARK    8  A    between atoms: C9_24  and  C7_20 
REMARK    9  A    between atoms: C9_24  and  C8_22 
REMARK   10  A    between atoms: C30_46  and  O8_23 
REMARK   11  A    between atoms: O8_23  and  C35_51 
ROOT
ATOM      1  C1  TSV d         -12.550  -6.133  17.114  0.00  0.00    -0.023 A 
ATOM      2  C2  TSV d         -12.172  -6.575  15.702  0.00  0.00     0.122 A 
ATOM      3  N2  TSV d         -12.447  -7.954  15.384  0.00  0.00    -0.341 N 
ATOM      4  C3  TSV d         -13.460  -5.763  15.959  0.00  0.00    -0.002 A 
ATOM      5  O3  TSV d         -15.566  -8.330  15.253  0.00  0.00    -0.271 OA
ATOM      6  C5  TSV d         -13.529  -4.312  15.576  0.00  0.00    -0.100 C 
ATOM      7  N5  TSV d         -14.911  -9.728  13.655  0.00  0.00    -0.334 N 
ATOM      8  O7  TSV d         -13.177  -7.478  13.305  0.00  0.00    -0.271 OA
ATOM      9  C10 TSV d         -14.458  -3.824  14.736  0.00  0.00    -0.106 C 
ATOM     10  C11 TSV d         -13.001  -8.285  14.225  0.00  0.00     0.241 C 
ATOM     11  C13 TSV d         -15.543  -4.656  14.082  0.00  0.00    -0.050 C 
ATOM     12  C15 TSV d         -13.510  -9.691  14.112  0.00  0.00     0.094 C 
ATOM     13  C18 TSV d         -15.429  -4.661  12.567  0.00  0.00    -0.062 C 
ATOM     14  C19 TSV d         -16.566  -5.461  11.905  0.00  0.00    -0.065 C 
ATOM     15  C22 TSV d         -16.469  -6.971  12.144  0.00  0.00    -0.063 C 
ATOM     16  C25 TSV d         -17.472  -7.444  13.199  0.00  0.00    -0.038 C 
ATOM     17  C27 TSV d         -12.790 -10.465  13.026  0.00  0.00    -0.011 C 
ATOM     18  C28 TSV d         -17.209  -8.875  13.644  0.00  0.00     0.091 C 
ATOM     19  C30 TSV d         -13.810 -11.443  12.521  0.00  0.00     0.067 C 
ATOM     20  C33 TSV d         -15.826  -8.967  14.249  0.00  0.00     0.243 C 
ATOM     21  C34 TSV d         -15.099 -10.668  12.528  0.00  0.00     0.023 C 
ATOM     22  H1  TSV d         -11.962  -5.353  17.619  0.00  0.00     0.038 H 
ATOM     23  H2  TSV d         -12.878  -6.880  17.852  0.00  0.00     0.038 H 
ATOM     24  H4  TSV d         -12.218  -8.669  16.044  0.00  0.00     0.163 HD
ATOM     25  H5  TSV d         -14.445  -6.236  15.837  0.00  0.00     0.050 H 
ATOM     26  H7  TSV d         -12.795  -3.626  15.997  0.00  0.00     0.077 H 
ATOM     27  H17 TSV d         -14.429  -2.759  14.510  0.00  0.00     0.076 H 
ATOM     28  H19 TSV d         -16.523  -4.243  14.362  0.00  0.00     0.038 H 
ATOM     29  H20 TSV d         -15.464  -5.691  14.446  0.00  0.00     0.038 H 
ATOM     30  H22 TSV d         -13.402 -10.191  15.086  0.00  0.00     0.088 H 
ATOM     31  H25 TSV d         -14.466  -5.112  12.285  0.00  0.00     0.033 H 
ATOM     32  H26 TSV d         -15.467  -3.623  12.205  0.00  0.00     0.033 H 
ATOM     33  H27 TSV d         -16.536  -5.277  10.821  0.00  0.00     0.033 H 
ATOM     34  H28 TSV d         -17.524  -5.105  12.311  0.00  0.00     0.033 H 
ATOM     35  H29 TSV d         -15.452  -7.213  12.486  0.00  0.00     0.033 H 
ATOM     36  H30 TSV d         -16.673  -7.495  11.199  0.00  0.00     0.033 H 
ATOM     37  H32 TSV d         -18.485  -7.386  12.775  0.00  0.00     0.036 H 
ATOM     38  H33 TSV d         -17.402  -6.782  14.075  0.00  0.00     0.036 H 
ATOM     39  H34 TSV d         -11.917 -10.992  13.438  0.00  0.00     0.040 H 
ATOM     40  H35 TSV d         -12.465  -9.792  12.219  0.00  0.00     0.040 H 
ATOM     41  H36 TSV d         -17.276  -9.548  12.776  0.00  0.00     0.087 H 
ATOM     42  H39 TSV d         -13.552 -11.829  11.524  0.00  0.00     0.086 H 
ATOM     43  H43 TSV d         -15.241 -10.127  11.581  0.00  0.00     0.068 H 
ATOM     44  H44 TSV d         -15.959 -11.331  12.704  0.00  0.00     0.068 H 
ENDROOT
BRANCH  18  45
ATOM     45  N1  TSV d         -18.188  -9.259  14.625  0.00  0.00    -0.324 N 
ATOM     46  C20 TSV d         -18.510 -10.526  14.846  0.00  0.00     0.362 C 
ATOM     47  O2  TSV d         -18.059 -11.496  14.233  0.00  0.00    -0.238 OA
ATOM     48  H3  TSV d         -18.642  -8.546  15.159  0.00  0.00     0.165 HD
BRANCH  46  49
ATOM     49  O1  TSV d         -19.459 -10.701  15.915  0.00  0.00    -0.294 OA
BRANCH  49  50
ATOM     50  C9  TSV d         -20.029 -11.955  16.301  0.00  0.00     0.061 C 
BRANCH  50  51
ATOM     51  C6  TSV d         -18.933 -12.926  16.720  0.00  0.00    -0.048 C 
ATOM     52  H8  TSV d         -19.385 -13.885  17.014  0.00  0.00     0.031 H 
ATOM     53  H9  TSV d         -18.377 -12.507  17.572  0.00  0.00     0.031 H 
ATOM     54  H10 TSV d         -18.245 -13.088  15.877  0.00  0.00     0.031 H 
ENDBRANCH  50  51
BRANCH  50  55
ATOM     55  C7  TSV d         -20.965 -11.653  17.468  0.00  0.00    -0.048 C 
ATOM     56  H11 TSV d         -21.436 -12.586  17.811  0.00  0.00     0.031 H 
ATOM     57  H12 TSV d         -21.743 -10.948  17.141  0.00  0.00     0.031 H 
ATOM     58  H13 TSV d         -20.390 -11.208  18.294  0.00  0.00     0.031 H 
ENDBRANCH  50  55
BRANCH  50  59
ATOM     59  C8  TSV d         -20.811 -12.524  15.121  0.00  0.00    -0.048 C 
ATOM     60  H14 TSV d         -21.254 -13.489  15.406  0.00  0.00     0.031 H 
ATOM     61  H15 TSV d         -20.133 -12.670  14.268  0.00  0.00     0.031 H 
ATOM     62  H16 TSV d         -21.610 -11.823  14.838  0.00  0.00     0.031 H 
ENDBRANCH  50  59
ENDBRANCH  49  50
ENDBRANCH  46  49
ENDBRANCH  18  45
BRANCH  19  63
ATOM     63  O8  TSV d         -13.971 -12.493  13.461  0.00  0.00    -0.296 OA
BRANCH  63  64
ATOM     64  C35 TSV d         -13.081 -13.604  13.313  0.00  0.00     0.371 C 
ATOM     65  N4  TSV d         -13.128 -14.444  14.297  0.00  0.00    -0.278 N 
ATOM     66  C12 TSV d         -12.428 -15.737  14.269  0.00  0.00     0.000 A 
ATOM     67  C31 TSV d         -13.906 -14.225  15.517  0.00  0.00     0.003 A 
ATOM     68  C24 TSV d         -12.867 -16.342  15.548  0.00  0.00    -0.005 A 
ATOM     69  H18 TSV d         -11.762 -16.143  13.509  0.00  0.00     0.113 H 
ATOM     70  C16 TSV d         -12.526 -17.603  16.030  0.00  0.00    -0.071 A 
ATOM     71  C26 TSV d         -13.690 -15.520  16.247  0.00  0.00     0.030 A 
ATOM     72  C14 TSV d         -13.048 -17.987  17.248  0.00  0.00    -0.079 A 
ATOM     73  H23 TSV d         -11.873 -18.260  15.468  0.00  0.00     0.084 H 
ATOM     74  C17 TSV d         -13.896 -17.142  17.968  0.00  0.00    -0.045 A 
ATOM     75  H21 TSV d         -12.796 -18.960  17.653  0.00  0.00     0.083 H 
ATOM     76  C21 TSV d         -14.218 -15.877  17.456  0.00  0.00     0.128 A 
ATOM     77  H24 TSV d         -14.304 -17.463  18.920  0.00  0.00     0.088 H 
ATOM     78  F1  TSV d         -15.024 -15.031  18.130  0.00  0.00    -0.205 F 
ATOM     79  H40 TSV d         -14.487 -13.354  15.816  0.00  0.00     0.114 H 
ATOM     80  O5  TSV d         -12.353 -13.719  12.332  0.00  0.00    -0.238 OA
ENDBRANCH  63  64
ENDBRANCH  19  63
BRANCH   2  81
ATOM     81  C4  TSV d         -10.951  -5.924  15.134  0.00  0.00     0.260 C 
ATOM     82  N3  TSV d         -10.168  -6.684  14.374  0.00  0.00    -0.252 N 
ATOM     83  H6  TSV d         -10.373  -7.653  14.234  0.00  0.00     0.181 HD
ATOM     84  O9  TSV d         -10.715  -4.761  15.362  0.00  0.00    -0.270 OA
BRANCH  82  85
ATOM     85  S1  TSV d          -8.906  -6.018  13.698  0.00  0.00     0.237 S 
ATOM     86  O4  TSV d          -7.975  -5.538  14.678  0.00  0.00    -0.205 OA
ATOM     87  O6  TSV d          -9.334  -4.984  12.775  0.00  0.00    -0.205 OA
BRANCH  85  88
ATOM     88  C23 TSV d          -8.226  -7.228  12.773  0.00  0.00     0.063 A 
ATOM     89  C29 TSV d          -6.795  -6.993  12.300  0.00  0.00    -0.046 A 
ATOM     90  C32 TSV d          -7.063  -8.017  13.381  0.00  0.00    -0.046 A 
ATOM     91  H37 TSV d          -6.282  -6.053  12.550  0.00  0.00     0.035 H 
ATOM     92  H38 TSV d          -6.488  -7.322  11.296  0.00  0.00     0.035 H 
ATOM     93  H41 TSV d          -6.952  -9.089  13.162  0.00  0.00     0.035 H 
ATOM     94  H42 TSV d          -6.746  -7.819  14.416  0.00  0.00     0.035 H 
ATOM     95  H31 TSV d          -8.977  -7.714  12.133  0.00  0.00     0.066 H 
ENDBRANCH  85  88
ENDBRANCH  82  85
ENDBRANCH   2  81
TORSDOF 11
