MODEL 1
REMARK VINA RESULT:      -8.8      0.000      0.000
REMARK  3 active torsions:
REMARK  status: ('A' for Active; 'I' for Inactive)
REMARK    1  A    between atoms: C2_2  and  C22_10 
REMARK    2  A    between atoms: C6_6  and  N1_12 
REMARK    3  A    between atoms: C22_10  and  O22_9 
ROOT
ATOM      1  C1  HNT d          28.076  45.478  18.402  0.00  0.00    -0.012 C 
ATOM      2  C2  HNT d          27.503  44.744  19.616  0.00  0.00     0.126 C 
ATOM      3  C4  HNT d          27.159  42.608  18.490  0.00  0.00     0.106 C 
ATOM      4  C5  HNT d          26.841  42.762  16.005  0.00  0.00    -0.043 A 
ATOM      5  C6  HNT d          26.869  43.435  14.789  0.00  0.00     0.103 A 
ATOM      6  C7  HNT d          27.283  44.764  14.754  0.00  0.00    -0.050 A 
ATOM      7  C8  HNT d          27.669  45.407  15.927  0.00  0.00    -0.074 A 
ATOM      8  C8A HNT d          27.643  44.729  17.140  0.00  0.00    -0.048 A 
ATOM      9  C4A HNT d          27.226  43.401  17.182  0.00  0.00    -0.024 A 
ATOM     10  N41 HNT d          27.867  43.320  19.567  0.00  0.00    -0.065 N 
ATOM     11  H1  HNT d          29.174  45.499  18.464  0.00  0.00     0.043 H 
ATOM     12  H2  HNT d          27.691  46.507  18.374  0.00  0.00     0.043 H 
ATOM     13  H3  HNT d          26.406  44.818  19.577  0.00  0.00     0.088 H 
ATOM     14  H4  HNT d          27.626  41.624  18.339  0.00  0.00     0.083 H 
ATOM     15  H5  HNT d          26.105  42.475  18.777  0.00  0.00     0.083 H 
ATOM     16  H6  HNT d          26.516  41.728  16.038  0.00  0.00     0.088 H 
ATOM     17  H7  HNT d          27.304  45.299  13.812  0.00  0.00     0.087 H 
ATOM     18  H8  HNT d          27.993  46.441  15.894  0.00  0.00     0.084 H 
ATOM     19  H12 HNT d          27.631  42.893  20.450  0.00  0.00     0.278 HD
ATOM     20  H13 HNT d          28.860  43.241  19.411  0.00  0.00     0.278 HD
ENDROOT
BRANCH   2  21
ATOM     21  C22 HNT d          27.974  45.404  20.915  0.00  0.00     0.044 C 
ATOM     22  H10 HNT d          27.932  46.498  20.807  0.00  0.00     0.077 H 
ATOM     23  H11 HNT d          29.008  45.096  21.129  0.00  0.00     0.077 H 
BRANCH  21  24
ATOM     24  O22 HNT d          27.123  44.999  21.989  0.00  0.00    -0.399 OA
ATOM     25  H9  HNT d          27.441  45.373  22.803  0.00  0.00     0.209 HD
ENDBRANCH  21  24
ENDBRANCH   2  21
BRANCH   5  26
ATOM     26  N1  HNT d          26.563  42.801  13.657  0.00  0.00    -0.116 N 
ATOM     27  O2  HNT d          26.646  41.385  13.574  0.00  0.00    -0.532 OA
ATOM     28  O3  HNT d          26.146  43.535  12.514  0.00  0.00    -0.532 OA
ENDBRANCH   5  26
TORSDOF 3
ENDMDL
MODEL 2
REMARK VINA RESULT:      -7.4      1.336      6.000
REMARK  3 active torsions:
REMARK  status: ('A' for Active; 'I' for Inactive)
REMARK    1  A    between atoms: C2_2  and  C22_10 
REMARK    2  A    between atoms: C6_6  and  N1_12 
REMARK    3  A    between atoms: C22_10  and  O22_9 
ROOT
ATOM      1  C1  HNT d          26.752  42.539  15.695  0.00  0.00    -0.012 C 
ATOM      2  C2  HNT d          26.442  43.487  14.535  0.00  0.00     0.126 C 
ATOM      3  C4  HNT d          27.667  45.399  15.428  0.00  0.00     0.106 C 
ATOM      4  C5  HNT d          27.913  45.425  17.925  0.00  0.00    -0.043 A 
ATOM      5  C6  HNT d          27.832  44.847  19.187  0.00  0.00     0.103 A 
ATOM      6  C7  HNT d          27.399  43.529  19.307  0.00  0.00    -0.050 A 
ATOM      7  C8  HNT d          27.056  42.800  18.172  0.00  0.00    -0.074 A 
ATOM      8  C8A HNT d          27.141  43.381  16.912  0.00  0.00    -0.048 A 
ATOM      9  C4A HNT d          27.570  44.699  16.786  0.00  0.00    -0.024 A 
ATOM     10  N41 HNT d          27.560  44.423  14.330  0.00  0.00    -0.065 N 
ATOM     11  H1  HNT d          27.585  41.875  15.419  0.00  0.00     0.043 H 
ATOM     12  H2  HNT d          25.864  41.935  15.929  0.00  0.00     0.043 H 
ATOM     13  H3  HNT d          25.550  44.075  14.800  0.00  0.00     0.088 H 
ATOM     14  H4  HNT d          28.636  45.916  15.356  0.00  0.00     0.083 H 
ATOM     15  H5  HNT d          26.852  46.132  15.340  0.00  0.00     0.083 H 
ATOM     16  H6  HNT d          28.246  46.452  17.827  0.00  0.00     0.088 H 
ATOM     17  H7  HNT d          27.328  43.070  20.287  0.00  0.00     0.087 H 
ATOM     18  H8  HNT d          26.721  41.773  18.271  0.00  0.00     0.084 H 
ATOM     19  H12 HNT d          27.414  44.919  13.464  0.00  0.00     0.278 HD
ATOM     20  H13 HNT d          28.418  43.898  14.275  0.00  0.00     0.278 HD
ENDROOT
BRANCH   2  21
ATOM     21  C22 HNT d          26.125  42.697  13.263  0.00  0.00     0.044 C 
ATOM     22  H10 HNT d          26.543  43.221  12.391  0.00  0.00     0.077 H 
ATOM     23  H11 HNT d          25.035  42.607  13.149  0.00  0.00     0.077 H 
BRANCH  21  24
ATOM     24  O22 HNT d          26.704  41.393  13.358  0.00  0.00    -0.399 OA
ATOM     25  H9  HNT d          27.554  41.454  13.778  0.00  0.00     0.209 HD
ENDBRANCH  21  24
ENDBRANCH   2  21
BRANCH   5  26
ATOM     26  N1  HNT d          28.224  45.523  20.267  0.00  0.00    -0.116 N 
ATOM     27  O2  HNT d          29.030  46.686  20.142  0.00  0.00    -0.532 OA
ATOM     28  O3  HNT d          27.836  45.088  21.563  0.00  0.00    -0.532 OA
ENDBRANCH   5  26
TORSDOF 3
ENDMDL
MODEL 3
REMARK VINA RESULT:      -7.2      1.606      5.637
REMARK  3 active torsions:
REMARK  status: ('A' for Active; 'I' for Inactive)
REMARK    1  A    between atoms: C2_2  and  C22_10 
REMARK    2  A    between atoms: C6_6  and  N1_12 
REMARK    3  A    between atoms: C22_10  and  O22_9 
ROOT
ATOM      1  C1  HNT d          26.943  43.566  15.249  0.00  0.00    -0.012 C 
ATOM      2  C2  HNT d          26.862  42.041  15.344  0.00  0.00     0.126 C 
ATOM      3  C4  HNT d          26.508  41.951  17.756  0.00  0.00     0.106 C 
ATOM      4  C5  HNT d          27.407  43.917  19.031  0.00  0.00    -0.043 A 
ATOM      5  C6  HNT d          27.940  45.197  19.126  0.00  0.00     0.103 A 
ATOM      6  C7  HNT d          28.150  45.935  17.964  0.00  0.00    -0.050 A 
ATOM      7  C8  HNT d          27.822  45.396  16.724  0.00  0.00    -0.074 A 
ATOM      8  C8A HNT d          27.286  44.117  16.635  0.00  0.00    -0.048 A 
ATOM      9  C4A HNT d          27.078  43.371  17.792  0.00  0.00    -0.024 A 
ATOM     10  N41 HNT d          25.948  41.648  16.428  0.00  0.00    -0.065 N 
ATOM     11  H1  HNT d          25.975  43.970  14.917  0.00  0.00     0.043 H 
ATOM     12  H2  HNT d          27.725  43.853  14.531  0.00  0.00     0.043 H 
ATOM     13  H3  HNT d          27.864  41.658  15.587  0.00  0.00     0.088 H 
ATOM     14  H4  HNT d          25.713  41.862  18.511  0.00  0.00     0.083 H 
ATOM     15  H5  HNT d          27.311  41.234  17.982  0.00  0.00     0.083 H 
ATOM     16  H6  HNT d          27.245  43.336  19.933  0.00  0.00     0.088 H 
ATOM     17  H7  HNT d          28.570  46.933  18.026  0.00  0.00     0.087 H 
ATOM     18  H8  HNT d          27.986  45.976  15.823  0.00  0.00     0.084 H 
ATOM     19  H12 HNT d          25.776  40.656  16.365  0.00  0.00     0.278 HD
ATOM     20  H13 HNT d          25.079  42.147  16.319  0.00  0.00     0.278 HD
ENDROOT
BRANCH   2  21
ATOM     21  C22 HNT d          26.440  41.440  14.001  0.00  0.00     0.044 C 
ATOM     22  H10 HNT d          25.359  41.236  14.013  0.00  0.00     0.077 H 
ATOM     23  H11 HNT d          26.988  40.501  13.832  0.00  0.00     0.077 H 
BRANCH  21  24
ATOM     24  O22 HNT d          26.740  42.363  12.952  0.00  0.00    -0.399 OA
ATOM     25  H9  HNT d          26.940  41.883  12.156  0.00  0.00     0.209 HD
ENDBRANCH  21  24
ENDBRANCH   2  21
BRANCH   5  26
ATOM     26  N1  HNT d          28.192  45.739  20.317  0.00  0.00    -0.116 N 
ATOM     27  O2  HNT d          27.764  45.098  21.510  0.00  0.00    -0.532 OA
ATOM     28  O3  HNT d          28.897  46.970  20.410  0.00  0.00    -0.532 OA
ENDBRANCH   5  26
TORSDOF 3
ENDMDL
