MODEL 1
REMARK VINA RESULT:      -9.7      0.000      0.000
REMARK  3 active torsions:
REMARK  status: ('A' for Active; 'I' for Inactive)
REMARK    1  A    between atoms: C1_1  and  O1_2 
REMARK    2  A    between atoms: C10_11  and  C11_12 
REMARK    3  A    between atoms: C14_15  and  C15_16 
ROOT
ATOM      1  C1  MOL d          23.244   7.011  10.988  0.00  0.00     0.066 A 
ATOM      2  C2  MOL d          23.138   5.641  10.728  0.00  0.00    -0.049 A 
ATOM      3  C3  MOL d          22.943   4.727  11.765  0.00  0.00    -0.054 A 
ATOM      4  C4  MOL d          22.857   5.200  13.072  0.00  0.00     0.044 A 
ATOM      5  C5  MOL d          22.964   6.558  13.313  0.00  0.00     0.006 A 
ATOM      6  C6  MOL d          23.157   7.490  12.296  0.00  0.00    -0.038 A 
ATOM      7  N7  MOL d          22.675   4.608  14.296  0.00  0.00    -0.354 N 
ATOM      8  C8  MOL d          22.657   5.517  15.328  0.00  0.00     0.051 A 
ATOM      9  C9  MOL d          22.837   6.765  14.759  0.00  0.00     0.011 A 
ATOM     10  C10 MOL d          22.502   5.411  16.706  0.00  0.00    -0.023 A 
ATOM     11  C12 MOL d          22.534   6.572  17.492  0.00  0.00    -0.011 A 
ATOM     12  C13 MOL d          22.721   7.843  16.906  0.00  0.00     0.036 A 
ATOM     13  C14 MOL d          22.875   7.947  15.507  0.00  0.00    -0.033 A 
ATOM     14  C16 MOL d          22.384   6.475  18.879  0.00  0.00    -0.057 A 
ATOM     15  C17 MOL d          22.416   7.625  19.665  0.00  0.00    -0.020 A 
ATOM     16  N18 MOL d          22.591   8.828  19.091  0.00  0.00    -0.344 N 
ATOM     17  C19 MOL d          22.743   8.965  17.759  0.00  0.00     0.190 A 
ATOM     18  O19 MOL d          22.913  10.226  17.268  0.00  0.00    -0.171 OA
ATOM     19  H2  MOL d          23.206   5.284   9.706  0.00  0.00     0.087 H 
ATOM     20  H3  MOL d          22.862   3.667  11.556  0.00  0.00     0.087 H 
ATOM     21  H4  MOL d          23.236   8.550  12.512  0.00  0.00     0.089 H 
ATOM     22  H5  MOL d          22.565   3.593  14.429  0.00  0.00     0.166 HD
ATOM     23  H12 MOL d          22.243   5.501  19.344  0.00  0.00     0.086 H 
ATOM     24  H13 MOL d          22.300   7.548  20.745  0.00  0.00     0.111 H 
ATOM     25  H14 MOL d          22.609   9.644  19.668  0.00  0.00     0.167 HD
ENDROOT
BRANCH  10  26
ATOM     26  C11 MOL d          22.306   4.046  17.325  0.00  0.00    -0.048 C 
ATOM     27  H6  MOL d          22.779   4.023  18.319  0.00  0.00     0.033 H 
ATOM     28  H7  MOL d          22.768   3.282  16.683  0.00  0.00     0.033 H 
ATOM     29  H8  MOL d          21.231   3.839  17.426  0.00  0.00     0.033 H 
ENDBRANCH  10  26
BRANCH  13  30
ATOM     30  C15 MOL d          23.081   9.277  14.812  0.00  0.00    -0.049 C 
ATOM     31  H9  MOL d          22.634   9.239  13.807  0.00  0.00     0.033 H 
ATOM     32  H10 MOL d          24.158   9.483  14.726  0.00  0.00     0.033 H 
ATOM     33  H11 MOL d          22.600  10.075  15.397  0.00  0.00     0.033 H 
ENDBRANCH  13  30
BRANCH   1  34
ATOM     34  O1  MOL d          23.431   7.883   9.955  0.00  0.00    -0.361 OA
ATOM     35  H1  MOL d          24.292   8.279  10.029  0.00  0.00     0.217 HD
ENDBRANCH   1  34
TORSDOF 3
ENDMDL
MODEL 2
REMARK VINA RESULT:      -9.6      2.081      5.663
REMARK  3 active torsions:
REMARK  status: ('A' for Active; 'I' for Inactive)
REMARK    1  A    between atoms: C1_1  and  O1_2 
REMARK    2  A    between atoms: C10_11  and  C11_12 
REMARK    3  A    between atoms: C14_15  and  C15_16 
ROOT
ATOM      1  C1  MOL d          22.366   5.895  18.768  0.00  0.00     0.066 A 
ATOM      2  C2  MOL d          22.310   4.498  18.793  0.00  0.00    -0.049 A 
ATOM      3  C3  MOL d          22.362   3.756  17.612  0.00  0.00    -0.054 A 
ATOM      4  C4  MOL d          22.472   4.431  16.398  0.00  0.00     0.044 A 
ATOM      5  C5  MOL d          22.526   5.813  16.390  0.00  0.00     0.006 A 
ATOM      6  C6  MOL d          22.477   6.575  17.554  0.00  0.00    -0.038 A 
ATOM      7  N7  MOL d          22.546   4.038  15.086  0.00  0.00    -0.354 N 
ATOM      8  C8  MOL d          22.650   5.100  14.219  0.00  0.00     0.051 A 
ATOM      9  C9  MOL d          22.640   6.245  14.993  0.00  0.00     0.011 A 
ATOM     10  C10 MOL d          22.754   5.211  12.836  0.00  0.00    -0.023 A 
ATOM     11  C12 MOL d          22.844   6.484  12.255  0.00  0.00    -0.011 A 
ATOM     12  C13 MOL d          22.832   7.650  13.051  0.00  0.00     0.036 A 
ATOM     13  C14 MOL d          22.728   7.533  14.453  0.00  0.00    -0.033 A 
ATOM     14  C16 MOL d          22.944   6.606  10.866  0.00  0.00    -0.057 A 
ATOM     15  C17 MOL d          23.034   7.868  10.282  0.00  0.00    -0.020 A 
ATOM     16  N18 MOL d          23.024   8.969  11.055  0.00  0.00    -0.344 N 
ATOM     17  C19 MOL d          22.926   8.896  12.396  0.00  0.00     0.190 A 
ATOM     18  O19 MOL d          22.925  10.066  13.096  0.00  0.00    -0.171 OA
ATOM     19  H2  MOL d          22.224   3.984  19.744  0.00  0.00     0.087 H 
ATOM     20  H3  MOL d          22.318   2.674  17.639  0.00  0.00     0.087 H 
ATOM     21  H4  MOL d          22.524   7.658  17.520  0.00  0.00     0.089 H 
ATOM     22  H5  MOL d          22.527   3.054  14.782  0.00  0.00     0.166 HD
ATOM     23  H12 MOL d          22.952   5.715  10.240  0.00  0.00     0.086 H 
ATOM     24  H13 MOL d          23.111   7.963   9.200  0.00  0.00     0.111 H 
ATOM     25  H14 MOL d          23.091   9.867  10.621  0.00  0.00     0.167 HD
ENDROOT
BRANCH  10  26
ATOM     26  C11 MOL d          22.763   3.957  11.991  0.00  0.00    -0.048 C 
ATOM     27  H6  MOL d          22.160   3.180  12.483  0.00  0.00     0.033 H 
ATOM     28  H7  MOL d          23.797   3.600  11.876  0.00  0.00     0.033 H 
ATOM     29  H8  MOL d          22.339   4.179  11.001  0.00  0.00     0.033 H 
ENDBRANCH  10  26
BRANCH  13  30
ATOM     30  C15 MOL d          22.706   8.741  15.367  0.00  0.00    -0.049 C 
ATOM     31  H9  MOL d          23.285   9.558  14.910  0.00  0.00     0.033 H 
ATOM     32  H10 MOL d          23.152   8.475  16.337  0.00  0.00     0.033 H 
ATOM     33  H11 MOL d          21.667   9.068  15.518  0.00  0.00     0.033 H 
ENDBRANCH  13  30
BRANCH   1  34
ATOM     34  O1  MOL d          22.315   6.595  19.938  0.00  0.00    -0.361 OA
ATOM     35  H1  MOL d          23.086   7.146  20.010  0.00  0.00     0.217 HD
ENDBRANCH   1  34
TORSDOF 3
ENDMDL
MODEL 3
REMARK VINA RESULT:      -9.5      2.227      6.478
REMARK  3 active torsions:
REMARK  status: ('A' for Active; 'I' for Inactive)
REMARK    1  A    between atoms: C1_1  and  O1_2 
REMARK    2  A    between atoms: C10_11  and  C11_12 
REMARK    3  A    between atoms: C14_15  and  C15_16 
ROOT
ATOM      1  C1  MOL d          22.275   4.951  18.494  0.00  0.00     0.066 A 
ATOM      2  C2  MOL d          22.303   6.137  19.234  0.00  0.00    -0.049 A 
ATOM      3  C3  MOL d          22.461   7.372  18.604  0.00  0.00    -0.054 A 
ATOM      4  C4  MOL d          22.592   7.409  17.217  0.00  0.00     0.044 A 
ATOM      5  C5  MOL d          22.562   6.227  16.500  0.00  0.00     0.006 A 
ATOM      6  C6  MOL d          22.405   4.983  17.105  0.00  0.00    -0.038 A 
ATOM      7  N7  MOL d          22.759   8.412  16.296  0.00  0.00    -0.354 N 
ATOM      8  C8  MOL d          22.837   7.940  15.007  0.00  0.00     0.051 A 
ATOM      9  C9  MOL d          22.720   6.565  15.081  0.00  0.00     0.011 A 
ATOM     10  C10 MOL d          22.996   8.546  13.765  0.00  0.00    -0.023 A 
ATOM     11  C12 MOL d          23.037   7.749  12.612  0.00  0.00    -0.011 A 
ATOM     12  C13 MOL d          22.919   6.344  12.695  0.00  0.00     0.036 A 
ATOM     13  C14 MOL d          22.756   5.733  13.956  0.00  0.00    -0.033 A 
ATOM     14  C16 MOL d          23.202   8.348  11.360  0.00  0.00    -0.057 A 
ATOM     15  C17 MOL d          23.244   7.561  10.212  0.00  0.00    -0.020 A 
ATOM     16  N18 MOL d          23.127   6.225  10.307  0.00  0.00    -0.344 N 
ATOM     17  C19 MOL d          22.970   5.607  11.494  0.00  0.00     0.190 A 
ATOM     18  O19 MOL d          22.858   4.248  11.490  0.00  0.00    -0.171 OA
ATOM     19  H2  MOL d          22.200   6.096  20.313  0.00  0.00     0.087 H 
ATOM     20  H3  MOL d          22.481   8.287  19.184  0.00  0.00     0.087 H 
ATOM     21  H4  MOL d          22.383   4.071  16.518  0.00  0.00     0.089 H 
ATOM     22  H5  MOL d          22.818   9.410  16.543  0.00  0.00     0.166 HD
ATOM     23  H12 MOL d          23.297   9.430  11.283  0.00  0.00     0.086 H 
ATOM     24  H13 MOL d          23.372   8.028   9.236  0.00  0.00     0.111 H 
ATOM     25  H14 MOL d          23.156   5.674   9.473  0.00  0.00     0.167 HD
ENDROOT
BRANCH  10  26
ATOM     26  C11 MOL d          23.125  10.050  13.687  0.00  0.00    -0.048 C 
ATOM     27  H6  MOL d          22.137  10.511  13.831  0.00  0.00     0.033 H 
ATOM     28  H7  MOL d          23.522  10.334  12.701  0.00  0.00     0.033 H 
ATOM     29  H8  MOL d          23.811  10.401  14.472  0.00  0.00     0.033 H 
ENDBRANCH  10  26
BRANCH  13  30
ATOM     30  C15 MOL d          22.625   4.233  14.118  0.00  0.00    -0.049 C 
ATOM     31  H9  MOL d          22.509   3.765  13.129  0.00  0.00     0.033 H 
ATOM     32  H10 MOL d          21.744   4.006  14.736  0.00  0.00     0.033 H 
ATOM     33  H11 MOL d          23.527   3.837  14.607  0.00  0.00     0.033 H 
ENDBRANCH  13  30
BRANCH   1  34
ATOM     34  O1  MOL d          22.116   3.757  19.135  0.00  0.00    -0.361 OA
ATOM     35  H1  MOL d          21.461   3.240  18.682  0.00  0.00     0.217 HD
ENDBRANCH   1  34
TORSDOF 3
ENDMDL
MODEL 4
REMARK VINA RESULT:      -9.4      1.564      5.835
REMARK  3 active torsions:
REMARK  status: ('A' for Active; 'I' for Inactive)
REMARK    1  A    between atoms: C1_1  and  O1_2 
REMARK    2  A    between atoms: C10_11  and  C11_12 
REMARK    3  A    between atoms: C14_15  and  C15_16 
ROOT
ATOM      1  C1  MOL d          22.598   9.613  18.262  0.00  0.00     0.066 A 
ATOM      2  C2  MOL d          22.496   8.521  19.129  0.00  0.00    -0.049 A 
ATOM      3  C3  MOL d          22.519   7.214  18.643  0.00  0.00    -0.054 A 
ATOM      4  C4  MOL d          22.646   7.008  17.271  0.00  0.00     0.044 A 
ATOM      5  C5  MOL d          22.746   8.099  16.426  0.00  0.00     0.006 A 
ATOM      6  C6  MOL d          22.727   9.412  16.887  0.00  0.00    -0.038 A 
ATOM      7  N7  MOL d          22.703   5.896  16.469  0.00  0.00    -0.354 N 
ATOM      8  C8  MOL d          22.838   6.210  15.137  0.00  0.00     0.051 A 
ATOM      9  C9  MOL d          22.869   7.589  15.056  0.00  0.00     0.011 A 
ATOM     10  C10 MOL d          22.940   5.455  13.972  0.00  0.00    -0.023 A 
ATOM     11  C12 MOL d          23.070   6.109  12.739  0.00  0.00    -0.011 A 
ATOM     12  C13 MOL d          23.099   7.519  12.663  0.00  0.00     0.036 A 
ATOM     13  C14 MOL d          22.997   8.281  13.846  0.00  0.00    -0.033 A 
ATOM     14  C16 MOL d          23.169   5.360  11.563  0.00  0.00    -0.057 A 
ATOM     15  C17 MOL d          23.297   6.004  10.335  0.00  0.00    -0.020 A 
ATOM     16  N18 MOL d          23.327   7.348  10.280  0.00  0.00    -0.344 N 
ATOM     17  C19 MOL d          23.231   8.107  11.388  0.00  0.00     0.190 A 
ATOM     18  O19 MOL d          23.272   9.462  11.233  0.00  0.00    -0.171 OA
ATOM     19  H2  MOL d          22.397   8.693  20.195  0.00  0.00     0.087 H 
ATOM     20  H3  MOL d          22.440   6.372  19.321  0.00  0.00     0.087 H 
ATOM     21  H4  MOL d          22.809  10.250  16.203  0.00  0.00     0.089 H 
ATOM     22  H5  MOL d          22.650   4.932  16.825  0.00  0.00     0.166 HD
ATOM     23  H12 MOL d          23.145   4.272  11.608  0.00  0.00     0.086 H 
ATOM     24  H13 MOL d          23.374   5.420   9.419  0.00  0.00     0.111 H 
ATOM     25  H14 MOL d          23.422   7.795   9.391  0.00  0.00     0.167 HD
ENDROOT
BRANCH  10  26
ATOM     26  C11 MOL d          22.905   3.946  14.064  0.00  0.00    -0.048 C 
ATOM     27  H6  MOL d          23.497   3.618  14.930  0.00  0.00     0.033 H 
ATOM     28  H7  MOL d          23.328   3.513  13.145  0.00  0.00     0.033 H 
ATOM     29  H8  MOL d          21.864   3.610  14.182  0.00  0.00     0.033 H 
ENDBRANCH  10  26
BRANCH  13  30
ATOM     30  C15 MOL d          23.019   9.796  13.838  0.00  0.00    -0.049 C 
ATOM     31  H9  MOL d          23.581  10.160  14.711  0.00  0.00     0.033 H 
ATOM     32  H10 MOL d          21.989  10.177  13.881  0.00  0.00     0.033 H 
ATOM     33  H11 MOL d          23.503  10.151  12.917  0.00  0.00     0.033 H 
ENDBRANCH  13  30
BRANCH   1  34
ATOM     34  O1  MOL d          22.575  10.881  18.765  0.00  0.00    -0.361 OA
ATOM     35  H1  MOL d          23.464  11.166  18.942  0.00  0.00     0.217 HD
ENDBRANCH   1  34
TORSDOF 3
ENDMDL
MODEL 5
REMARK VINA RESULT:      -9.0      2.112      3.241
REMARK  3 active torsions:
REMARK  status: ('A' for Active; 'I' for Inactive)
REMARK    1  A    between atoms: C1_1  and  O1_2 
REMARK    2  A    between atoms: C10_11  and  C11_12 
REMARK    3  A    between atoms: C14_15  and  C15_16 
ROOT
ATOM      1  C1  MOL d          22.920   4.948  12.139  0.00  0.00     0.066 A 
ATOM      2  C2  MOL d          23.163   6.124  11.423  0.00  0.00    -0.049 A 
ATOM      3  C3  MOL d          23.259   7.354  12.076  0.00  0.00    -0.054 A 
ATOM      4  C4  MOL d          23.108   7.395  13.460  0.00  0.00     0.044 A 
ATOM      5  C5  MOL d          22.868   6.223  14.153  0.00  0.00     0.006 A 
ATOM      6  C6  MOL d          22.770   4.983  13.526  0.00  0.00    -0.038 A 
ATOM      7  N7  MOL d          23.139   8.395  14.399  0.00  0.00    -0.354 N 
ATOM      8  C8  MOL d          22.933   7.930  15.676  0.00  0.00     0.051 A 
ATOM      9  C9  MOL d          22.755   6.563  15.576  0.00  0.00     0.011 A 
ATOM     10  C10 MOL d          22.880   8.535  16.928  0.00  0.00    -0.023 A 
ATOM     11  C12 MOL d          22.644   7.747  18.063  0.00  0.00    -0.011 A 
ATOM     12  C13 MOL d          22.461   6.351  17.953  0.00  0.00     0.036 A 
ATOM     13  C14 MOL d          22.518   5.740  16.682  0.00  0.00    -0.033 A 
ATOM     14  C16 MOL d          22.584   8.347  19.324  0.00  0.00    -0.057 A 
ATOM     15  C17 MOL d          22.349   7.568  20.455  0.00  0.00    -0.020 A 
ATOM     16  N18 MOL d          22.180   6.239  20.334  0.00  0.00    -0.344 N 
ATOM     17  C19 MOL d          22.227   5.622  19.137  0.00  0.00     0.190 A 
ATOM     18  O19 MOL d          22.045   4.271  19.115  0.00  0.00    -0.171 OA
ATOM     19  H2  MOL d          23.279   6.080  10.346  0.00  0.00     0.087 H 
ATOM     20  H3  MOL d          23.447   8.262  11.514  0.00  0.00     0.087 H 
ATOM     21  H4  MOL d          22.583   4.079  14.094  0.00  0.00     0.089 H 
ATOM     22  H5  MOL d          23.300   9.387  14.172  0.00  0.00     0.166 HD
ATOM     23  H12 MOL d          22.720   9.422  19.422  0.00  0.00     0.086 H 
ATOM     24  H13 MOL d          22.302   8.036  21.437  0.00  0.00     0.111 H 
ATOM     25  H14 MOL d          22.015   5.694  21.156  0.00  0.00     0.167 HD
ENDROOT
BRANCH  10  26
ATOM     26  C11 MOL d          23.074  10.031  17.034  0.00  0.00    -0.048 C 
ATOM     27  H6  MOL d          22.101  10.515  17.210  0.00  0.00     0.033 H 
ATOM     28  H7  MOL d          23.509  10.413  16.099  0.00  0.00     0.033 H 
ATOM     29  H8  MOL d          23.751  10.255  17.872  0.00  0.00     0.033 H 
ENDBRANCH  10  26
BRANCH  13  30
ATOM     30  C15 MOL d          22.328   4.249  16.491  0.00  0.00    -0.049 C 
ATOM     31  H9  MOL d          21.286   4.045  16.204  0.00  0.00     0.033 H 
ATOM     32  H10 MOL d          22.557   3.727  17.432  0.00  0.00     0.033 H 
ATOM     33  H11 MOL d          23.003   3.892  15.700  0.00  0.00     0.033 H 
ENDBRANCH  13  30
BRANCH   1  34
ATOM     34  O1  MOL d          22.834   3.758  11.476  0.00  0.00    -0.361 OA
ATOM     35  H1  MOL d          21.992   3.700  11.040  0.00  0.00     0.217 HD
ENDBRANCH   1  34
TORSDOF 3
ENDMDL
MODEL 6
REMARK VINA RESULT:      -8.9      2.024      6.573
REMARK  3 active torsions:
REMARK  status: ('A' for Active; 'I' for Inactive)
REMARK    1  A    between atoms: C1_1  and  O1_2 
REMARK    2  A    between atoms: C10_11  and  C11_12 
REMARK    3  A    between atoms: C14_15  and  C15_16 
ROOT
ATOM      1  C1  MOL d          22.518   8.057  19.158  0.00  0.00     0.066 A 
ATOM      2  C2  MOL d          22.573   9.454  19.175  0.00  0.00    -0.049 A 
ATOM      3  C3  MOL d          22.717  10.180  17.991  0.00  0.00    -0.054 A 
ATOM      4  C4  MOL d          22.807   9.490  16.784  0.00  0.00     0.044 A 
ATOM      5  C5  MOL d          22.751   8.108  16.786  0.00  0.00     0.006 A 
ATOM      6  C6  MOL d          22.606   7.361  17.952  0.00  0.00    -0.038 A 
ATOM      7  N7  MOL d          22.949   9.866  15.473  0.00  0.00    -0.354 N 
ATOM      8  C8  MOL d          22.987   8.792  14.615  0.00  0.00     0.051 A 
ATOM      9  C9  MOL d          22.867   7.657  15.395  0.00  0.00     0.011 A 
ATOM     10  C10 MOL d          23.111   8.662  13.235  0.00  0.00    -0.023 A 
ATOM     11  C12 MOL d          23.114   7.382  12.663  0.00  0.00    -0.011 A 
ATOM     12  C13 MOL d          22.993   6.227  13.466  0.00  0.00     0.036 A 
ATOM     13  C14 MOL d          22.865   6.362  14.864  0.00  0.00    -0.033 A 
ATOM     14  C16 MOL d          23.243   7.241  11.279  0.00  0.00    -0.057 A 
ATOM     15  C17 MOL d          23.248   5.972  10.705  0.00  0.00    -0.020 A 
ATOM     16  N18 MOL d          23.128   4.882  11.483  0.00  0.00    -0.344 N 
ATOM     17  C19 MOL d          23.005   4.973  12.821  0.00  0.00     0.190 A 
ATOM     18  O19 MOL d          22.888   3.811  13.527  0.00  0.00    -0.171 OA
ATOM     19  H2  MOL d          22.502   9.981  20.120  0.00  0.00     0.087 H 
ATOM     20  H3  MOL d          22.759  11.263  18.011  0.00  0.00     0.087 H 
ATOM     21  H4  MOL d          22.563   6.278  17.925  0.00  0.00     0.089 H 
ATOM     22  H5  MOL d          23.020  10.846  15.164  0.00  0.00     0.166 HD
ATOM     23  H12 MOL d          23.340   8.124  10.648  0.00  0.00     0.086 H 
ATOM     24  H13 MOL d          23.349   5.863   9.626  0.00  0.00     0.111 H 
ATOM     25  H14 MOL d          23.131   3.977  11.056  0.00  0.00     0.167 HD
ENDROOT
BRANCH  10  26
ATOM     26  C11 MOL d          23.244   9.905  12.384  0.00  0.00    -0.048 C 
ATOM     27  H6  MOL d          22.266  10.156  11.947  0.00  0.00     0.033 H 
ATOM     28  H7  MOL d          23.969   9.722  11.578  0.00  0.00     0.033 H 
ATOM     29  H8  MOL d          23.592  10.742  13.008  0.00  0.00     0.033 H 
ENDBRANCH  10  26
BRANCH  13  30
ATOM     30  C15 MOL d          22.734   5.166  15.785  0.00  0.00    -0.049 C 
ATOM     31  H9  MOL d          23.732   4.856  16.129  0.00  0.00     0.033 H 
ATOM     32  H10 MOL d          22.259   4.337  15.243  0.00  0.00     0.033 H 
ATOM     33  H11 MOL d          22.116   5.438  16.654  0.00  0.00     0.033 H 
ENDBRANCH  13  30
BRANCH   1  34
ATOM     34  O1  MOL d          22.375   7.373  20.330  0.00  0.00    -0.361 OA
ATOM     35  H1  MOL d          23.202   7.370  20.797  0.00  0.00     0.217 HD
ENDBRANCH   1  34
TORSDOF 3
ENDMDL
MODEL 7
REMARK VINA RESULT:      -8.7      2.235      3.560
REMARK  3 active torsions:
REMARK  status: ('A' for Active; 'I' for Inactive)
REMARK    1  A    between atoms: C1_1  and  O1_2 
REMARK    2  A    between atoms: C10_11  and  C11_12 
REMARK    3  A    between atoms: C14_15  and  C15_16 
ROOT
ATOM      1  C1  MOL d          23.226   8.459  11.193  0.00  0.00     0.066 A 
ATOM      2  C2  MOL d          23.375   9.844  11.318  0.00  0.00    -0.049 A 
ATOM      3  C3  MOL d          23.344  10.458  12.571  0.00  0.00    -0.054 A 
ATOM      4  C4  MOL d          23.161   9.668  13.704  0.00  0.00     0.044 A 
ATOM      5  C5  MOL d          23.016   8.300  13.562  0.00  0.00     0.006 A 
ATOM      6  C6  MOL d          23.044   7.663  12.324  0.00  0.00    -0.038 A 
ATOM      7  N7  MOL d          23.082   9.924  15.049  0.00  0.00    -0.354 N 
ATOM      8  C8  MOL d          22.893   8.785  15.796  0.00  0.00     0.051 A 
ATOM      9  C9  MOL d          22.843   7.730  14.903  0.00  0.00     0.011 A 
ATOM     10  C10 MOL d          22.758   8.534  17.158  0.00  0.00    -0.023 A 
ATOM     11  C12 MOL d          22.572   7.215  17.598  0.00  0.00    -0.011 A 
ATOM     12  C13 MOL d          22.520   6.143  16.680  0.00  0.00     0.036 A 
ATOM     13  C14 MOL d          22.659   6.401  15.300  0.00  0.00    -0.033 A 
ATOM     14  C16 MOL d          22.431   6.954  18.963  0.00  0.00    -0.057 A 
ATOM     15  C17 MOL d          22.245   5.646  19.406  0.00  0.00    -0.020 A 
ATOM     16  N18 MOL d          22.201   4.635  18.521  0.00  0.00    -0.344 N 
ATOM     17  C19 MOL d          22.329   4.844  17.196  0.00  0.00     0.190 A 
ATOM     18  O19 MOL d          22.273   3.757  16.375  0.00  0.00    -0.171 OA
ATOM     19  H2  MOL d          23.516  10.449  10.430  0.00  0.00     0.087 H 
ATOM     20  H3  MOL d          23.460  11.532  12.661  0.00  0.00     0.087 H 
ATOM     21  H4  MOL d          22.930   6.588  12.242  0.00  0.00     0.089 H 
ATOM     22  H5  MOL d          23.155  10.867  15.456  0.00  0.00     0.166 HD
ATOM     23  H12 MOL d          22.467   7.772  19.681  0.00  0.00     0.086 H 
ATOM     24  H13 MOL d          22.135   5.443  20.471  0.00  0.00     0.111 H 
ATOM     25  H14 MOL d          22.070   3.702  18.855  0.00  0.00     0.167 HD
ENDROOT
BRANCH  10  26
ATOM     26  C11 MOL d          22.812   9.689  18.131  0.00  0.00    -0.048 C 
ATOM     27  H6  MOL d          23.829  10.107  18.148  0.00  0.00     0.033 H 
ATOM     28  H7  MOL d          22.546   9.333  19.138  0.00  0.00     0.033 H 
ATOM     29  H8  MOL d          22.100  10.467  17.818  0.00  0.00     0.033 H 
ENDBRANCH  10  26
BRANCH  13  30
ATOM     30  C15 MOL d          22.611   5.300  14.261  0.00  0.00    -0.049 C 
ATOM     31  H9  MOL d          21.608   5.266  13.808  0.00  0.00     0.033 H 
ATOM     32  H10 MOL d          22.828   4.334  14.741  0.00  0.00     0.033 H 
ATOM     33  H11 MOL d          23.359   5.499  13.481  0.00  0.00     0.033 H 
ENDBRANCH  13  30
BRANCH   1  34
ATOM     34  O1  MOL d          23.263   7.885   9.955  0.00  0.00    -0.361 OA
ATOM     35  H1  MOL d          24.029   8.194   9.487  0.00  0.00     0.217 HD
ENDBRANCH   1  34
TORSDOF 3
ENDMDL
MODEL 8
REMARK VINA RESULT:      -7.9      1.548      2.319
REMARK  3 active torsions:
REMARK  status: ('A' for Active; 'I' for Inactive)
REMARK    1  A    between atoms: C1_1  and  O1_2 
REMARK    2  A    between atoms: C10_11  and  C11_12 
REMARK    3  A    between atoms: C14_15  and  C15_16 
ROOT
ATOM      1  C1  MOL d          23.066   5.655  13.219  0.00  0.00     0.066 A 
ATOM      2  C2  MOL d          22.925   4.278  13.416  0.00  0.00    -0.049 A 
ATOM      3  C3  MOL d          22.685   3.757  14.688  0.00  0.00    -0.054 A 
ATOM      4  C4  MOL d          22.588   4.632  15.768  0.00  0.00     0.044 A 
ATOM      5  C5  MOL d          22.730   5.991  15.556  0.00  0.00     0.006 A 
ATOM      6  C6  MOL d          22.968   6.536  14.297  0.00  0.00    -0.038 A 
ATOM      7  N7  MOL d          22.367   4.475  17.112  0.00  0.00    -0.354 N 
ATOM      8  C8  MOL d          22.355   5.671  17.791  0.00  0.00     0.051 A 
ATOM      9  C9  MOL d          22.581   6.660  16.853  0.00  0.00     0.011 A 
ATOM     10  C10 MOL d          22.171   6.023  19.124  0.00  0.00    -0.023 A 
ATOM     11  C12 MOL d          22.222   7.376  19.490  0.00  0.00    -0.011 A 
ATOM     12  C13 MOL d          22.457   8.382  18.527  0.00  0.00     0.036 A 
ATOM     13  C14 MOL d          22.640   8.021  17.176  0.00  0.00    -0.033 A 
ATOM     14  C16 MOL d          22.044   7.739  20.828  0.00  0.00    -0.057 A 
ATOM     15  C17 MOL d          22.095   9.081  21.198  0.00  0.00    -0.020 A 
ATOM     16  N18 MOL d          22.315  10.028  20.268  0.00  0.00    -0.344 N 
ATOM     17  C19 MOL d          22.495   9.720  18.969  0.00  0.00     0.190 A 
ATOM     18  O19 MOL d          22.711  10.748  18.099  0.00  0.00    -0.171 OA
ATOM     19  H2  MOL d          23.002   3.606  12.568  0.00  0.00     0.087 H 
ATOM     20  H3  MOL d          22.577   2.688  14.833  0.00  0.00     0.087 H 
ATOM     21  H4  MOL d          23.073   7.607  14.158  0.00  0.00     0.089 H 
ATOM     22  H5  MOL d          22.224   3.561  17.565  0.00  0.00     0.166 HD
ATOM     23  H12 MOL d          21.866   6.973  21.581  0.00  0.00     0.086 H 
ATOM     24  H13 MOL d          21.956   9.364  22.241  0.00  0.00     0.111 H 
ATOM     25  H14 MOL d          22.346  10.987  20.549  0.00  0.00     0.167 HD
ENDROOT
BRANCH  10  26
ATOM     26  C11 MOL d          21.925   4.939  20.148  0.00  0.00    -0.048 C 
ATOM     27  H6  MOL d          22.701   4.988  20.927  0.00  0.00     0.033 H 
ATOM     28  H7  MOL d          21.961   3.955  19.657  0.00  0.00     0.033 H 
ATOM     29  H8  MOL d          20.936   5.084  20.606  0.00  0.00     0.033 H 
ENDBRANCH  10  26
BRANCH  13  30
ATOM     30  C15 MOL d          22.897   9.047  16.091  0.00  0.00    -0.049 C 
ATOM     31  H9  MOL d          23.818   8.786  15.549  0.00  0.00     0.033 H 
ATOM     32  H10 MOL d          23.009  10.041  16.547  0.00  0.00     0.033 H 
ATOM     33  H11 MOL d          22.050   9.059  15.389  0.00  0.00     0.033 H 
ENDBRANCH  13  30
BRANCH   1  34
ATOM     34  O1  MOL d          23.297   6.139  11.964  0.00  0.00    -0.361 OA
ATOM     35  H1  MOL d          22.468   6.335  11.544  0.00  0.00     0.217 HD
ENDBRANCH   1  34
TORSDOF 3
ENDMDL
MODEL 9
REMARK VINA RESULT:      -7.6      2.231      6.605
REMARK  3 active torsions:
REMARK  status: ('A' for Active; 'I' for Inactive)
REMARK    1  A    between atoms: C1_1  and  O1_2 
REMARK    2  A    between atoms: C10_11  and  C11_12 
REMARK    3  A    between atoms: C14_15  and  C15_16 
ROOT
ATOM      1  C1  MOL d          22.728   5.285  20.173  0.00  0.00     0.066 A 
ATOM      2  C2  MOL d          22.721   6.544  20.780  0.00  0.00    -0.049 A 
ATOM      3  C3  MOL d          22.785   7.710  20.016  0.00  0.00    -0.054 A 
ATOM      4  C4  MOL d          22.857   7.602  18.628  0.00  0.00     0.044 A 
ATOM      5  C5  MOL d          22.863   6.349  18.043  0.00  0.00     0.006 A 
ATOM      6  C6  MOL d          22.799   5.171  18.784  0.00  0.00    -0.038 A 
ATOM      7  N7  MOL d          22.930   8.505  17.599  0.00  0.00    -0.354 N 
ATOM      8  C8  MOL d          22.981   7.900  16.365  0.00  0.00     0.051 A 
ATOM      9  C9  MOL d          22.943   6.537  16.591  0.00  0.00     0.011 A 
ATOM     10  C10 MOL d          23.055   8.374  15.059  0.00  0.00    -0.023 A 
ATOM     11  C12 MOL d          23.093   7.459  13.997  0.00  0.00    -0.011 A 
ATOM     12  C13 MOL d          23.056   6.068  14.235  0.00  0.00     0.036 A 
ATOM     13  C14 MOL d          22.978   5.591  15.560  0.00  0.00    -0.033 A 
ATOM     14  C16 MOL d          23.172   7.926  12.682  0.00  0.00    -0.057 A 
ATOM     15  C17 MOL d          23.210   7.022  11.623  0.00  0.00    -0.020 A 
ATOM     16  N18 MOL d          23.170   5.700  11.866  0.00  0.00    -0.344 N 
ATOM     17  C19 MOL d          23.097   5.208  13.118  0.00  0.00     0.190 A 
ATOM     18  O19 MOL d          23.060   3.852  13.265  0.00  0.00    -0.171 OA
ATOM     19  H2  MOL d          22.665   6.616  21.861  0.00  0.00     0.087 H 
ATOM     20  H3  MOL d          22.780   8.683  20.493  0.00  0.00     0.087 H 
ATOM     21  H4  MOL d          22.803   4.201  18.299  0.00  0.00     0.089 H 
ATOM     22  H5  MOL d          22.945   9.526  17.734  0.00  0.00     0.166 HD
ATOM     23  H12 MOL d          23.205   8.996  12.485  0.00  0.00     0.086 H 
ATOM     24  H13 MOL d          23.272   7.386  10.599  0.00  0.00     0.111 H 
ATOM     25  H14 MOL d          23.196   5.063  11.095  0.00  0.00     0.167 HD
ENDROOT
BRANCH  10  26
ATOM     26  C11 MOL d          23.098   9.866  14.815  0.00  0.00    -0.048 C 
ATOM     27  H6  MOL d          22.431  10.373  15.528  0.00  0.00     0.033 H 
ATOM     28  H7  MOL d          22.767  10.080  13.788  0.00  0.00     0.033 H 
ATOM     29  H8  MOL d          24.127  10.231  14.952  0.00  0.00     0.033 H 
ENDBRANCH  10  26
BRANCH  13  30
ATOM     30  C15 MOL d          22.937   4.112  15.888  0.00  0.00    -0.049 C 
ATOM     31  H9  MOL d          21.948   3.854  16.297  0.00  0.00     0.033 H 
ATOM     32  H10 MOL d          23.713   3.880  16.631  0.00  0.00     0.033 H 
ATOM     33  H11 MOL d          23.118   3.529  14.973  0.00  0.00     0.033 H 
ENDBRANCH  13  30
BRANCH   1  34
ATOM     34  O1  MOL d          22.662   4.161  20.945  0.00  0.00    -0.361 OA
ATOM     35  H1  MOL d          22.416   3.421  20.403  0.00  0.00     0.217 HD
ENDBRANCH   1  34
TORSDOF 3
ENDMDL
