REMARK  13 active torsions:
REMARK  status: ('A' for Active; 'I' for Inactive)
REMARK    1  A    between atoms: C7_15  and  C1_1 
REMARK    2  A    between atoms: N1_2  and  C5_11 
REMARK    3  A    between atoms: C11_21  and  N1_2 
REMARK    4  A    between atoms: C17_27  and  O1_3 
REMARK    5  A    between atoms: C3_7  and  C19_29 
REMARK    6  A    between atoms: N8_18  and  C4_9 
REMARK    7  A    between atoms: C4_9  and  C16_26 
REMARK    8  A    between atoms: N8_18  and  C13_23 
REMARK    9  A    between atoms: C15_25  and  N8_18 
REMARK   10  A    between atoms: C13_23  and  C14_24 
REMARK   11  A    between atoms: C15_25  and  C17_27 
REMARK   12  A    between atoms: C15_25  and  C18_28 
REMARK   13  A    between atoms: C15_25  and  C20_30 
ROOT
ATOM      1  S1  EML d          -2.440  33.080  81.757  0.00  0.00     0.029 SA
ATOM      2  N6  EML d          -1.484  34.149  82.375  0.00  0.00    -0.212 NA
ATOM      3  C11 EML d          -2.195  33.468  80.087  0.00  0.00     0.096 A 
ATOM      4  C12 EML d          -1.264  34.513  80.093  0.00  0.00    -0.023 A 
ATOM      5  C14 EML d          -0.893  34.865  81.391  0.00  0.00     0.071 A 
ATOM      6  H11 EML d          -0.877  34.992  79.195  0.00  0.00     0.091 H 
ENDROOT
BRANCH   5   7
ATOM      7  C13 EML d           0.102  35.941  81.761  0.00  0.00     0.124 C 
ATOM      8  H12 EML d           1.108  35.506  81.669  0.00  0.00     0.086 H 
ATOM      9  H13 EML d          -0.012  36.760  81.035  0.00  0.00     0.086 H 
BRANCH   7  10
ATOM     10  N8  EML d          -0.008  36.543  83.147  0.00  0.00    -0.056 N 
ATOM     11  H8  EML d          -0.640  35.870  83.552  0.00  0.00     0.281 HD
BRANCH  10  12
ATOM     12  C4  EML d           1.149  36.344  84.023  0.00  0.00     0.082 C 
ATOM     13  H4  EML d           0.785  36.479  85.052  0.00  0.00     0.075 H 
ATOM     14  H5  EML d           1.864  37.144  83.779  0.00  0.00     0.075 H 
BRANCH  12  15
ATOM     15  C16 EML d           1.930  35.062  84.015  0.00  0.00    -0.053 C 
ATOM     16  H14 EML d           2.751  35.128  84.745  0.00  0.00     0.029 H 
ATOM     17  H15 EML d           2.345  34.892  83.011  0.00  0.00     0.029 H 
ATOM     18  H16 EML d           1.267  34.227  84.284  0.00  0.00     0.029 H 
ENDBRANCH  12  15
ENDBRANCH  10  12
BRANCH  10  19
ATOM     19  C15 EML d          -0.809  37.765  83.387  0.00  0.00     0.142 C 
BRANCH  19  20
ATOM     20  C17 EML d          -1.715  37.635  84.633  0.00  0.00     0.047 C 
ATOM     21  H17 EML d          -1.216  38.116  85.487  0.00  0.00     0.077 H 
ATOM     22  H18 EML d          -2.670  38.143  84.433  0.00  0.00     0.077 H 
BRANCH  20  23
ATOM     23  O1  EML d          -1.981  36.259  84.964  0.00  0.00    -0.398 OA
ATOM     24  H2  EML d          -2.539  36.221  85.732  0.00  0.00     0.209 HD
ENDBRANCH  20  23
ENDBRANCH  19  20
BRANCH  19  25
ATOM     25  C18 EML d          -1.840  38.043  82.348  0.00  0.00    -0.043 C 
ATOM     26  H19 EML d          -2.383  38.964  82.607  0.00  0.00     0.030 H 
ATOM     27  H20 EML d          -2.547  37.202  82.299  0.00  0.00     0.030 H 
ATOM     28  H21 EML d          -1.351  38.168  81.371  0.00  0.00     0.030 H 
ENDBRANCH  19  25
BRANCH  19  29
ATOM     29  C20 EML d           0.068  39.049  83.402  0.00  0.00    -0.043 C 
ATOM     30  H25 EML d          -0.570  39.927  83.583  0.00  0.00     0.030 H 
ATOM     31  H26 EML d           0.575  39.158  82.432  0.00  0.00     0.030 H 
ATOM     32  H27 EML d           0.819  38.971  84.202  0.00  0.00     0.030 H 
ENDBRANCH  19  29
ENDBRANCH  10  19
ENDBRANCH   7  10
ENDBRANCH   5   7
BRANCH   3  33
ATOM     33  N1  EML d          -2.804  32.875  78.979  0.00  0.00    -0.331 N 
ATOM     34  H1  EML d          -2.537  33.227  78.049  0.00  0.00     0.168 HD
BRANCH  33  35
ATOM     35  C5  EML d          -3.739  31.851  79.028  0.00  0.00     0.176 A 
ATOM     36  C6  EML d          -4.248  31.273  77.863  0.00  0.00     0.181 A 
ATOM     37  N2  EML d          -4.014  31.609  76.524  0.00  0.00    -0.237 NA
ATOM     38  N3  EML d          -5.163  30.268  77.983  0.00  0.00    -0.299 N 
ATOM     39  C9  EML d          -4.820  30.745  75.873  0.00  0.00     0.032 A 
ATOM     40  C7  EML d          -5.558  29.878  76.721  0.00  0.00     0.071 A 
ATOM     41  H9  EML d          -4.898  30.715  74.787  0.00  0.00     0.118 H 
ATOM     42  C2  EML d          -5.639  29.771  79.177  0.00  0.00     0.011 A 
ATOM     43  C3  EML d          -5.161  30.347  80.330  0.00  0.00     0.049 A 
ATOM     44  H3  EML d          -6.362  28.957  79.206  0.00  0.00     0.115 H 
ATOM     45  N7  EML d          -4.248  31.387  80.225  0.00  0.00    -0.231 NA
BRANCH  40  46
ATOM     46  C1  EML d          -6.609  28.849  76.349  0.00  0.00     0.029 A 
ATOM     47  C8  EML d          -7.764  28.598  77.085  0.00  0.00     0.035 A 
ATOM     48  N5  EML d          -8.402  27.632  76.393  0.00  0.00    -0.187 NA
ATOM     49  H7  EML d          -8.081  29.075  78.011  0.00  0.00     0.118 H 
ATOM     50  N4  EML d          -7.737  27.278  75.278  0.00  0.00    -0.289 N 
ATOM     51  C10 EML d          -6.615  27.996  75.204  0.00  0.00     0.009 A 
ATOM     52  H6  EML d          -8.043  26.570  74.595  0.00  0.00     0.188 HD
ATOM     53  H10 EML d          -5.855  27.942  74.426  0.00  0.00     0.115 H 
ENDBRANCH  40  46
BRANCH  43  54
ATOM     54  C19 EML d          -5.583  29.875  81.678  0.00  0.00    -0.034 C 
ATOM     55  H22 EML d          -5.080  30.475  82.451  0.00  0.00     0.035 H 
ATOM     56  H23 EML d          -5.308  28.817  81.799  0.00  0.00     0.035 H 
ATOM     57  H24 EML d          -6.673  29.985  81.781  0.00  0.00     0.035 H 
ENDBRANCH  43  54
ENDBRANCH  33  35
ENDBRANCH   3  33
TORSDOF 13
