MODEL 1
REMARK VINA RESULT:      -7.3      0.000      0.000
REMARK  13 active torsions:
REMARK  status: ('A' for Active; 'I' for Inactive)
REMARK    1  A    between atoms: C7_15  and  C1_1 
REMARK    2  A    between atoms: N1_2  and  C5_11 
REMARK    3  A    between atoms: C11_21  and  N1_2 
REMARK    4  A    between atoms: C17_27  and  O1_3 
REMARK    5  A    between atoms: C3_7  and  C19_29 
REMARK    6  A    between atoms: N8_18  and  C4_9 
REMARK    7  A    between atoms: C4_9  and  C16_26 
REMARK    8  A    between atoms: N8_18  and  C13_23 
REMARK    9  A    between atoms: C15_25  and  N8_18 
REMARK   10  A    between atoms: C13_23  and  C14_24 
REMARK   11  A    between atoms: C15_25  and  C17_27 
REMARK   12  A    between atoms: C15_25  and  C18_28 
REMARK   13  A    between atoms: C15_25  and  C20_30 
ROOT
ATOM      1  S1  EML d          -2.384  32.811  81.926  0.00  0.00     0.029 SA
ATOM      2  N6  EML d          -1.523  33.920  82.610  0.00  0.00    -0.212 NA
ATOM      3  C11 EML d          -2.112  33.272  80.279  0.00  0.00     0.096 A 
ATOM      4  C12 EML d          -1.255  34.376  80.350  0.00  0.00    -0.023 A 
ATOM      5  C14 EML d          -0.950  34.707  81.671  0.00  0.00     0.071 A 
ATOM      6  H11 EML d          -0.873  34.910  79.482  0.00  0.00     0.091 H 
ENDROOT
BRANCH   5   7
ATOM      7  C13 EML d          -0.043  35.833  82.109  0.00  0.00     0.124 C 
ATOM      8  H12 EML d           0.994  35.477  82.016  0.00  0.00     0.086 H 
ATOM      9  H13 EML d          -0.205  36.675  81.419  0.00  0.00     0.086 H 
BRANCH   7  10
ATOM     10  N8  EML d          -0.218  36.360  83.519  0.00  0.00    -0.056 N 
ATOM     11  H8  EML d          -0.912  35.701  83.838  0.00  0.00     0.281 HD
BRANCH  10  12
ATOM     12  C4  EML d           0.862  36.045  84.456  0.00  0.00     0.082 C 
ATOM     13  H4  EML d           1.215  37.007  84.855  0.00  0.00     0.075 H 
ATOM     14  H5  EML d           1.662  35.578  83.863  0.00  0.00     0.075 H 
BRANCH  12  15
ATOM     15  C16 EML d           0.639  35.152  85.642  0.00  0.00    -0.053 C 
ATOM     16  H14 EML d          -0.299  34.592  85.509  0.00  0.00     0.029 H 
ATOM     17  H15 EML d           0.575  35.763  86.554  0.00  0.00     0.029 H 
ATOM     18  H16 EML d           1.477  34.446  85.732  0.00  0.00     0.029 H 
ENDBRANCH  12  15
ENDBRANCH  10  12
BRANCH  10  19
ATOM     19  C15 EML d          -0.969  37.609  83.779  0.00  0.00     0.142 C 
BRANCH  19  20
ATOM     20  C17 EML d          -2.413  37.334  84.259  0.00  0.00     0.047 C 
ATOM     21  H17 EML d          -2.581  37.868  85.206  0.00  0.00     0.077 H 
ATOM     22  H18 EML d          -3.117  37.704  83.500  0.00  0.00     0.077 H 
BRANCH  20  23
ATOM     23  O1  EML d          -2.653  35.930  84.469  0.00  0.00    -0.398 OA
ATOM     24  H2  EML d          -2.065  35.423  83.920  0.00  0.00     0.209 HD
ENDBRANCH  20  23
ENDBRANCH  19  20
BRANCH  19  25
ATOM     25  C18 EML d          -1.254  38.424  82.565  0.00  0.00    -0.043 C 
ATOM     26  H19 EML d          -1.364  39.481  82.851  0.00  0.00     0.030 H 
ATOM     27  H20 EML d          -2.184  38.072  82.096  0.00  0.00     0.030 H 
ATOM     28  H21 EML d          -0.423  38.322  81.852  0.00  0.00     0.030 H 
ENDBRANCH  19  25
BRANCH  19  29
ATOM     29  C20 EML d          -0.191  38.579  84.712  0.00  0.00    -0.043 C 
ATOM     30  H25 EML d          -0.862  39.383  85.048  0.00  0.00     0.030 H 
ATOM     31  H26 EML d           0.657  39.014  84.163  0.00  0.00     0.030 H 
ATOM     32  H27 EML d           0.183  38.026  85.586  0.00  0.00     0.030 H 
ENDBRANCH  19  29
ENDBRANCH  10  19
ENDBRANCH   7  10
ENDBRANCH   5   7
BRANCH   3  33
ATOM     33  N1  EML d          -2.644  32.678  79.132  0.00  0.00    -0.331 N 
ATOM     34  H1  EML d          -2.300  33.016  78.222  0.00  0.00     0.168 HD
BRANCH  33  35
ATOM     35  C5  EML d          -3.598  31.671  79.117  0.00  0.00     0.176 A 
ATOM     36  C6  EML d          -4.085  31.146  77.918  0.00  0.00     0.181 A 
ATOM     37  N2  EML d          -3.807  31.526  76.599  0.00  0.00    -0.237 NA
ATOM     38  N3  EML d          -5.021  30.155  77.975  0.00  0.00    -0.299 N 
ATOM     39  C9  EML d          -4.610  30.702  75.895  0.00  0.00     0.032 A 
ATOM     40  C7  EML d          -5.387  29.819  76.689  0.00  0.00     0.071 A 
ATOM     41  H9  EML d          -4.658  30.713  74.807  0.00  0.00     0.118 H 
ATOM     42  C2  EML d          -5.539  29.623  79.137  0.00  0.00     0.011 A 
ATOM     43  C3  EML d          -5.083  30.147  80.323  0.00  0.00     0.049 A 
ATOM     44  H3  EML d          -6.277  28.823  79.116  0.00  0.00     0.115 H 
ATOM     45  N7  EML d          -4.149  31.173  80.282  0.00  0.00    -0.231 NA
BRANCH  40  46
ATOM     46  C1  EML d          -6.446  28.824  76.251  0.00  0.00     0.029 A 
ATOM     47  C8  EML d          -6.248  27.830  75.297  0.00  0.00     0.035 A 
ATOM     48  N5  EML d          -7.430  27.184  75.232  0.00  0.00    -0.187 NA
ATOM     49  H7  EML d          -5.342  27.620  74.731  0.00  0.00     0.118 H 
ATOM     50  N4  EML d          -8.339  27.694  76.084  0.00  0.00    -0.289 N 
ATOM     51  C10 EML d          -7.784  28.717  76.736  0.00  0.00     0.009 A 
ATOM     52  H6  EML d          -9.302  27.352  76.211  0.00  0.00     0.188 HD
ATOM     53  H10 EML d          -8.258  29.346  77.489  0.00  0.00     0.115 H 
ENDBRANCH  40  46
BRANCH  43  54
ATOM     54  C19 EML d          -5.551  29.634  81.640  0.00  0.00    -0.034 C 
ATOM     55  H22 EML d          -4.763  29.015  82.094  0.00  0.00     0.035 H 
ATOM     56  H23 EML d          -6.458  29.028  81.497  0.00  0.00     0.035 H 
ATOM     57  H24 EML d          -5.778  30.482  82.305  0.00  0.00     0.035 H 
ENDBRANCH  43  54
ENDBRANCH  33  35
ENDBRANCH   3  33
TORSDOF 13
ENDMDL
MODEL 2
REMARK VINA RESULT:      -6.5      1.545      2.146
REMARK  13 active torsions:
REMARK  status: ('A' for Active; 'I' for Inactive)
REMARK    1  A    between atoms: C7_15  and  C1_1 
REMARK    2  A    between atoms: N1_2  and  C5_11 
REMARK    3  A    between atoms: C11_21  and  N1_2 
REMARK    4  A    between atoms: C17_27  and  O1_3 
REMARK    5  A    between atoms: C3_7  and  C19_29 
REMARK    6  A    between atoms: N8_18  and  C4_9 
REMARK    7  A    between atoms: C4_9  and  C16_26 
REMARK    8  A    between atoms: N8_18  and  C13_23 
REMARK    9  A    between atoms: C15_25  and  N8_18 
REMARK   10  A    between atoms: C13_23  and  C14_24 
REMARK   11  A    between atoms: C15_25  and  C17_27 
REMARK   12  A    between atoms: C15_25  and  C18_28 
REMARK   13  A    between atoms: C15_25  and  C20_30 
ROOT
ATOM      1  S1  EML d          -4.268  32.786  82.851  0.00  0.00     0.029 SA
ATOM      2  N6  EML d          -3.443  33.633  83.871  0.00  0.00    -0.212 NA
ATOM      3  C11 EML d          -3.091  32.715  81.583  0.00  0.00     0.096 A 
ATOM      4  C12 EML d          -1.985  33.415  82.078  0.00  0.00    -0.023 A 
ATOM      5  C14 EML d          -2.223  33.913  83.359  0.00  0.00     0.071 A 
ATOM      6  H11 EML d          -1.054  33.553  81.531  0.00  0.00     0.091 H 
ENDROOT
BRANCH   5   7
ATOM      7  C13 EML d          -1.239  34.702  84.193  0.00  0.00     0.124 C 
ATOM      8  H12 EML d          -1.639  34.750  85.217  0.00  0.00     0.086 H 
ATOM      9  H13 EML d          -0.289  34.148  84.195  0.00  0.00     0.086 H 
BRANCH   7  10
ATOM     10  N8  EML d          -0.938  36.121  83.756  0.00  0.00    -0.056 N 
ATOM     11  H8  EML d          -1.406  36.105  82.863  0.00  0.00     0.281 HD
BRANCH  10  12
ATOM     12  C4  EML d          -1.718  37.171  84.416  0.00  0.00     0.082 C 
ATOM     13  H4  EML d          -1.130  38.096  84.326  0.00  0.00     0.075 H 
ATOM     14  H5  EML d          -1.790  36.884  85.476  0.00  0.00     0.075 H 
BRANCH  12  15
ATOM     15  C16 EML d          -3.112  37.511  83.974  0.00  0.00    -0.053 C 
ATOM     16  H14 EML d          -3.101  37.793  82.910  0.00  0.00     0.029 H 
ATOM     17  H15 EML d          -3.491  38.353  84.572  0.00  0.00     0.029 H 
ATOM     18  H16 EML d          -3.764  36.638  84.116  0.00  0.00     0.029 H 
ENDBRANCH  12  15
ENDBRANCH  10  12
BRANCH  10  19
ATOM     19  C15 EML d           0.413  36.505  83.287  0.00  0.00     0.142 C 
BRANCH  19  20
ATOM     20  C17 EML d           1.509  36.171  84.325  0.00  0.00     0.047 C 
ATOM     21  H17 EML d           2.146  37.056  84.466  0.00  0.00     0.077 H 
ATOM     22  H18 EML d           1.028  35.910  85.279  0.00  0.00     0.077 H 
BRANCH  20  23
ATOM     23  O1  EML d           2.332  35.068  83.902  0.00  0.00    -0.398 OA
ATOM     24  H2  EML d           2.231  34.939  82.966  0.00  0.00     0.209 HD
ENDBRANCH  20  23
ENDBRANCH  19  20
BRANCH  19  25
ATOM     25  C18 EML d           0.627  37.974  83.152  0.00  0.00    -0.043 C 
ATOM     26  H19 EML d          -0.347  38.481  83.076  0.00  0.00     0.030 H 
ATOM     27  H20 EML d           1.217  38.176  82.246  0.00  0.00     0.030 H 
ATOM     28  H21 EML d           1.168  38.348  84.033  0.00  0.00     0.030 H 
ENDBRANCH  19  25
BRANCH  19  29
ATOM     29  C20 EML d           0.724  35.946  81.870  0.00  0.00    -0.043 C 
ATOM     30  H25 EML d           1.718  35.476  81.871  0.00  0.00     0.030 H 
ATOM     31  H26 EML d           0.708  36.768  81.140  0.00  0.00     0.030 H 
ATOM     32  H27 EML d          -0.035  35.198  81.597  0.00  0.00     0.030 H 
ENDBRANCH  19  29
ENDBRANCH  10  19
ENDBRANCH   7  10
ENDBRANCH   5   7
BRANCH   3  33
ATOM     33  N1  EML d          -3.223  32.103  80.334  0.00  0.00    -0.331 N 
ATOM     34  H1  EML d          -2.603  32.429  79.580  0.00  0.00     0.168 HD
BRANCH  33  35
ATOM     35  C5  EML d          -4.121  31.091  80.026  0.00  0.00     0.176 A 
ATOM     36  C6  EML d          -4.422  30.762  78.703  0.00  0.00     0.181 A 
ATOM     37  N2  EML d          -3.991  31.362  77.514  0.00  0.00    -0.237 NA
ATOM     38  N3  EML d          -5.312  29.754  78.471  0.00  0.00    -0.299 N 
ATOM     39  C9  EML d          -4.657  30.649  76.582  0.00  0.00     0.032 A 
ATOM     40  C7  EML d          -5.491  29.629  77.110  0.00  0.00     0.071 A 
ATOM     41  H9  EML d          -4.562  30.840  75.514  0.00  0.00     0.118 H 
ATOM     42  C2  EML d          -5.954  29.025  79.449  0.00  0.00     0.011 A 
ATOM     43  C3  EML d          -5.682  29.355  80.755  0.00  0.00     0.049 A 
ATOM     44  H3  EML d          -6.647  28.223  79.198  0.00  0.00     0.115 H 
ATOM     45  N7  EML d          -4.797  30.394  81.009  0.00  0.00    -0.231 NA
BRANCH  40  46
ATOM     46  C1  EML d          -6.438  28.697  76.375  0.00  0.00     0.029 A 
ATOM     47  C8  EML d          -6.066  27.858  75.329  0.00  0.00     0.035 A 
ATOM     48  N5  EML d          -7.202  27.215  74.991  0.00  0.00    -0.187 NA
ATOM     49  H7  EML d          -5.079  27.745  74.883  0.00  0.00     0.118 H 
ATOM     50  N4  EML d          -8.245  27.582  75.759  0.00  0.00    -0.289 N 
ATOM     51  C10 EML d          -7.829  28.504  76.630  0.00  0.00     0.009 A 
ATOM     52  H6  EML d          -9.204  27.213  75.687  0.00  0.00     0.188 HD
ATOM     53  H10 EML d          -8.431  29.008  77.384  0.00  0.00     0.115 H 
ENDBRANCH  40  46
BRANCH  43  54
ATOM     54  C19 EML d          -6.295  28.620  81.896  0.00  0.00    -0.034 C 
ATOM     55  H22 EML d          -7.384  28.558  81.749  0.00  0.00     0.035 H 
ATOM     56  H23 EML d          -6.082  29.153  82.834  0.00  0.00     0.035 H 
ATOM     57  H24 EML d          -5.874  27.604  81.947  0.00  0.00     0.035 H 
ENDBRANCH  43  54
ENDBRANCH  33  35
ENDBRANCH   3  33
TORSDOF 13
ENDMDL
MODEL 3
REMARK VINA RESULT:      -6.2      1.889      2.282
REMARK  13 active torsions:
REMARK  status: ('A' for Active; 'I' for Inactive)
REMARK    1  A    between atoms: C7_15  and  C1_1 
REMARK    2  A    between atoms: N1_2  and  C5_11 
REMARK    3  A    between atoms: C11_21  and  N1_2 
REMARK    4  A    between atoms: C17_27  and  O1_3 
REMARK    5  A    between atoms: C3_7  and  C19_29 
REMARK    6  A    between atoms: N8_18  and  C4_9 
REMARK    7  A    between atoms: C4_9  and  C16_26 
REMARK    8  A    between atoms: N8_18  and  C13_23 
REMARK    9  A    between atoms: C15_25  and  N8_18 
REMARK   10  A    between atoms: C13_23  and  C14_24 
REMARK   11  A    between atoms: C15_25  and  C17_27 
REMARK   12  A    between atoms: C15_25  and  C18_28 
REMARK   13  A    between atoms: C15_25  and  C20_30 
ROOT
ATOM      1  S1  EML d          -5.050  32.910  83.653  0.00  0.00     0.029 SA
ATOM      2  N6  EML d          -4.438  33.871  84.721  0.00  0.00    -0.212 NA
ATOM      3  C11 EML d          -3.622  32.652  82.708  0.00  0.00     0.096 A 
ATOM      4  C12 EML d          -2.625  33.393  83.353  0.00  0.00    -0.023 A 
ATOM      5  C14 EML d          -3.122  34.061  84.472  0.00  0.00     0.071 A 
ATOM      6  H11 EML d          -1.589  33.442  83.021  0.00  0.00     0.091 H 
ENDROOT
BRANCH   5   7
ATOM      7  C13 EML d          -2.317  34.936  85.405  0.00  0.00     0.124 C 
ATOM      8  H12 EML d          -3.028  35.520  86.006  0.00  0.00     0.086 H 
ATOM      9  H13 EML d          -1.738  34.272  86.064  0.00  0.00     0.086 H 
BRANCH   7  10
ATOM     10  N8  EML d          -1.344  35.913  84.775  0.00  0.00    -0.056 N 
ATOM     11  H8  EML d          -1.157  36.480  85.587  0.00  0.00     0.281 HD
BRANCH  10  12
ATOM     12  C4  EML d           0.004  35.399  84.525  0.00  0.00     0.082 C 
ATOM     13  H4  EML d           0.386  35.944  83.649  0.00  0.00     0.075 H 
ATOM     14  H5  EML d          -0.111  34.334  84.272  0.00  0.00     0.075 H 
BRANCH  12  15
ATOM     15  C16 EML d           1.080  35.471  85.570  0.00  0.00    -0.053 C 
ATOM     16  H14 EML d           1.798  34.651  85.414  0.00  0.00     0.029 H 
ATOM     17  H15 EML d           0.628  35.378  86.568  0.00  0.00     0.029 H 
ATOM     18  H16 EML d           1.603  36.435  85.492  0.00  0.00     0.029 H 
ENDBRANCH  12  15
ENDBRANCH  10  12
BRANCH  10  19
ATOM     19  C15 EML d          -1.817  36.982  83.867  0.00  0.00     0.142 C 
BRANCH  19  20
ATOM     20  C17 EML d          -1.457  36.697  82.391  0.00  0.00     0.047 C 
ATOM     21  H17 EML d          -1.091  35.663  82.308  0.00  0.00     0.077 H 
ATOM     22  H18 EML d          -2.360  36.817  81.774  0.00  0.00     0.077 H 
BRANCH  20  23
ATOM     23  O1  EML d          -0.439  37.591  81.903  0.00  0.00    -0.398 OA
ATOM     24  H2  EML d          -0.750  38.487  81.963  0.00  0.00     0.209 HD
ENDBRANCH  20  23
ENDBRANCH  19  20
BRANCH  19  25
ATOM     25  C18 EML d          -1.136  38.294  84.048  0.00  0.00    -0.043 C 
ATOM     26  H19 EML d          -0.332  38.397  83.304  0.00  0.00     0.030 H 
ATOM     27  H20 EML d          -0.708  38.348  85.060  0.00  0.00     0.030 H 
ATOM     28  H21 EML d          -1.865  39.107  83.915  0.00  0.00     0.030 H 
ENDBRANCH  19  25
BRANCH  19  29
ATOM     29  C20 EML d          -3.324  37.306  84.075  0.00  0.00    -0.043 C 
ATOM     30  H25 EML d          -3.543  38.305  83.669  0.00  0.00     0.030 H 
ATOM     31  H26 EML d          -3.558  37.288  85.149  0.00  0.00     0.030 H 
ATOM     32  H27 EML d          -3.936  36.556  83.553  0.00  0.00     0.030 H 
ENDBRANCH  19  29
ENDBRANCH  10  19
ENDBRANCH   7  10
ENDBRANCH   5   7
BRANCH   3  33
ATOM     33  N1  EML d          -3.498  31.883  81.549  0.00  0.00    -0.331 N 
ATOM     34  H1  EML d          -2.645  32.011  80.987  0.00  0.00     0.168 HD
BRANCH  33  35
ATOM     35  C5  EML d          -4.428  30.960  81.094  0.00  0.00     0.176 A 
ATOM     36  C6  EML d          -4.557  30.665  79.735  0.00  0.00     0.181 A 
ATOM     37  N2  EML d          -3.900  31.228  78.633  0.00  0.00    -0.237 NA
ATOM     38  N3  EML d          -5.490  29.745  79.355  0.00  0.00    -0.299 N 
ATOM     39  C9  EML d          -4.482  30.583  77.601  0.00  0.00     0.032 A 
ATOM     40  C7  EML d          -5.475  29.643  77.980  0.00  0.00     0.071 A 
ATOM     41  H9  EML d          -4.212  30.769  76.562  0.00  0.00     0.118 H 
ATOM     42  C2  EML d          -6.335  29.076  80.214  0.00  0.00     0.011 A 
ATOM     43  C3  EML d          -6.231  29.373  81.552  0.00  0.00     0.049 A 
ATOM     44  H3  EML d          -7.052  28.342  79.849  0.00  0.00     0.115 H 
ATOM     45  N7  EML d          -5.304  30.325  81.952  0.00  0.00    -0.231 NA
BRANCH  40  46
ATOM     46  C1  EML d          -6.382  28.806  77.097  0.00  0.00     0.029 A 
ATOM     47  C8  EML d          -6.060  28.383  75.810  0.00  0.00     0.035 A 
ATOM     48  N5  EML d          -7.133  27.670  75.411  0.00  0.00    -0.187 NA
ATOM     49  H7  EML d          -5.147  28.583  75.252  0.00  0.00     0.118 H 
ATOM     50  N4  EML d          -8.086  27.607  76.359  0.00  0.00    -0.289 N 
ATOM     51  C10 EML d          -7.676  28.300  77.423  0.00  0.00     0.009 A 
ATOM     52  H6  EML d          -8.984  27.108  76.276  0.00  0.00     0.188 HD
ATOM     53  H10 EML d          -8.221  28.450  78.354  0.00  0.00     0.115 H 
ENDBRANCH  40  46
BRANCH  43  54
ATOM     54  C19 EML d          -7.073  28.693  82.576  0.00  0.00    -0.034 C 
ATOM     55  H22 EML d          -7.659  27.894  82.097  0.00  0.00     0.035 H 
ATOM     56  H23 EML d          -7.755  29.424  83.034  0.00  0.00     0.035 H 
ATOM     57  H24 EML d          -6.426  28.258  83.352  0.00  0.00     0.035 H 
ENDBRANCH  43  54
ENDBRANCH  33  35
ENDBRANCH   3  33
TORSDOF 13
ENDMDL
MODEL 4
REMARK VINA RESULT:      -6.2      1.809      2.731
REMARK  13 active torsions:
REMARK  status: ('A' for Active; 'I' for Inactive)
REMARK    1  A    between atoms: C7_15  and  C1_1 
REMARK    2  A    between atoms: N1_2  and  C5_11 
REMARK    3  A    between atoms: C11_21  and  N1_2 
REMARK    4  A    between atoms: C17_27  and  O1_3 
REMARK    5  A    between atoms: C3_7  and  C19_29 
REMARK    6  A    between atoms: N8_18  and  C4_9 
REMARK    7  A    between atoms: C4_9  and  C16_26 
REMARK    8  A    between atoms: N8_18  and  C13_23 
REMARK    9  A    between atoms: C15_25  and  N8_18 
REMARK   10  A    between atoms: C13_23  and  C14_24 
REMARK   11  A    between atoms: C15_25  and  C17_27 
REMARK   12  A    between atoms: C15_25  and  C18_28 
REMARK   13  A    between atoms: C15_25  and  C20_30 
ROOT
ATOM      1  S1  EML d           0.719  34.025  80.643  0.00  0.00     0.029 SA
ATOM      2  N6  EML d           0.917  35.107  81.752  0.00  0.00    -0.212 NA
ATOM      3  C11 EML d          -1.001  34.150  80.482  0.00  0.00     0.096 A 
ATOM      4  C12 EML d          -1.375  35.152  81.385  0.00  0.00    -0.023 A 
ATOM      5  C14 EML d          -0.274  35.660  82.076  0.00  0.00     0.071 A 
ATOM      6  H11 EML d          -2.399  35.493  81.530  0.00  0.00     0.091 H 
ENDROOT
BRANCH   5   7
ATOM      7  C13 EML d          -0.317  36.760  83.112  0.00  0.00     0.124 C 
ATOM      8  H12 EML d           0.680  36.816  83.575  0.00  0.00     0.086 H 
ATOM      9  H13 EML d          -0.531  37.702  82.585  0.00  0.00     0.086 H 
BRANCH   7  10
ATOM     10  N8  EML d          -1.330  36.623  84.230  0.00  0.00    -0.056 N 
ATOM     11  H8  EML d          -1.037  37.407  84.793  0.00  0.00     0.281 HD
BRANCH  10  12
ATOM     12  C4  EML d          -2.694  37.052  83.911  0.00  0.00     0.082 C 
ATOM     13  H4  EML d          -3.365  36.421  84.512  0.00  0.00     0.075 H 
ATOM     14  H5  EML d          -2.845  36.836  82.843  0.00  0.00     0.075 H 
BRANCH  12  15
ATOM     15  C16 EML d          -3.142  38.469  84.124  0.00  0.00    -0.053 C 
ATOM     16  H14 EML d          -3.298  38.955  83.149  0.00  0.00     0.029 H 
ATOM     17  H15 EML d          -2.372  39.016  84.687  0.00  0.00     0.029 H 
ATOM     18  H16 EML d          -4.084  38.474  84.691  0.00  0.00     0.029 H 
ENDBRANCH  12  15
ENDBRANCH  10  12
BRANCH  10  19
ATOM     19  C15 EML d          -1.199  35.560  85.253  0.00  0.00     0.142 C 
BRANCH  19  20
ATOM     20  C17 EML d          -2.141  34.366  84.978  0.00  0.00     0.047 C 
ATOM     21  H17 EML d          -2.902  34.674  84.246  0.00  0.00     0.077 H 
ATOM     22  H18 EML d          -1.551  33.535  84.564  0.00  0.00     0.077 H 
BRANCH  20  23
ATOM     23  O1  EML d          -2.803  33.915  86.175  0.00  0.00    -0.398 OA
ATOM     24  H2  EML d          -3.337  34.618  86.524  0.00  0.00     0.209 HD
ENDBRANCH  20  23
ENDBRANCH  19  20
BRANCH  19  25
ATOM     25  C18 EML d          -1.668  35.949  86.612  0.00  0.00    -0.043 C 
ATOM     26  H19 EML d          -0.856  36.462  87.148  0.00  0.00     0.030 H 
ATOM     27  H20 EML d          -1.964  35.048  87.170  0.00  0.00     0.030 H 
ATOM     28  H21 EML d          -2.532  36.624  86.523  0.00  0.00     0.030 H 
ENDBRANCH  19  25
BRANCH  19  29
ATOM     29  C20 EML d           0.280  35.133  85.471  0.00  0.00    -0.043 C 
ATOM     30  H25 EML d           0.690  35.664  86.343  0.00  0.00     0.030 H 
ATOM     31  H26 EML d           0.870  35.385  84.578  0.00  0.00     0.030 H 
ATOM     32  H27 EML d           0.326  34.048  85.648  0.00  0.00     0.030 H 
ENDBRANCH  19  29
ENDBRANCH  10  19
ENDBRANCH   7  10
ENDBRANCH   5   7
BRANCH   3  33
ATOM     33  N1  EML d          -1.832  33.404  79.643  0.00  0.00    -0.331 N 
ATOM     34  H1  EML d          -1.647  33.452  78.632  0.00  0.00     0.168 HD
BRANCH  33  35
ATOM     35  C5  EML d          -2.886  32.605  80.061  0.00  0.00     0.176 A 
ATOM     36  C6  EML d          -3.555  31.759  79.173  0.00  0.00     0.181 A 
ATOM     37  N2  EML d          -3.383  31.599  77.793  0.00  0.00    -0.237 NA
ATOM     38  N3  EML d          -4.581  30.998  79.650  0.00  0.00    -0.299 N 
ATOM     39  C9  EML d          -4.343  30.699  77.493  0.00  0.00     0.032 A 
ATOM     40  C7  EML d          -5.120  30.279  78.605  0.00  0.00     0.071 A 
ATOM     41  H9  EML d          -4.508  30.327  76.483  0.00  0.00     0.118 H 
ATOM     42  C2  EML d          -5.024  30.997  80.955  0.00  0.00     0.011 A 
ATOM     43  C3  EML d          -4.387  31.841  81.833  0.00  0.00     0.049 A 
ATOM     44  H3  EML d          -5.843  30.355  81.277  0.00  0.00     0.115 H 
ATOM     45  N7  EML d          -3.357  32.640  81.359  0.00  0.00    -0.231 NA
BRANCH  40  46
ATOM     46  C1  EML d          -6.323  29.354  78.631  0.00  0.00     0.029 A 
ATOM     47  C8  EML d          -7.307  29.366  79.615  0.00  0.00     0.035 A 
ATOM     48  N5  EML d          -8.172  28.402  79.239  0.00  0.00    -0.187 NA
ATOM     49  H7  EML d          -7.366  30.009  80.491  0.00  0.00     0.118 H 
ATOM     50  N4  EML d          -7.805  27.806  78.089  0.00  0.00    -0.289 N 
ATOM     51  C10 EML d          -6.662  28.352  77.671  0.00  0.00     0.009 A 
ATOM     52  H6  EML d          -8.321  27.053  77.612  0.00  0.00     0.188 HD
ATOM     53  H10 EML d          -6.100  28.087  76.778  0.00  0.00     0.115 H 
ENDBRANCH  40  46
BRANCH  43  54
ATOM     54  C19 EML d          -4.762  31.906  83.273  0.00  0.00    -0.034 C 
ATOM     55  H22 EML d          -5.408  31.051  83.523  0.00  0.00     0.035 H 
ATOM     56  H23 EML d          -5.302  32.843  83.470  0.00  0.00     0.035 H 
ATOM     57  H24 EML d          -3.852  31.870  83.891  0.00  0.00     0.035 H 
ENDBRANCH  43  54
ENDBRANCH  33  35
ENDBRANCH   3  33
TORSDOF 13
ENDMDL
MODEL 5
REMARK VINA RESULT:      -6.2      2.213      3.948
REMARK  13 active torsions:
REMARK  status: ('A' for Active; 'I' for Inactive)
REMARK    1  A    between atoms: C7_15  and  C1_1 
REMARK    2  A    between atoms: N1_2  and  C5_11 
REMARK    3  A    between atoms: C11_21  and  N1_2 
REMARK    4  A    between atoms: C17_27  and  O1_3 
REMARK    5  A    between atoms: C3_7  and  C19_29 
REMARK    6  A    between atoms: N8_18  and  C4_9 
REMARK    7  A    between atoms: C4_9  and  C16_26 
REMARK    8  A    between atoms: N8_18  and  C13_23 
REMARK    9  A    between atoms: C15_25  and  N8_18 
REMARK   10  A    between atoms: C13_23  and  C14_24 
REMARK   11  A    between atoms: C15_25  and  C17_27 
REMARK   12  A    between atoms: C15_25  and  C18_28 
REMARK   13  A    between atoms: C15_25  and  C20_30 
ROOT
ATOM      1  S1  EML d          -1.848  32.139  85.677  0.00  0.00     0.029 SA
ATOM      2  N6  EML d          -0.741  33.238  85.756  0.00  0.00    -0.212 NA
ATOM      3  C11 EML d          -3.082  33.087  84.917  0.00  0.00     0.096 A 
ATOM      4  C12 EML d          -2.501  34.346  84.724  0.00  0.00    -0.023 A 
ATOM      5  C14 EML d          -1.193  34.389  85.208  0.00  0.00     0.071 A 
ATOM      6  H11 EML d          -3.007  35.187  84.254  0.00  0.00     0.091 H 
ENDROOT
BRANCH   5   7
ATOM      7  C13 EML d          -0.271  35.586  85.147  0.00  0.00     0.124 C 
ATOM      8  H12 EML d          -0.411  36.157  86.077  0.00  0.00     0.086 H 
ATOM      9  H13 EML d           0.760  35.206  85.101  0.00  0.00     0.086 H 
BRANCH   7  10
ATOM     10  N8  EML d          -0.455  36.548  83.991  0.00  0.00    -0.056 N 
ATOM     11  H8  EML d          -1.247  36.104  83.553  0.00  0.00     0.281 HD
BRANCH  10  12
ATOM     12  C4  EML d          -1.058  37.840  84.326  0.00  0.00     0.082 C 
ATOM     13  H4  EML d          -0.488  38.600  83.771  0.00  0.00     0.075 H 
ATOM     14  H5  EML d          -0.905  37.984  85.406  0.00  0.00     0.075 H 
BRANCH  12  15
ATOM     15  C16 EML d          -2.508  38.123  84.063  0.00  0.00    -0.053 C 
ATOM     16  H14 EML d          -2.989  37.222  83.653  0.00  0.00     0.029 H 
ATOM     17  H15 EML d          -2.596  38.946  83.339  0.00  0.00     0.029 H 
ATOM     18  H16 EML d          -3.003  38.407  85.003  0.00  0.00     0.029 H 
ENDBRANCH  12  15
ENDBRANCH  10  12
BRANCH  10  19
ATOM     19  C15 EML d           0.469  36.535  82.834  0.00  0.00     0.142 C 
BRANCH  19  20
ATOM     20  C17 EML d           0.015  35.547  81.734  0.00  0.00     0.047 C 
ATOM     21  H17 EML d           0.676  35.658  80.862  0.00  0.00     0.077 H 
ATOM     22  H18 EML d           0.092  34.522  82.124  0.00  0.00     0.077 H 
BRANCH  20  23
ATOM     23  O1  EML d          -1.344  35.788  81.322  0.00  0.00    -0.398 OA
ATOM     24  H2  EML d          -1.582  36.685  81.525  0.00  0.00     0.209 HD
ENDBRANCH  20  23
ENDBRANCH  19  20
BRANCH  19  25
ATOM     25  C18 EML d           1.822  35.987  83.129  0.00  0.00    -0.043 C 
ATOM     26  H19 EML d           1.723  35.016  83.636  0.00  0.00     0.030 H 
ATOM     27  H20 EML d           2.367  36.687  83.779  0.00  0.00     0.030 H 
ATOM     28  H21 EML d           2.376  35.854  82.188  0.00  0.00     0.030 H 
ENDBRANCH  19  25
BRANCH  19  29
ATOM     29  C20 EML d           0.750  37.965  82.291  0.00  0.00    -0.043 C 
ATOM     30  H25 EML d           1.051  37.904  81.234  0.00  0.00     0.030 H 
ATOM     31  H26 EML d           1.559  38.427  82.876  0.00  0.00     0.030 H 
ATOM     32  H27 EML d          -0.161  38.576  82.377  0.00  0.00     0.030 H 
ENDBRANCH  19  29
ENDBRANCH  10  19
ENDBRANCH   7  10
ENDBRANCH   5   7
BRANCH   3  33
ATOM     33  N1  EML d          -4.377  32.686  84.583  0.00  0.00    -0.331 N 
ATOM     34  H1  EML d          -5.142  33.001  85.196  0.00  0.00     0.168 HD
BRANCH  33  35
ATOM     35  C5  EML d          -4.718  31.897  83.494  0.00  0.00     0.176 A 
ATOM     36  C6  EML d          -4.148  32.107  82.236  0.00  0.00     0.181 A 
ATOM     37  N2  EML d          -3.256  33.101  81.815  0.00  0.00    -0.237 NA
ATOM     38  N3  EML d          -4.526  31.293  81.208  0.00  0.00    -0.299 N 
ATOM     39  C9  EML d          -3.121  32.818  80.502  0.00  0.00     0.032 A 
ATOM     40  C7  EML d          -3.878  31.701  80.061  0.00  0.00     0.071 A 
ATOM     41  H9  EML d          -2.483  33.398  79.837  0.00  0.00     0.118 H 
ATOM     42  C2  EML d          -5.442  30.268  81.307  0.00  0.00     0.011 A 
ATOM     43  C3  EML d          -6.025  30.066  82.535  0.00  0.00     0.049 A 
ATOM     44  H3  EML d          -5.692  29.645  80.450  0.00  0.00     0.115 H 
ATOM     45  N7  EML d          -5.670  30.901  83.586  0.00  0.00    -0.231 NA
BRANCH  40  46
ATOM     46  C1  EML d          -4.034  31.151  78.656  0.00  0.00     0.029 A 
ATOM     47  C8  EML d          -3.538  31.764  77.508  0.00  0.00     0.035 A 
ATOM     48  N5  EML d          -3.892  30.936  76.504  0.00  0.00    -0.187 NA
ATOM     49  H7  EML d          -2.988  32.701  77.438  0.00  0.00     0.118 H 
ATOM     50  N4  EML d          -4.554  29.851  76.945  0.00  0.00    -0.289 N 
ATOM     51  C10 EML d          -4.677  29.936  78.271  0.00  0.00     0.009 A 
ATOM     52  H6  EML d          -4.909  29.083  76.357  0.00  0.00     0.188 HD
ATOM     53  H10 EML d          -5.169  29.221  78.928  0.00  0.00     0.115 H 
ENDBRANCH  40  46
BRANCH  43  54
ATOM     54  C19 EML d          -7.008  28.972  82.768  0.00  0.00    -0.034 C 
ATOM     55  H22 EML d          -6.595  28.256  83.495  0.00  0.00     0.035 H 
ATOM     56  H23 EML d          -7.213  28.455  81.820  0.00  0.00     0.035 H 
ATOM     57  H24 EML d          -7.943  29.397  83.164  0.00  0.00     0.035 H 
ENDBRANCH  43  54
ENDBRANCH  33  35
ENDBRANCH   3  33
TORSDOF 13
ENDMDL
MODEL 6
REMARK VINA RESULT:      -6.0      2.056      3.296
REMARK  13 active torsions:
REMARK  status: ('A' for Active; 'I' for Inactive)
REMARK    1  A    between atoms: C7_15  and  C1_1 
REMARK    2  A    between atoms: N1_2  and  C5_11 
REMARK    3  A    between atoms: C11_21  and  N1_2 
REMARK    4  A    between atoms: C17_27  and  O1_3 
REMARK    5  A    between atoms: C3_7  and  C19_29 
REMARK    6  A    between atoms: N8_18  and  C4_9 
REMARK    7  A    between atoms: C4_9  and  C16_26 
REMARK    8  A    between atoms: N8_18  and  C13_23 
REMARK    9  A    between atoms: C15_25  and  N8_18 
REMARK   10  A    between atoms: C13_23  and  C14_24 
REMARK   11  A    between atoms: C15_25  and  C17_27 
REMARK   12  A    between atoms: C15_25  and  C18_28 
REMARK   13  A    between atoms: C15_25  and  C20_30 
ROOT
ATOM      1  S1  EML d          -4.720  34.133  84.100  0.00  0.00     0.029 SA
ATOM      2  N6  EML d          -3.421  34.999  84.133  0.00  0.00    -0.212 NA
ATOM      3  C11 EML d          -3.973  32.578  83.940  0.00  0.00     0.096 A 
ATOM      4  C12 EML d          -2.598  32.838  83.939  0.00  0.00    -0.023 A 
ATOM      5  C14 EML d          -2.331  34.203  84.047  0.00  0.00     0.071 A 
ATOM      6  H11 EML d          -1.831  32.069  83.864  0.00  0.00     0.091 H 
ENDROOT
BRANCH   5   7
ATOM      7  C13 EML d          -0.957  34.830  84.093  0.00  0.00     0.124 C 
ATOM      8  H12 EML d          -0.920  35.480  84.979  0.00  0.00     0.086 H 
ATOM      9  H13 EML d          -0.225  34.016  84.203  0.00  0.00     0.086 H 
BRANCH   7  10
ATOM     10  N8  EML d          -0.533  35.663  82.900  0.00  0.00    -0.056 N 
ATOM     11  H8  EML d           0.398  35.294  82.784  0.00  0.00     0.281 HD
BRANCH  10  12
ATOM     12  C4  EML d          -1.109  35.272  81.611  0.00  0.00     0.082 C 
ATOM     13  H4  EML d          -1.143  36.184  80.997  0.00  0.00     0.075 H 
ATOM     14  H5  EML d          -2.134  34.932  81.820  0.00  0.00     0.075 H 
BRANCH  12  15
ATOM     15  C16 EML d          -0.477  34.210  80.758  0.00  0.00    -0.053 C 
ATOM     16  H14 EML d          -0.438  33.264  81.318  0.00  0.00     0.029 H 
ATOM     17  H15 EML d           0.543  34.518  80.486  0.00  0.00     0.029 H 
ATOM     18  H16 EML d          -1.073  34.071  79.844  0.00  0.00     0.029 H 
ENDBRANCH  12  15
ENDBRANCH  10  12
BRANCH  10  19
ATOM     19  C15 EML d          -0.183  37.094  83.054  0.00  0.00     0.142 C 
BRANCH  19  20
ATOM     20  C17 EML d          -1.304  38.028  82.545  0.00  0.00     0.047 C 
ATOM     21  H17 EML d          -0.995  39.072  82.700  0.00  0.00     0.077 H 
ATOM     22  H18 EML d          -1.458  37.847  81.471  0.00  0.00     0.077 H 
BRANCH  20  23
ATOM     23  O1  EML d          -2.547  37.804  83.237  0.00  0.00    -0.398 OA
ATOM     24  H2  EML d          -3.198  37.485  82.622  0.00  0.00     0.209 HD
ENDBRANCH  20  23
ENDBRANCH  19  20
BRANCH  19  25
ATOM     25  C18 EML d           0.943  37.551  82.191  0.00  0.00    -0.043 C 
ATOM     26  H19 EML d           0.589  37.667  81.156  0.00  0.00     0.030 H 
ATOM     27  H20 EML d           1.753  36.808  82.221  0.00  0.00     0.030 H 
ATOM     28  H21 EML d           1.318  38.516  82.561  0.00  0.00     0.030 H 
ENDBRANCH  19  25
BRANCH  19  29
ATOM     29  C20 EML d           0.285  37.432  84.497  0.00  0.00    -0.043 C 
ATOM     30  H25 EML d          -0.590  37.492  85.162  0.00  0.00     0.030 H 
ATOM     31  H26 EML d           0.811  38.398  84.495  0.00  0.00     0.030 H 
ATOM     32  H27 EML d           0.965  36.646  84.857  0.00  0.00     0.030 H 
ENDBRANCH  19  29
ENDBRANCH  10  19
ENDBRANCH   7  10
ENDBRANCH   5   7
BRANCH   3  33
ATOM     33  N1  EML d          -4.607  31.339  83.824  0.00  0.00    -0.331 N 
ATOM     34  H1  EML d          -4.705  30.777  84.681  0.00  0.00     0.168 HD
BRANCH  33  35
ATOM     35  C5  EML d          -5.115  30.803  82.649  0.00  0.00     0.176 A 
ATOM     36  C6  EML d          -4.535  31.083  81.410  0.00  0.00     0.181 A 
ATOM     37  N2  EML d          -3.470  31.936  81.095  0.00  0.00    -0.237 NA
ATOM     38  N3  EML d          -5.083  30.521  80.294  0.00  0.00    -0.299 N 
ATOM     39  C9  EML d          -3.414  31.831  79.751  0.00  0.00     0.032 A 
ATOM     40  C7  EML d          -4.386  30.961  79.190  0.00  0.00     0.071 A 
ATOM     41  H9  EML d          -2.684  32.368  79.147  0.00  0.00     0.118 H 
ATOM     42  C2  EML d          -6.183  29.691  80.287  0.00  0.00     0.011 A 
ATOM     43  C3  EML d          -6.776  29.426  81.499  0.00  0.00     0.049 A 
ATOM     44  H3  EML d          -6.566  29.263  79.362  0.00  0.00     0.115 H 
ATOM     45  N7  EML d          -6.245  30.009  82.641  0.00  0.00    -0.231 NA
BRANCH  40  46
ATOM     46  C1  EML d          -4.670  30.667  77.729  0.00  0.00     0.029 A 
ATOM     47  C8  EML d          -4.267  31.474  76.668  0.00  0.00     0.035 A 
ATOM     48  N5  EML d          -4.717  30.835  75.568  0.00  0.00    -0.187 NA
ATOM     49  H7  EML d          -3.712  32.409  76.715  0.00  0.00     0.118 H 
ATOM     50  N4  EML d          -5.354  29.689  75.868  0.00  0.00    -0.289 N 
ATOM     51  C10 EML d          -5.361  29.538  77.194  0.00  0.00     0.009 A 
ATOM     52  H6  EML d          -5.769  29.036  75.187  0.00  0.00     0.188 HD
ATOM     53  H10 EML d          -5.805  28.718  77.756  0.00  0.00     0.115 H 
ENDBRANCH  40  46
BRANCH  43  54
ATOM     54  C19 EML d          -7.954  28.522  81.617  0.00  0.00    -0.034 C 
ATOM     55  H22 EML d          -7.620  27.475  81.558  0.00  0.00     0.035 H 
ATOM     56  H23 EML d          -8.658  28.728  80.798  0.00  0.00     0.035 H 
ATOM     57  H24 EML d          -8.453  28.693  82.583  0.00  0.00     0.035 H 
ENDBRANCH  43  54
ENDBRANCH  33  35
ENDBRANCH   3  33
TORSDOF 13
ENDMDL
MODEL 7
REMARK VINA RESULT:      -6.0      1.786      2.451
REMARK  13 active torsions:
REMARK  status: ('A' for Active; 'I' for Inactive)
REMARK    1  A    between atoms: C7_15  and  C1_1 
REMARK    2  A    between atoms: N1_2  and  C5_11 
REMARK    3  A    between atoms: C11_21  and  N1_2 
REMARK    4  A    between atoms: C17_27  and  O1_3 
REMARK    5  A    between atoms: C3_7  and  C19_29 
REMARK    6  A    between atoms: N8_18  and  C4_9 
REMARK    7  A    between atoms: C4_9  and  C16_26 
REMARK    8  A    between atoms: N8_18  and  C13_23 
REMARK    9  A    between atoms: C15_25  and  N8_18 
REMARK   10  A    between atoms: C13_23  and  C14_24 
REMARK   11  A    between atoms: C15_25  and  C17_27 
REMARK   12  A    between atoms: C15_25  and  C18_28 
REMARK   13  A    between atoms: C15_25  and  C20_30 
ROOT
ATOM      1  S1  EML d           0.855  34.090  80.614  0.00  0.00     0.029 SA
ATOM      2  N6  EML d           1.056  35.091  81.795  0.00  0.00    -0.212 NA
ATOM      3  C11 EML d          -0.865  34.228  80.464  0.00  0.00     0.096 A 
ATOM      4  C12 EML d          -1.237  35.164  81.436  0.00  0.00    -0.023 A 
ATOM      5  C14 EML d          -0.135  35.621  82.160  0.00  0.00     0.071 A 
ATOM      6  H11 EML d          -2.260  35.494  81.607  0.00  0.00     0.091 H 
ENDROOT
BRANCH   5   7
ATOM      7  C13 EML d          -0.175  36.645  83.271  0.00  0.00     0.124 C 
ATOM      8  H12 EML d          -0.388  36.108  84.207  0.00  0.00     0.086 H 
ATOM      9  H13 EML d           0.823  37.106  83.331  0.00  0.00     0.086 H 
BRANCH   7  10
ATOM     10  N8  EML d          -1.187  37.765  83.148  0.00  0.00    -0.056 N 
ATOM     11  H8  EML d          -1.390  37.676  82.165  0.00  0.00     0.281 HD
BRANCH  10  12
ATOM     12  C4  EML d          -2.517  37.487  83.695  0.00  0.00     0.082 C 
ATOM     13  H4  EML d          -3.152  37.215  82.839  0.00  0.00     0.075 H 
ATOM     14  H5  EML d          -2.876  38.430  84.133  0.00  0.00     0.075 H 
BRANCH  12  15
ATOM     15  C16 EML d          -2.733  36.427  84.736  0.00  0.00    -0.053 C 
ATOM     16  H14 EML d          -3.624  35.835  84.478  0.00  0.00     0.029 H 
ATOM     17  H15 EML d          -2.880  36.902  85.717  0.00  0.00     0.029 H 
ATOM     18  H16 EML d          -1.854  35.767  84.776  0.00  0.00     0.029 H 
ENDBRANCH  12  15
ENDBRANCH  10  12
BRANCH  10  19
ATOM     19  C15 EML d          -0.760  39.183  83.154  0.00  0.00     0.142 C 
BRANCH  19  20
ATOM     20  C17 EML d           0.333  39.461  84.211  0.00  0.00     0.047 C 
ATOM     21  H17 EML d           1.217  38.849  83.977  0.00  0.00     0.077 H 
ATOM     22  H18 EML d           0.604  40.526  84.172  0.00  0.00     0.077 H 
BRANCH  20  23
ATOM     23  O1  EML d          -0.113  39.143  85.543  0.00  0.00    -0.398 OA
ATOM     24  H2  EML d           0.387  39.650  86.173  0.00  0.00     0.209 HD
ENDBRANCH  20  23
ENDBRANCH  19  20
BRANCH  19  25
ATOM     25  C18 EML d          -1.806  40.142  83.609  0.00  0.00    -0.043 C 
ATOM     26  H19 EML d          -1.789  41.035  82.967  0.00  0.00     0.030 H 
ATOM     27  H20 EML d          -1.606  40.436  84.650  0.00  0.00     0.030 H 
ATOM     28  H21 EML d          -2.794  39.664  83.547  0.00  0.00     0.030 H 
ENDBRANCH  19  25
BRANCH  19  29
ATOM     29  C20 EML d          -0.377  39.688  81.734  0.00  0.00    -0.043 C 
ATOM     30  H25 EML d          -0.587  40.765  81.658  0.00  0.00     0.030 H 
ATOM     31  H26 EML d          -0.968  39.146  80.981  0.00  0.00     0.030 H 
ATOM     32  H27 EML d           0.694  39.510  81.558  0.00  0.00     0.030 H 
ENDBRANCH  19  29
ENDBRANCH  10  19
ENDBRANCH   7  10
ENDBRANCH   5   7
BRANCH   3  33
ATOM     33  N1  EML d          -1.698  33.544  79.576  0.00  0.00    -0.331 N 
ATOM     34  H1  EML d          -1.522  33.674  78.570  0.00  0.00     0.168 HD
BRANCH  33  35
ATOM     35  C5  EML d          -2.741  32.705  79.938  0.00  0.00     0.176 A 
ATOM     36  C6  EML d          -3.344  31.852  79.011  0.00  0.00     0.181 A 
ATOM     37  N2  EML d          -3.110  31.717  77.637  0.00  0.00    -0.237 NA
ATOM     38  N3  EML d          -4.364  31.050  79.434  0.00  0.00    -0.299 N 
ATOM     39  C9  EML d          -4.027  30.792  77.285  0.00  0.00     0.032 A 
ATOM     40  C7  EML d          -4.835  30.330  78.357  0.00  0.00     0.071 A 
ATOM     41  H9  EML d          -4.137  30.430  76.264  0.00  0.00     0.118 H 
ATOM     42  C2  EML d          -4.861  31.015  80.719  0.00  0.00     0.011 A 
ATOM     43  C3  EML d          -4.289  31.866  81.634  0.00  0.00     0.049 A 
ATOM     44  H3  EML d          -5.671  30.342  80.997  0.00  0.00     0.115 H 
ATOM     45  N7  EML d          -3.267  32.706  81.215  0.00  0.00    -0.231 NA
BRANCH  40  46
ATOM     46  C1  EML d          -6.006  29.366  78.319  0.00  0.00     0.029 A 
ATOM     47  C8  EML d          -6.457  28.715  77.174  0.00  0.00     0.035 A 
ATOM     48  N5  EML d          -7.492  27.961  77.599  0.00  0.00    -0.187 NA
ATOM     49  H7  EML d          -6.062  28.795  76.163  0.00  0.00     0.118 H 
ATOM     50  N4  EML d          -7.705  28.086  78.922  0.00  0.00    -0.289 N 
ATOM     51  C10 EML d          -6.817  28.950  79.418  0.00  0.00     0.009 A 
ATOM     52  H6  EML d          -8.433  27.597  79.462  0.00  0.00     0.188 HD
ATOM     53  H10 EML d          -6.729  29.273  80.454  0.00  0.00     0.115 H 
ENDBRANCH  40  46
BRANCH  43  54
ATOM     54  C19 EML d          -4.726  31.897  83.058  0.00  0.00    -0.034 C 
ATOM     55  H22 EML d          -4.053  32.551  83.634  0.00  0.00     0.035 H 
ATOM     56  H23 EML d          -4.692  30.880  83.474  0.00  0.00     0.035 H 
ATOM     57  H24 EML d          -5.754  32.285  83.119  0.00  0.00     0.035 H 
ENDBRANCH  43  54
ENDBRANCH  33  35
ENDBRANCH   3  33
TORSDOF 13
ENDMDL
MODEL 8
REMARK VINA RESULT:      -5.6      3.085      4.294
REMARK  13 active torsions:
REMARK  status: ('A' for Active; 'I' for Inactive)
REMARK    1  A    between atoms: C7_15  and  C1_1 
REMARK    2  A    between atoms: N1_2  and  C5_11 
REMARK    3  A    between atoms: C11_21  and  N1_2 
REMARK    4  A    between atoms: C17_27  and  O1_3 
REMARK    5  A    between atoms: C3_7  and  C19_29 
REMARK    6  A    between atoms: N8_18  and  C4_9 
REMARK    7  A    between atoms: C4_9  and  C16_26 
REMARK    8  A    between atoms: N8_18  and  C13_23 
REMARK    9  A    between atoms: C15_25  and  N8_18 
REMARK   10  A    between atoms: C13_23  and  C14_24 
REMARK   11  A    between atoms: C15_25  and  C17_27 
REMARK   12  A    between atoms: C15_25  and  C18_28 
REMARK   13  A    between atoms: C15_25  and  C20_30 
ROOT
ATOM      1  S1  EML d          -1.745  32.621  85.896  0.00  0.00     0.029 SA
ATOM      2  N6  EML d          -0.437  33.466  85.785  0.00  0.00    -0.212 NA
ATOM      3  C11 EML d          -2.840  33.771  85.203  0.00  0.00     0.096 A 
ATOM      4  C12 EML d          -2.042  34.870  84.866  0.00  0.00    -0.023 A 
ATOM      5  C14 EML d          -0.706  34.660  85.208  0.00  0.00     0.071 A 
ATOM      6  H11 EML d          -2.418  35.776  84.394  0.00  0.00     0.091 H 
ENDROOT
BRANCH   5   7
ATOM      7  C13 EML d           0.427  35.634  84.972  0.00  0.00     0.124 C 
ATOM      8  H12 EML d           0.863  35.876  85.952  0.00  0.00     0.086 H 
ATOM      9  H13 EML d           1.177  35.122  84.351  0.00  0.00     0.086 H 
BRANCH   7  10
ATOM     10  N8  EML d           0.087  36.943  84.289  0.00  0.00    -0.056 N 
ATOM     11  H8  EML d          -0.917  36.897  84.369  0.00  0.00     0.281 HD
BRANCH  10  12
ATOM     12  C4  EML d           0.335  38.155  85.074  0.00  0.00     0.082 C 
ATOM     13  H4  EML d          -0.622  38.419  85.546  0.00  0.00     0.075 H 
ATOM     14  H5  EML d           0.618  38.938  84.354  0.00  0.00     0.075 H 
BRANCH  12  15
ATOM     15  C16 EML d           1.368  38.189  86.163  0.00  0.00    -0.053 C 
ATOM     16  H14 EML d           2.349  38.436  85.730  0.00  0.00     0.029 H 
ATOM     17  H15 EML d           1.420  37.205  86.650  0.00  0.00     0.029 H 
ATOM     18  H16 EML d           1.093  38.952  86.905  0.00  0.00     0.029 H 
ENDBRANCH  12  15
ENDBRANCH  10  12
BRANCH  10  19
ATOM     19  C15 EML d           0.181  37.084  82.818  0.00  0.00     0.142 C 
BRANCH  19  20
ATOM     20  C17 EML d          -1.169  36.810  82.117  0.00  0.00     0.047 C 
ATOM     21  H17 EML d          -1.897  36.472  82.868  0.00  0.00     0.077 H 
ATOM     22  H18 EML d          -1.525  37.743  81.655  0.00  0.00     0.077 H 
BRANCH  20  23
ATOM     23  O1  EML d          -1.050  35.802  81.096  0.00  0.00    -0.398 OA
ATOM     24  H2  EML d          -0.409  35.154  81.364  0.00  0.00     0.209 HD
ENDBRANCH  20  23
ENDBRANCH  19  20
BRANCH  19  25
ATOM     25  C18 EML d           1.030  36.056  82.152  0.00  0.00    -0.043 C 
ATOM     26  H19 EML d           1.842  36.553  81.600  0.00  0.00     0.030 H 
ATOM     27  H20 EML d           0.415  35.471  81.452  0.00  0.00     0.030 H 
ATOM     28  H21 EML d           1.459  35.386  82.911  0.00  0.00     0.030 H 
ENDBRANCH  19  25
BRANCH  19  29
ATOM     29  C20 EML d           0.824  38.436  82.398  0.00  0.00    -0.043 C 
ATOM     30  H25 EML d           1.795  38.246  81.916  0.00  0.00     0.030 H 
ATOM     31  H26 EML d           0.974  39.064  83.288  0.00  0.00     0.030 H 
ATOM     32  H27 EML d           0.160  38.954  81.690  0.00  0.00     0.030 H 
ENDBRANCH  19  29
ENDBRANCH  10  19
ENDBRANCH   7  10
ENDBRANCH   5   7
BRANCH   3  33
ATOM     33  N1  EML d          -4.219  33.634  85.032  0.00  0.00    -0.331 N 
ATOM     34  H1  EML d          -4.805  34.454  85.245  0.00  0.00     0.168 HD
BRANCH  33  35
ATOM     35  C5  EML d          -4.866  32.485  84.599  0.00  0.00     0.176 A 
ATOM     36  C6  EML d          -4.911  32.141  83.247  0.00  0.00     0.181 A 
ATOM     37  N2  EML d          -4.433  32.840  82.131  0.00  0.00    -0.237 NA
ATOM     38  N3  EML d          -5.561  30.996  82.889  0.00  0.00    -0.299 N 
ATOM     39  C9  EML d          -4.819  32.042  81.114  0.00  0.00     0.032 A 
ATOM     40  C7  EML d          -5.520  30.875  81.517  0.00  0.00     0.071 A 
ATOM     41  H9  EML d          -4.611  32.274  80.070  0.00  0.00     0.118 H 
ATOM     42  C2  EML d          -6.192  30.139  83.766  0.00  0.00     0.011 A 
ATOM     43  C3  EML d          -6.171  30.479  85.097  0.00  0.00     0.049 A 
ATOM     44  H3  EML d          -6.684  29.232  83.418  0.00  0.00     0.115 H 
ATOM     45  N7  EML d          -5.535  31.653  85.475  0.00  0.00    -0.231 NA
BRANCH  40  46
ATOM     46  C1  EML d          -6.167  29.808  80.655  0.00  0.00     0.029 A 
ATOM     47  C8  EML d          -5.646  28.533  80.451  0.00  0.00     0.035 A 
ATOM     48  N5  EML d          -6.539  27.928  79.642  0.00  0.00    -0.187 NA
ATOM     49  H7  EML d          -4.724  28.117  80.855  0.00  0.00     0.118 H 
ATOM     50  N4  EML d          -7.580  28.726  79.342  0.00  0.00    -0.289 N 
ATOM     51  C10 EML d          -7.398  29.906  79.938  0.00  0.00     0.009 A 
ATOM     52  H6  EML d          -8.383  28.469  78.750  0.00  0.00     0.188 HD
ATOM     53  H10 EML d          -8.057  30.771  79.887  0.00  0.00     0.115 H 
ENDBRANCH  40  46
BRANCH  43  54
ATOM     54  C19 EML d          -6.796  29.616  86.138  0.00  0.00    -0.034 C 
ATOM     55  H22 EML d          -7.408  30.236  86.810  0.00  0.00     0.035 H 
ATOM     56  H23 EML d          -6.009  29.114  86.720  0.00  0.00     0.035 H 
ATOM     57  H24 EML d          -7.434  28.861  85.655  0.00  0.00     0.035 H 
ENDBRANCH  43  54
ENDBRANCH  33  35
ENDBRANCH   3  33
TORSDOF 13
ENDMDL
MODEL 9
REMARK VINA RESULT:      -5.6      3.719      9.872
REMARK  13 active torsions:
REMARK  status: ('A' for Active; 'I' for Inactive)
REMARK    1  A    between atoms: C7_15  and  C1_1 
REMARK    2  A    between atoms: N1_2  and  C5_11 
REMARK    3  A    between atoms: C11_21  and  N1_2 
REMARK    4  A    between atoms: C17_27  and  O1_3 
REMARK    5  A    between atoms: C3_7  and  C19_29 
REMARK    6  A    between atoms: N8_18  and  C4_9 
REMARK    7  A    between atoms: C4_9  and  C16_26 
REMARK    8  A    between atoms: N8_18  and  C13_23 
REMARK    9  A    between atoms: C15_25  and  N8_18 
REMARK   10  A    between atoms: C13_23  and  C14_24 
REMARK   11  A    between atoms: C15_25  and  C17_27 
REMARK   12  A    between atoms: C15_25  and  C18_28 
REMARK   13  A    between atoms: C15_25  and  C20_30 
ROOT
ATOM      1  S1  EML d          -6.718  31.513  85.898  0.00  0.00     0.029 SA
ATOM      2  N6  EML d          -7.796  30.737  85.076  0.00  0.00    -0.212 NA
ATOM      3  C11 EML d          -5.396  31.340  84.793  0.00  0.00     0.096 A 
ATOM      4  C12 EML d          -5.922  30.624  83.711  0.00  0.00    -0.023 A 
ATOM      5  C14 EML d          -7.265  30.305  83.909  0.00  0.00     0.071 A 
ATOM      6  H11 EML d          -5.352  30.350  82.825  0.00  0.00     0.091 H 
ENDROOT
BRANCH   5   7
ATOM      7  C13 EML d          -8.143  29.552  82.937  0.00  0.00     0.124 C 
ATOM      8  H12 EML d          -8.977  29.121  83.510  0.00  0.00     0.086 H 
ATOM      9  H13 EML d          -8.534  30.281  82.211  0.00  0.00     0.086 H 
BRANCH   7  10
ATOM     10  N8  EML d          -7.504  28.426  82.150  0.00  0.00    -0.056 N 
ATOM     11  H8  EML d          -6.548  28.569  82.436  0.00  0.00     0.281 HD
BRANCH  10  12
ATOM     12  C4  EML d          -7.715  27.077  82.679  0.00  0.00     0.082 C 
ATOM     13  H4  EML d          -6.724  26.602  82.721  0.00  0.00     0.075 H 
ATOM     14  H5  EML d          -8.343  26.550  81.944  0.00  0.00     0.075 H 
BRANCH  12  15
ATOM     15  C16 EML d          -8.351  26.849  84.019  0.00  0.00    -0.053 C 
ATOM     16  H14 EML d          -7.579  26.559  84.748  0.00  0.00     0.029 H 
ATOM     17  H15 EML d          -9.098  26.046  83.938  0.00  0.00     0.029 H 
ATOM     18  H16 EML d          -8.842  27.774  84.355  0.00  0.00     0.029 H 
ENDBRANCH  12  15
ENDBRANCH  10  12
BRANCH  10  19
ATOM     19  C15 EML d          -7.309  28.533  80.686  0.00  0.00     0.142 C 
BRANCH  19  20
ATOM     20  C17 EML d          -5.817  28.657  80.301  0.00  0.00     0.047 C 
ATOM     21  H17 EML d          -5.229  27.978  80.937  0.00  0.00     0.077 H 
ATOM     22  H18 EML d          -5.696  28.368  79.247  0.00  0.00     0.077 H 
BRANCH  20  23
ATOM     23  O1  EML d          -5.326  29.999  80.474  0.00  0.00    -0.398 OA
ATOM     24  H2  EML d          -4.448  29.971  80.836  0.00  0.00     0.209 HD
ENDBRANCH  20  23
ENDBRANCH  19  20
BRANCH  19  25
ATOM     25  C18 EML d          -7.835  29.789  80.081  0.00  0.00    -0.043 C 
ATOM     26  H19 EML d          -8.636  29.546  79.368  0.00  0.00     0.030 H 
ATOM     27  H20 EML d          -7.022  30.311  79.556  0.00  0.00     0.030 H 
ATOM     28  H21 EML d          -8.235  30.438  80.875  0.00  0.00     0.030 H 
ENDBRANCH  19  25
BRANCH  19  29
ATOM     29  C20 EML d          -8.047  27.404  79.911  0.00  0.00    -0.043 C 
ATOM     30  H25 EML d          -9.118  27.646  79.841  0.00  0.00     0.030 H 
ATOM     31  H26 EML d          -7.921  26.450  80.445  0.00  0.00     0.030 H 
ATOM     32  H27 EML d          -7.624  27.316  78.899  0.00  0.00     0.030 H 
ENDBRANCH  19  29
ENDBRANCH  10  19
ENDBRANCH   7  10
ENDBRANCH   5   7
BRANCH   3  33
ATOM     33  N1  EML d          -4.088  31.804  84.954  0.00  0.00    -0.331 N 
ATOM     34  H1  EML d          -3.603  31.554  85.827  0.00  0.00     0.168 HD
BRANCH  33  35
ATOM     35  C5  EML d          -3.389  32.572  84.035  0.00  0.00     0.176 A 
ATOM     36  C6  EML d          -2.728  33.742  84.416  0.00  0.00     0.181 A 
ATOM     37  N2  EML d          -2.688  34.379  85.662  0.00  0.00    -0.237 NA
ATOM     38  N3  EML d          -2.057  34.449  83.461  0.00  0.00    -0.299 N 
ATOM     39  C9  EML d          -1.951  35.476  85.392  0.00  0.00     0.032 A 
ATOM     40  C7  EML d          -1.521  35.578  84.043  0.00  0.00     0.071 A 
ATOM     41  H9  EML d          -1.706  36.222  86.147  0.00  0.00     0.118 H 
ATOM     42  C2  EML d          -1.980  34.103  82.129  0.00  0.00     0.011 A 
ATOM     43  C3  EML d          -2.644  32.964  81.739  0.00  0.00     0.049 A 
ATOM     44  H3  EML d          -1.416  34.704  81.417  0.00  0.00     0.115 H 
ATOM     45  N7  EML d          -3.352  32.247  82.693  0.00  0.00    -0.231 NA
BRANCH  40  46
ATOM     46  C1  EML d          -0.756  36.701  83.369  0.00  0.00     0.029 A 
ATOM     47  C8  EML d           0.605  36.941  83.535  0.00  0.00     0.035 A 
ATOM     48  N5  EML d           0.858  38.011  82.755  0.00  0.00    -0.187 NA
ATOM     49  H7  EML d           1.308  36.387  84.155  0.00  0.00     0.118 H 
ATOM     50  N4  EML d          -0.241  38.442  82.108  0.00  0.00    -0.289 N 
ATOM     51  C10 EML d          -1.272  37.671  82.457  0.00  0.00     0.009 A 
ATOM     52  H6  EML d          -0.279  39.236  81.453  0.00  0.00     0.188 HD
ATOM     53  H10 EML d          -2.301  37.762  82.114  0.00  0.00     0.115 H 
ENDBRANCH  40  46
BRANCH  43  54
ATOM     54  C19 EML d          -2.609  32.477  80.332  0.00  0.00    -0.034 C 
ATOM     55  H22 EML d          -3.158  33.180  79.687  0.00  0.00     0.035 H 
ATOM     56  H23 EML d          -3.080  31.485  80.275  0.00  0.00     0.035 H 
ATOM     57  H24 EML d          -1.565  32.408  79.993  0.00  0.00     0.035 H 
ENDBRANCH  43  54
ENDBRANCH  33  35
ENDBRANCH   3  33
TORSDOF 13
ENDMDL
MODEL 10
REMARK VINA RESULT:      -5.4      2.904      4.972
REMARK  13 active torsions:
REMARK  status: ('A' for Active; 'I' for Inactive)
REMARK    1  A    between atoms: C7_15  and  C1_1 
REMARK    2  A    between atoms: N1_2  and  C5_11 
REMARK    3  A    between atoms: C11_21  and  N1_2 
REMARK    4  A    between atoms: C17_27  and  O1_3 
REMARK    5  A    between atoms: C3_7  and  C19_29 
REMARK    6  A    between atoms: N8_18  and  C4_9 
REMARK    7  A    between atoms: C4_9  and  C16_26 
REMARK    8  A    between atoms: N8_18  and  C13_23 
REMARK    9  A    between atoms: C15_25  and  N8_18 
REMARK   10  A    between atoms: C13_23  and  C14_24 
REMARK   11  A    between atoms: C15_25  and  C17_27 
REMARK   12  A    between atoms: C15_25  and  C18_28 
REMARK   13  A    between atoms: C15_25  and  C20_30 
ROOT
ATOM      1  S1  EML d          -3.298  36.914  84.039  0.00  0.00     0.029 SA
ATOM      2  N6  EML d          -2.157  37.867  83.563  0.00  0.00    -0.212 NA
ATOM      3  C11 EML d          -2.308  35.631  84.650  0.00  0.00     0.096 A 
ATOM      4  C12 EML d          -0.992  36.064  84.448  0.00  0.00    -0.023 A 
ATOM      5  C14 EML d          -0.951  37.317  83.836  0.00  0.00     0.071 A 
ATOM      6  H11 EML d          -0.110  35.493  84.732  0.00  0.00     0.091 H 
ENDROOT
BRANCH   5   7
ATOM      7  C13 EML d           0.303  38.086  83.487  0.00  0.00     0.124 C 
ATOM      8  H12 EML d           0.083  39.155  83.620  0.00  0.00     0.086 H 
ATOM      9  H13 EML d           1.086  37.780  84.197  0.00  0.00     0.086 H 
BRANCH   7  10
ATOM     10  N8  EML d           0.861  37.907  82.090  0.00  0.00    -0.056 N 
ATOM     11  H8  EML d           0.011  37.633  81.623  0.00  0.00     0.281 HD
BRANCH  10  12
ATOM     12  C4  EML d           1.151  39.141  81.355  0.00  0.00     0.082 C 
ATOM     13  H4  EML d           0.179  39.612  81.146  0.00  0.00     0.075 H 
ATOM     14  H5  EML d           1.622  38.835  80.409  0.00  0.00     0.075 H 
BRANCH  12  15
ATOM     15  C16 EML d           2.025  40.215  81.936  0.00  0.00    -0.053 C 
ATOM     16  H14 EML d           3.081  39.973  81.742  0.00  0.00     0.029 H 
ATOM     17  H15 EML d           1.856  40.278  83.021  0.00  0.00     0.029 H 
ATOM     18  H16 EML d           1.779  41.180  81.470  0.00  0.00     0.029 H 
ENDBRANCH  12  15
ENDBRANCH  10  12
BRANCH  10  19
ATOM     19  C15 EML d           1.689  36.729  81.743  0.00  0.00     0.142 C 
BRANCH  19  20
ATOM     20  C17 EML d           2.711  36.386  82.851  0.00  0.00     0.047 C 
ATOM     21  H17 EML d           3.723  36.409  82.421  0.00  0.00     0.077 H 
ATOM     22  H18 EML d           2.635  37.138  83.650  0.00  0.00     0.077 H 
BRANCH  20  23
ATOM     23  O1  EML d           2.475  35.083  83.416  0.00  0.00    -0.398 OA
ATOM     24  H2  EML d           1.835  34.620  82.889  0.00  0.00     0.209 HD
ENDBRANCH  20  23
ENDBRANCH  19  20
BRANCH  19  25
ATOM     25  C18 EML d           2.615  36.939  80.596  0.00  0.00    -0.043 C 
ATOM     26  H19 EML d           2.123  37.566  79.837  0.00  0.00     0.030 H 
ATOM     27  H20 EML d           2.878  35.967  80.153  0.00  0.00     0.030 H 
ATOM     28  H21 EML d           3.528  37.440  80.949  0.00  0.00     0.030 H 
ENDBRANCH  19  25
BRANCH  19  29
ATOM     29  C20 EML d           0.825  35.510  81.312  0.00  0.00    -0.043 C 
ATOM     30  H25 EML d           1.380  34.908  80.578  0.00  0.00     0.030 H 
ATOM     31  H26 EML d          -0.112  35.867  80.860  0.00  0.00     0.030 H 
ATOM     32  H27 EML d           0.595  34.893  82.194  0.00  0.00     0.030 H 
ENDBRANCH  19  29
ENDBRANCH  10  19
ENDBRANCH   7  10
ENDBRANCH   5   7
BRANCH   3  33
ATOM     33  N1  EML d          -2.731  34.424  85.210  0.00  0.00    -0.331 N 
ATOM     34  H1  EML d          -2.395  34.199  86.157  0.00  0.00     0.168 HD
BRANCH  33  35
ATOM     35  C5  EML d          -3.567  33.503  84.596  0.00  0.00     0.176 A 
ATOM     36  C6  EML d          -3.290  33.003  83.322  0.00  0.00     0.181 A 
ATOM     37  N2  EML d          -2.257  33.337  82.437  0.00  0.00    -0.237 NA
ATOM     38  N3  EML d          -4.153  32.097  82.777  0.00  0.00    -0.299 N 
ATOM     39  C9  EML d          -2.549  32.574  81.364  0.00  0.00     0.032 A 
ATOM     40  C7  EML d          -3.712  31.774  81.511  0.00  0.00     0.071 A 
ATOM     41  H9  EML d          -1.943  32.573  80.459  0.00  0.00     0.118 H 
ATOM     42  C2  EML d          -5.297  31.631  83.387  0.00  0.00     0.011 A 
ATOM     43  C3  EML d          -5.592  32.132  84.632  0.00  0.00     0.049 A 
ATOM     44  H3  EML d          -5.940  30.896  82.903  0.00  0.00     0.115 H 
ATOM     45  N7  EML d          -4.737  33.072  85.190  0.00  0.00    -0.231 NA
BRANCH  40  46
ATOM     46  C1  EML d          -4.381  30.868  80.494  0.00  0.00     0.029 A 
ATOM     47  C8  EML d          -4.309  31.041  79.115  0.00  0.00     0.035 A 
ATOM     48  N5  EML d          -5.027  30.017  78.608  0.00  0.00    -0.187 NA
ATOM     49  H7  EML d          -3.790  31.826  78.568  0.00  0.00     0.118 H 
ATOM     50  N4  EML d          -5.523  29.216  79.569  0.00  0.00    -0.289 N 
ATOM     51  C10 EML d          -5.159  29.700  80.758  0.00  0.00     0.009 A 
ATOM     52  H6  EML d          -6.090  28.371  79.413  0.00  0.00     0.188 HD
ATOM     53  H10 EML d          -5.406  29.287  81.735  0.00  0.00     0.115 H 
ENDBRANCH  40  46
BRANCH  43  54
ATOM     54  C19 EML d          -6.788  31.682  85.398  0.00  0.00    -0.034 C 
ATOM     55  H22 EML d          -7.440  31.086  84.743  0.00  0.00     0.035 H 
ATOM     56  H23 EML d          -7.340  32.559  85.765  0.00  0.00     0.035 H 
ATOM     57  H24 EML d          -6.466  31.067  86.252  0.00  0.00     0.035 H 
ENDBRANCH  43  54
ENDBRANCH  33  35
ENDBRANCH   3  33
TORSDOF 13
ENDMDL
