MODEL 1
REMARK VINA RESULT:      -7.9      0.000      0.000
REMARK  16 active torsions:
REMARK  status: ('A' for Active; 'I' for Inactive)
REMARK    1  A    between atoms: C2_1  and  O2_7 
REMARK    2  A    between atoms: C3_2  and  O3_8 
REMARK    3  A    between atoms: C4_3  and  O4_9 
REMARK    4  A    between atoms: C5_4  and  C6_5 
REMARK    5  A    between atoms: C6_5  and  O6_11 
REMARK    6  A    between atoms: O4_20  and  C1_6 
REMARK    7  A    between atoms: C2_12  and  O2_18 
REMARK    8  A    between atoms: C3_13  and  O3_19 
REMARK    9  A    between atoms: C4_14  and  O4_20 
REMARK   10  A    between atoms: C5_15  and  C6_16 
REMARK   11  A    between atoms: C6_16  and  O6_22 
REMARK   12  A    between atoms: O4_30  and  C1_17 
REMARK   13  A    between atoms: C5_24  and  C6_23 
REMARK   14  A    between atoms: C6_23  and  O6_28 
REMARK   15  A    between atoms: C4_25  and  O4_30 
REMARK   16  A    between atoms: C3_26  and  O3_31 
ROOT
ATOM      1  C2  MOL d          61.553  47.718  36.335  0.00  0.00     0.110 C 
ATOM      2  C3  MOL d          60.868  48.696  37.282  0.00  0.00     0.092 C 
ATOM      3  C4  MOL d          59.363  48.497  37.196  0.00  0.00     0.096 C 
ATOM      4  C5  MOL d          59.068  47.040  37.545  0.00  0.00     0.089 C 
ATOM      5  C1  MOL d          61.110  46.293  36.639  0.00  0.00     0.159 C 
ATOM      6  O5  MOL d          59.698  46.204  36.583  0.00  0.00    -0.348 OA
ATOM      7  H12 MOL d          61.262  47.971  35.304  0.00  0.00     0.094 H 
ATOM      8  H13 MOL d          61.204  48.504  38.313  0.00  0.00     0.091 H 
ATOM      9  H14 MOL d          59.013  48.712  36.176  0.00  0.00     0.091 H 
ATOM     10  H15 MOL d          59.487  46.837  38.542  0.00  0.00     0.090 H 
ATOM     11  H18 MOL d          61.478  45.978  37.626  0.00  0.00     0.133 H 
ENDROOT
BRANCH   3  12
ATOM     12  O4  MOL d          58.720  49.376  38.112  0.00  0.00    -0.348 OA
BRANCH  12  13
ATOM     13  C1  MOL d          57.687  50.192  37.561  0.00  0.00     0.159 C 
ATOM     14  C2  MOL d          56.867  50.702  38.732  0.00  0.00     0.110 C 
ATOM     15  C3  MOL d          55.845  51.717  38.256  0.00  0.00     0.092 C 
ATOM     16  H1  MOL d          57.541  51.198  39.445  0.00  0.00     0.094 H 
ATOM     17  C4  MOL d          56.474  52.793  37.393  0.00  0.00     0.090 C 
ATOM     18  H2  MOL d          55.089  51.196  37.650  0.00  0.00     0.091 H 
ATOM     19  C5  MOL d          57.322  52.151  36.313  0.00  0.00     0.089 C 
ATOM     20  H3  MOL d          57.114  53.429  38.022  0.00  0.00     0.091 H 
ATOM     21  O5  MOL d          58.283  51.270  36.875  0.00  0.00    -0.348 OA
ATOM     22  H4  MOL d          56.650  51.570  35.663  0.00  0.00     0.090 H 
ATOM     23  H7  MOL d          57.054  49.611  36.874  0.00  0.00     0.133 H 
BRANCH  14  24
ATOM     24  O2  MOL d          56.246  49.605  39.386  0.00  0.00    -0.388 OA
ATOM     25  H8  MOL d          55.872  49.021  38.737  0.00  0.00     0.210 HD
ENDBRANCH  14  24
BRANCH  15  26
ATOM     26  O3  MOL d          55.211  52.270  39.390  0.00  0.00    -0.390 OA
ATOM     27  H9  MOL d          54.986  53.176  39.215  0.00  0.00     0.210 HD
ENDBRANCH  15  26
BRANCH  17  28
ATOM     28  O4  MOL d          55.467  53.589  36.810  0.00  0.00    -0.390 OA
ATOM     29  H10 MOL d          54.903  53.935  37.493  0.00  0.00     0.210 HD
ENDBRANCH  17  28
BRANCH  19  30
ATOM     30  C6  MOL d          58.053  53.156  35.457  0.00  0.00     0.043 C 
ATOM     31  H5  MOL d          57.392  53.501  34.649  0.00  0.00     0.078 H 
ATOM     32  H6  MOL d          58.949  52.686  35.023  0.00  0.00     0.078 H 
BRANCH  30  33
ATOM     33  O6  MOL d          58.437  54.255  36.255  0.00  0.00    -0.398 OA
ATOM     34  H11 MOL d          59.385  54.287  36.313  0.00  0.00     0.209 HD
ENDBRANCH  30  33
ENDBRANCH  19  30
ENDBRANCH  12  13
ENDBRANCH   3  12
BRANCH   2  35
ATOM     35  O3  MOL d          61.202  50.026  36.924  0.00  0.00    -0.390 OA
ATOM     36  H20 MOL d          60.545  50.366  36.327  0.00  0.00     0.210 HD
ENDBRANCH   2  35
BRANCH   4  37
ATOM     37  C6  MOL d          57.610  46.667  37.560  0.00  0.00     0.043 C 
ATOM     38  H16 MOL d          57.503  45.598  37.329  0.00  0.00     0.078 H 
ATOM     39  H17 MOL d          57.073  47.262  36.805  0.00  0.00     0.078 H 
BRANCH  37  40
ATOM     40  O6  MOL d          57.067  46.931  38.844  0.00  0.00    -0.398 OA
ATOM     41  H21 MOL d          56.193  46.563  38.899  0.00  0.00     0.209 HD
ENDBRANCH  37  40
ENDBRANCH   4  37
BRANCH   1  42
ATOM     42  O2  MOL d          62.960  47.797  36.440  0.00  0.00    -0.388 OA
ATOM     43  H19 MOL d          63.249  47.295  37.193  0.00  0.00     0.210 HD
ENDBRANCH   1  42
BRANCH   5  44
ATOM     44  O4  MOL d          61.609  45.479  35.644  0.00  0.00    -0.348 OA
BRANCH  44  45
ATOM     45  C4  MOL d          61.517  44.086  35.846  0.00  0.00     0.097 C 
ATOM     46  C5  MOL d          62.915  43.472  35.907  0.00  0.00     0.119 C 
ATOM     47  O5  MOL d          62.811  42.057  36.056  0.00  0.00    -0.195 OA
ATOM     48  H24 MOL d          63.450  43.724  34.980  0.00  0.00     0.094 H 
ATOM     49  N1  MOL d          62.200  41.487  34.890  0.00  0.00     0.042 N 
ATOM     50  C2  MOL d          60.821  41.934  34.791  0.00  0.00     0.135 C 
ATOM     51  H31 MOL d          62.707  41.779  34.069  0.00  0.00     0.315 HD
ATOM     52  H32 MOL d          62.222  40.481  34.959  0.00  0.00     0.315 HD
ATOM     53  C3  MOL d          60.786  43.460  34.657  0.00  0.00     0.088 C 
ATOM     54  H27 MOL d          60.350  41.477  33.907  0.00  0.00     0.084 H 
ATOM     55  H28 MOL d          60.271  41.632  35.695  0.00  0.00     0.084 H 
ATOM     56  H26 MOL d          61.275  43.777  33.723  0.00  0.00     0.089 H 
ATOM     57  H25 MOL d          60.974  43.880  36.780  0.00  0.00     0.091 H 
BRANCH  46  58
ATOM     58  C6  MOL d          63.729  43.921  37.105  0.00  0.00     0.045 C 
ATOM     59  H22 MOL d          64.432  43.123  37.384  0.00  0.00     0.078 H 
ATOM     60  H23 MOL d          63.051  44.124  37.948  0.00  0.00     0.078 H 
BRANCH  58  61
ATOM     61  O6  MOL d          64.463  45.109  36.797  0.00  0.00    -0.398 OA
ATOM     62  H29 MOL d          64.048  45.556  36.070  0.00  0.00     0.209 HD
ENDBRANCH  58  61
ENDBRANCH  46  58
BRANCH  53  63
ATOM     63  O3  MOL d          59.410  43.820  34.629  0.00  0.00    -0.391 OA
ATOM     64  H30 MOL d          59.331  44.765  34.566  0.00  0.00     0.210 HD
ENDBRANCH  53  63
ENDBRANCH  44  45
ENDBRANCH   5  44
TORSDOF 16
ENDMDL
MODEL 2
REMARK VINA RESULT:      -6.8      0.906      1.975
REMARK  16 active torsions:
REMARK  status: ('A' for Active; 'I' for Inactive)
REMARK    1  A    between atoms: C2_1  and  O2_7 
REMARK    2  A    between atoms: C3_2  and  O3_8 
REMARK    3  A    between atoms: C4_3  and  O4_9 
REMARK    4  A    between atoms: C5_4  and  C6_5 
REMARK    5  A    between atoms: C6_5  and  O6_11 
REMARK    6  A    between atoms: O4_20  and  C1_6 
REMARK    7  A    between atoms: C2_12  and  O2_18 
REMARK    8  A    between atoms: C3_13  and  O3_19 
REMARK    9  A    between atoms: C4_14  and  O4_20 
REMARK   10  A    between atoms: C5_15  and  C6_16 
REMARK   11  A    between atoms: C6_16  and  O6_22 
REMARK   12  A    between atoms: O4_30  and  C1_17 
REMARK   13  A    between atoms: C5_24  and  C6_23 
REMARK   14  A    between atoms: C6_23  and  O6_28 
REMARK   15  A    between atoms: C4_25  and  O4_30 
REMARK   16  A    between atoms: C3_26  and  O3_31 
ROOT
ATOM      1  C2  MOL d          61.407  47.646  36.129  0.00  0.00     0.110 C 
ATOM      2  C3  MOL d          60.792  48.572  37.172  0.00  0.00     0.092 C 
ATOM      3  C4  MOL d          59.311  48.253  37.305  0.00  0.00     0.096 C 
ATOM      4  C5  MOL d          59.186  46.779  37.685  0.00  0.00     0.089 C 
ATOM      5  C1  MOL d          61.127  46.191  36.486  0.00  0.00     0.159 C 
ATOM      6  O5  MOL d          59.734  45.991  36.637  0.00  0.00    -0.348 OA
ATOM      7  H12 MOL d          60.950  47.869  35.154  0.00  0.00     0.094 H 
ATOM      8  H13 MOL d          61.288  48.412  38.141  0.00  0.00     0.091 H 
ATOM      9  H14 MOL d          58.800  48.434  36.348  0.00  0.00     0.091 H 
ATOM     10  H15 MOL d          59.761  46.616  38.608  0.00  0.00     0.090 H 
ATOM     11  H18 MOL d          61.659  45.913  37.407  0.00  0.00     0.133 H 
ENDROOT
BRANCH   3  12
ATOM     12  O4  MOL d          58.741  49.084  38.310  0.00  0.00    -0.348 OA
BRANCH  12  13
ATOM     13  C1  MOL d          57.734  49.990  37.863  0.00  0.00     0.159 C 
ATOM     14  C2  MOL d          57.157  50.644  39.104  0.00  0.00     0.110 C 
ATOM     15  C3  MOL d          56.193  51.751  38.717  0.00  0.00     0.092 C 
ATOM     16  H1  MOL d          57.979  51.089  39.684  0.00  0.00     0.094 H 
ATOM     17  C4  MOL d          56.803  52.706  37.710  0.00  0.00     0.090 C 
ATOM     18  H2  MOL d          55.304  51.296  38.257  0.00  0.00     0.091 H 
ATOM     19  C5  MOL d          57.407  51.922  36.561  0.00  0.00     0.089 C 
ATOM     20  H3  MOL d          57.596  53.290  38.202  0.00  0.00     0.091 H 
ATOM     21  O5  MOL d          58.337  50.959  37.035  0.00  0.00    -0.348 OA
ATOM     22  H4  MOL d          56.587  51.396  36.049  0.00  0.00     0.090 H 
ATOM     23  H7  MOL d          56.947  49.458  37.308  0.00  0.00     0.133 H 
BRANCH  14  24
ATOM     24  O2  MOL d          56.522  49.659  39.905  0.00  0.00    -0.388 OA
ATOM     25  H8  MOL d          55.762  50.039  40.331  0.00  0.00     0.210 HD
ENDBRANCH  14  24
BRANCH  15  26
ATOM     26  O3  MOL d          55.799  52.424  39.893  0.00  0.00    -0.390 OA
ATOM     27  H9  MOL d          55.437  53.272  39.665  0.00  0.00     0.210 HD
ENDBRANCH  15  26
BRANCH  17  28
ATOM     28  O4  MOL d          55.815  53.589  37.228  0.00  0.00    -0.390 OA
ATOM     29  H10 MOL d          55.077  53.593  37.826  0.00  0.00     0.210 HD
ENDBRANCH  17  28
BRANCH  19  30
ATOM     30  C6  MOL d          58.110  52.795  35.551  0.00  0.00     0.043 C 
ATOM     31  H5  MOL d          57.450  52.962  34.687  0.00  0.00     0.078 H 
ATOM     32  H6  MOL d          59.034  52.299  35.217  0.00  0.00     0.078 H 
BRANCH  30  33
ATOM     33  O6  MOL d          58.428  54.033  36.148  0.00  0.00    -0.398 OA
ATOM     34  H11 MOL d          59.098  54.469  35.632  0.00  0.00     0.209 HD
ENDBRANCH  30  33
ENDBRANCH  19  30
ENDBRANCH  12  13
ENDBRANCH   3  12
BRANCH   2  35
ATOM     35  O3  MOL d          60.964  49.921  36.777  0.00  0.00    -0.390 OA
ATOM     36  H20 MOL d          60.746  50.494  37.504  0.00  0.00     0.210 HD
ENDBRANCH   2  35
BRANCH   4  37
ATOM     37  C6  MOL d          57.781  46.293  37.909  0.00  0.00     0.043 C 
ATOM     38  H16 MOL d          57.546  46.333  38.983  0.00  0.00     0.078 H 
ATOM     39  H17 MOL d          57.690  45.256  37.552  0.00  0.00     0.078 H 
BRANCH  37  40
ATOM     40  O6  MOL d          56.874  47.120  37.196  0.00  0.00    -0.398 OA
ATOM     41  H21 MOL d          57.142  47.171  36.286  0.00  0.00     0.209 HD
ENDBRANCH  37  40
ENDBRANCH   4  37
BRANCH   1  42
ATOM     42  O2  MOL d          62.803  47.836  36.028  0.00  0.00    -0.388 OA
ATOM     43  H19 MOL d          62.993  48.393  35.283  0.00  0.00     0.210 HD
ENDBRANCH   1  42
BRANCH   5  44
ATOM     44  O4  MOL d          61.538  45.414  35.424  0.00  0.00    -0.348 OA
BRANCH  44  45
ATOM     45  C4  MOL d          62.369  44.313  35.717  0.00  0.00     0.097 C 
ATOM     46  C5  MOL d          61.540  43.030  35.774  0.00  0.00     0.119 C 
ATOM     47  O5  MOL d          62.378  41.932  36.125  0.00  0.00    -0.195 OA
ATOM     48  H24 MOL d          60.742  43.161  36.520  0.00  0.00     0.094 H 
ATOM     49  N1  MOL d          62.888  42.111  37.455  0.00  0.00     0.042 N 
ATOM     50  C2  MOL d          63.777  43.260  37.489  0.00  0.00     0.135 C 
ATOM     51  H31 MOL d          62.119  42.263  38.090  0.00  0.00     0.315 HD
ATOM     52  H32 MOL d          63.396  41.286  37.732  0.00  0.00     0.315 HD
ATOM     53  C3  MOL d          62.999  44.520  37.095  0.00  0.00     0.088 C 
ATOM     54  H27 MOL d          64.181  43.380  38.505  0.00  0.00     0.084 H 
ATOM     55  H28 MOL d          64.605  43.104  36.782  0.00  0.00     0.084 H 
ATOM     56  H26 MOL d          62.206  44.730  37.829  0.00  0.00     0.089 H 
ATOM     57  H25 MOL d          63.151  44.221  34.949  0.00  0.00     0.091 H 
BRANCH  46  58
ATOM     58  C6  MOL d          60.932  42.634  34.442  0.00  0.00     0.045 C 
ATOM     59  H22 MOL d          61.277  43.333  33.665  0.00  0.00     0.078 H 
ATOM     60  H23 MOL d          59.836  42.682  34.516  0.00  0.00     0.078 H 
BRANCH  58  61
ATOM     61  O6  MOL d          61.322  41.306  34.087  0.00  0.00    -0.398 OA
ATOM     62  H29 MOL d          60.770  40.683  34.543  0.00  0.00     0.209 HD
ENDBRANCH  58  61
ENDBRANCH  46  58
BRANCH  53  63
ATOM     63  O3  MOL d          63.948  45.581  37.091  0.00  0.00    -0.391 OA
ATOM     64  H30 MOL d          64.748  45.291  37.515  0.00  0.00     0.210 HD
ENDBRANCH  53  63
ENDBRANCH  44  45
ENDBRANCH   5  44
TORSDOF 16
ENDMDL
MODEL 3
REMARK VINA RESULT:      -5.6      2.948      8.545
REMARK  16 active torsions:
REMARK  status: ('A' for Active; 'I' for Inactive)
REMARK    1  A    between atoms: C2_1  and  O2_7 
REMARK    2  A    between atoms: C3_2  and  O3_8 
REMARK    3  A    between atoms: C4_3  and  O4_9 
REMARK    4  A    between atoms: C5_4  and  C6_5 
REMARK    5  A    between atoms: C6_5  and  O6_11 
REMARK    6  A    between atoms: O4_20  and  C1_6 
REMARK    7  A    between atoms: C2_12  and  O2_18 
REMARK    8  A    between atoms: C3_13  and  O3_19 
REMARK    9  A    between atoms: C4_14  and  O4_20 
REMARK   10  A    between atoms: C5_15  and  C6_16 
REMARK   11  A    between atoms: C6_16  and  O6_22 
REMARK   12  A    between atoms: O4_30  and  C1_17 
REMARK   13  A    between atoms: C5_24  and  C6_23 
REMARK   14  A    between atoms: C6_23  and  O6_28 
REMARK   15  A    between atoms: C4_25  and  O4_30 
REMARK   16  A    between atoms: C3_26  and  O3_31 
ROOT
ATOM      1  C2  MOL d          59.770  49.145  37.668  0.00  0.00     0.110 C 
ATOM      2  C3  MOL d          60.003  47.660  37.416  0.00  0.00     0.092 C 
ATOM      3  C4  MOL d          58.840  46.871  37.996  0.00  0.00     0.096 C 
ATOM      4  C5  MOL d          57.559  47.382  37.339  0.00  0.00     0.089 C 
ATOM      5  C1  MOL d          58.413  49.567  37.117  0.00  0.00     0.159 C 
ATOM      6  O5  MOL d          57.394  48.754  37.670  0.00  0.00    -0.348 OA
ATOM      7  H12 MOL d          59.783  49.320  38.755  0.00  0.00     0.094 H 
ATOM      8  H13 MOL d          60.064  47.478  36.333  0.00  0.00     0.091 H 
ATOM      9  H14 MOL d          58.786  47.025  39.084  0.00  0.00     0.091 H 
ATOM     10  H15 MOL d          57.670  47.276  36.250  0.00  0.00     0.090 H 
ATOM     11  H18 MOL d          58.407  49.499  36.019  0.00  0.00     0.133 H 
ENDROOT
BRANCH   3  12
ATOM     12  O4  MOL d          59.029  45.487  37.724  0.00  0.00    -0.348 OA
BRANCH  12  13
ATOM     13  C1  MOL d          60.335  45.118  37.285  0.00  0.00     0.159 C 
ATOM     14  C2  MOL d          60.874  44.134  38.305  0.00  0.00     0.110 C 
ATOM     15  C3  MOL d          62.195  43.554  37.832  0.00  0.00     0.092 C 
ATOM     16  H1  MOL d          60.154  43.309  38.415  0.00  0.00     0.094 H 
ATOM     17  C4  MOL d          62.106  43.027  36.414  0.00  0.00     0.090 C 
ATOM     18  H2  MOL d          62.953  44.350  37.852  0.00  0.00     0.091 H 
ATOM     19  C5  MOL d          61.485  44.079  35.515  0.00  0.00     0.089 C 
ATOM     20  H3  MOL d          61.474  42.127  36.403  0.00  0.00     0.091 H 
ATOM     21  O5  MOL d          60.227  44.503  36.021  0.00  0.00    -0.348 OA
ATOM     22  H4  MOL d          62.165  44.944  35.495  0.00  0.00     0.090 H 
ATOM     23  H7  MOL d          60.990  46.000  37.219  0.00  0.00     0.133 H 
BRANCH  14  24
ATOM     24  O2  MOL d          61.011  44.783  39.561  0.00  0.00    -0.388 OA
ATOM     25  H8  MOL d          60.515  44.307  40.218  0.00  0.00     0.210 HD
ENDBRANCH  14  24
BRANCH  15  26
ATOM     26  O3  MOL d          62.580  42.540  38.736  0.00  0.00    -0.390 OA
ATOM     27  H9  MOL d          62.868  41.777  38.249  0.00  0.00     0.210 HD
ENDBRANCH  15  26
BRANCH  17  28
ATOM     28  O4  MOL d          63.393  42.690  35.947  0.00  0.00    -0.390 OA
ATOM     29  H10 MOL d          64.032  42.868  36.628  0.00  0.00     0.210 HD
ENDBRANCH  17  28
BRANCH  19  30
ATOM     30  C6  MOL d          61.283  43.604  34.097  0.00  0.00     0.043 C 
ATOM     31  H5  MOL d          62.120  43.949  33.472  0.00  0.00     0.078 H 
ATOM     32  H6  MOL d          60.340  44.011  33.704  0.00  0.00     0.078 H 
BRANCH  30  33
ATOM     33  O6  MOL d          61.233  42.194  34.081  0.00  0.00    -0.398 OA
ATOM     34  H11 MOL d          61.034  41.896  33.201  0.00  0.00     0.209 HD
ENDBRANCH  30  33
ENDBRANCH  19  30
ENDBRANCH  12  13
ENDBRANCH   3  12
BRANCH   2  35
ATOM     35  O3  MOL d          61.216  47.255  38.026  0.00  0.00    -0.390 OA
ATOM     36  H20 MOL d          61.935  47.394  37.421  0.00  0.00     0.210 HD
ENDBRANCH   2  35
BRANCH   4  37
ATOM     37  C6  MOL d          56.299  46.676  37.759  0.00  0.00     0.043 C 
ATOM     38  H16 MOL d          56.492  46.091  38.669  0.00  0.00     0.078 H 
ATOM     39  H17 MOL d          55.970  46.004  36.952  0.00  0.00     0.078 H 
BRANCH  37  40
ATOM     40  O6  MOL d          55.284  47.635  38.019  0.00  0.00    -0.398 OA
ATOM     41  H21 MOL d          55.418  48.010  38.881  0.00  0.00     0.209 HD
ENDBRANCH  37  40
ENDBRANCH   4  37
BRANCH   1  42
ATOM     42  O2  MOL d          60.777  49.935  37.071  0.00  0.00    -0.388 OA
ATOM     43  H19 MOL d          60.613  50.003  36.138  0.00  0.00     0.210 HD
ENDBRANCH   1  42
BRANCH   5  44
ATOM     44  O4  MOL d          58.176  50.859  37.533  0.00  0.00    -0.348 OA
BRANCH  44  45
ATOM     45  C4  MOL d          56.959  51.450  37.134  0.00  0.00     0.097 C 
ATOM     46  C5  MOL d          57.217  52.837  36.547  0.00  0.00     0.119 C 
ATOM     47  O5  MOL d          55.977  53.449  36.198  0.00  0.00    -0.195 OA
ATOM     48  H24 MOL d          57.748  53.443  37.297  0.00  0.00     0.094 H 
ATOM     49  N1  MOL d          55.195  53.679  37.378  0.00  0.00     0.042 N 
ATOM     50  C2  MOL d          54.809  52.408  37.967  0.00  0.00     0.135 C 
ATOM     51  H31 MOL d          55.741  54.204  38.044  0.00  0.00     0.315 HD
ATOM     52  H32 MOL d          54.368  54.200  37.135  0.00  0.00     0.315 HD
ATOM     53  C3  MOL d          56.066  51.625  38.363  0.00  0.00     0.088 C 
ATOM     54  H27 MOL d          54.193  52.589  38.860  0.00  0.00     0.084 H 
ATOM     55  H28 MOL d          54.230  51.825  37.234  0.00  0.00     0.084 H 
ATOM     56  H26 MOL d          56.624  52.162  39.144  0.00  0.00     0.089 H 
ATOM     57  H25 MOL d          56.462  50.812  36.388  0.00  0.00     0.091 H 
BRANCH  46  58
ATOM     58  C6  MOL d          58.009  52.818  35.254  0.00  0.00     0.045 C 
ATOM     59  H22 MOL d          58.159  53.850  34.906  0.00  0.00     0.078 H 
ATOM     60  H23 MOL d          57.448  52.253  34.495  0.00  0.00     0.078 H 
BRANCH  58  61
ATOM     61  O6  MOL d          59.282  52.198  35.454  0.00  0.00    -0.398 OA
ATOM     62  H29 MOL d          59.966  52.774  35.133  0.00  0.00     0.209 HD
ENDBRANCH  58  61
ENDBRANCH  46  58
BRANCH  53  63
ATOM     63  O3  MOL d          55.606  50.376  38.868  0.00  0.00    -0.391 OA
ATOM     64  H30 MOL d          54.793  50.141  38.438  0.00  0.00     0.210 HD
ENDBRANCH  53  63
ENDBRANCH  44  45
ENDBRANCH   5  44
TORSDOF 16
ENDMDL
MODEL 4
REMARK VINA RESULT:      -5.1      1.864      3.139
REMARK  16 active torsions:
REMARK  status: ('A' for Active; 'I' for Inactive)
REMARK    1  A    between atoms: C2_1  and  O2_7 
REMARK    2  A    between atoms: C3_2  and  O3_8 
REMARK    3  A    between atoms: C4_3  and  O4_9 
REMARK    4  A    between atoms: C5_4  and  C6_5 
REMARK    5  A    between atoms: C6_5  and  O6_11 
REMARK    6  A    between atoms: O4_20  and  C1_6 
REMARK    7  A    between atoms: C2_12  and  O2_18 
REMARK    8  A    between atoms: C3_13  and  O3_19 
REMARK    9  A    between atoms: C4_14  and  O4_20 
REMARK   10  A    between atoms: C5_15  and  C6_16 
REMARK   11  A    between atoms: C6_16  and  O6_22 
REMARK   12  A    between atoms: O4_30  and  C1_17 
REMARK   13  A    between atoms: C5_24  and  C6_23 
REMARK   14  A    between atoms: C6_23  and  O6_28 
REMARK   15  A    between atoms: C4_25  and  O4_30 
REMARK   16  A    between atoms: C3_26  and  O3_31 
ROOT
ATOM      1  C2  MOL d          57.676  46.811  37.802  0.00  0.00     0.110 C 
ATOM      2  C3  MOL d          57.297  48.251  38.127  0.00  0.00     0.092 C 
ATOM      3  C4  MOL d          58.325  48.830  39.086  0.00  0.00     0.096 C 
ATOM      4  C5  MOL d          59.694  48.721  38.419  0.00  0.00     0.089 C 
ATOM      5  C1  MOL d          59.104  46.748  37.275  0.00  0.00     0.159 C 
ATOM      6  O5  MOL d          59.989  47.347  38.204  0.00  0.00    -0.348 OA
ATOM      7  H12 MOL d          57.610  46.218  38.727  0.00  0.00     0.094 H 
ATOM      8  H13 MOL d          57.288  48.844  37.200  0.00  0.00     0.091 H 
ATOM      9  H14 MOL d          58.324  48.260  40.027  0.00  0.00     0.091 H 
ATOM     10  H15 MOL d          59.644  49.244  37.453  0.00  0.00     0.090 H 
ATOM     11  H18 MOL d          59.174  47.247  36.298  0.00  0.00     0.133 H 
ENDROOT
BRANCH   3  12
ATOM     12  O4  MOL d          58.002  50.189  39.357  0.00  0.00    -0.348 OA
BRANCH  12  13
ATOM     13  C1  MOL d          57.146  50.821  38.406  0.00  0.00     0.159 C 
ATOM     14  C2  MOL d          56.234  51.745  39.191  0.00  0.00     0.110 C 
ATOM     15  C3  MOL d          55.400  52.589  38.245  0.00  0.00     0.092 C 
ATOM     16  H1  MOL d          56.853  52.418  39.801  0.00  0.00     0.094 H 
ATOM     17  C4  MOL d          56.252  53.268  37.191  0.00  0.00     0.090 C 
ATOM     18  H2  MOL d          54.683  51.933  37.730  0.00  0.00     0.091 H 
ATOM     19  C5  MOL d          57.167  52.250  36.538  0.00  0.00     0.089 C 
ATOM     20  H3  MOL d          56.865  54.046  37.671  0.00  0.00     0.091 H 
ATOM     21  O5  MOL d          57.942  51.564  37.511  0.00  0.00    -0.348 OA
ATOM     22  H4  MOL d          56.532  51.519  36.016  0.00  0.00     0.090 H 
ATOM     23  H7  MOL d          56.556  50.074  37.855  0.00  0.00     0.133 H 
BRANCH  14  24
ATOM     24  O2  MOL d          55.415  50.974  40.059  0.00  0.00    -0.388 OA
ATOM     25  H8  MOL d          55.601  51.212  40.960  0.00  0.00     0.210 HD
ENDBRANCH  14  24
BRANCH  15  26
ATOM     26  O3  MOL d          54.681  53.531  39.012  0.00  0.00    -0.390 OA
ATOM     27  H9  MOL d          54.991  53.509  39.910  0.00  0.00     0.210 HD
ENDBRANCH  15  26
BRANCH  17  28
ATOM     28  O4  MOL d          55.425  53.869  36.221  0.00  0.00    -0.390 OA
ATOM     29  H10 MOL d          55.223  53.236  35.541  0.00  0.00     0.210 HD
ENDBRANCH  17  28
BRANCH  19  30
ATOM     30  C6  MOL d          58.111  52.860  35.532  0.00  0.00     0.043 C 
ATOM     31  H5  MOL d          57.593  52.980  34.568  0.00  0.00     0.078 H 
ATOM     32  H6  MOL d          58.983  52.202  35.400  0.00  0.00     0.078 H 
BRANCH  30  33
ATOM     33  O6  MOL d          58.537  54.122  35.998  0.00  0.00    -0.398 OA
ATOM     34  H11 MOL d          57.984  54.799  35.626  0.00  0.00     0.209 HD
ENDBRANCH  30  33
ENDBRANCH  19  30
ENDBRANCH  12  13
ENDBRANCH   3  12
BRANCH   2  35
ATOM     35  O3  MOL d          56.009  48.288  38.716  0.00  0.00    -0.390 OA
ATOM     36  H20 MOL d          55.893  49.114  39.170  0.00  0.00     0.210 HD
ENDBRANCH   2  35
BRANCH   4  37
ATOM     37  C6  MOL d          60.839  49.294  39.210  0.00  0.00     0.043 C 
ATOM     38  H16 MOL d          60.688  49.085  40.278  0.00  0.00     0.078 H 
ATOM     39  H17 MOL d          60.885  50.382  39.051  0.00  0.00     0.078 H 
BRANCH  37  40
ATOM     40  O6  MOL d          62.055  48.702  38.779  0.00  0.00    -0.398 OA
ATOM     41  H21 MOL d          61.909  47.783  38.590  0.00  0.00     0.209 HD
ENDBRANCH  37  40
ENDBRANCH   4  37
BRANCH   1  42
ATOM     42  O2  MOL d          56.804  46.251  36.843  0.00  0.00    -0.388 OA
ATOM     43  H19 MOL d          57.106  46.477  35.971  0.00  0.00     0.210 HD
ENDBRANCH   1  42
BRANCH   5  44
ATOM     44  O4  MOL d          59.455  45.418  37.177  0.00  0.00    -0.348 OA
BRANCH  44  45
ATOM     45  C4  MOL d          60.588  44.997  37.904  0.00  0.00     0.097 C 
ATOM     46  C5  MOL d          61.435  44.051  37.054  0.00  0.00     0.119 C 
ATOM     47  O5  MOL d          62.548  43.587  37.816  0.00  0.00    -0.195 OA
ATOM     48  H24 MOL d          60.806  43.206  36.736  0.00  0.00     0.094 H 
ATOM     49  N1  MOL d          62.088  42.794  38.919  0.00  0.00     0.042 N 
ATOM     50  C2  MOL d          61.346  43.628  39.849  0.00  0.00     0.135 C 
ATOM     51  H31 MOL d          61.489  42.059  38.576  0.00  0.00     0.315 HD
ATOM     52  H32 MOL d          62.880  42.388  39.393  0.00  0.00     0.315 HD
ATOM     53  C3  MOL d          60.125  44.223  39.139  0.00  0.00     0.088 C 
ATOM     54  H27 MOL d          61.013  43.019  40.703  0.00  0.00     0.084 H 
ATOM     55  H28 MOL d          61.993  44.441  40.209  0.00  0.00     0.084 H 
ATOM     56  H26 MOL d          59.432  43.426  38.829  0.00  0.00     0.089 H 
ATOM     57  H25 MOL d          61.185  45.872  38.203  0.00  0.00     0.091 H 
BRANCH  46  58
ATOM     58  C6  MOL d          62.056  44.711  35.838  0.00  0.00     0.045 C 
ATOM     59  H22 MOL d          62.320  45.750  36.085  0.00  0.00     0.078 H 
ATOM     60  H23 MOL d          61.329  44.705  35.012  0.00  0.00     0.078 H 
BRANCH  58  61
ATOM     61  O6  MOL d          63.233  44.010  35.432  0.00  0.00    -0.398 OA
ATOM     62  H29 MOL d          62.991  43.159  35.088  0.00  0.00     0.209 HD
ENDBRANCH  58  61
ENDBRANCH  46  58
BRANCH  53  63
ATOM     63  O3  MOL d          59.492  45.071  40.092  0.00  0.00    -0.391 OA
ATOM     64  H30 MOL d          59.886  45.935  40.055  0.00  0.00     0.210 HD
ENDBRANCH  53  63
ENDBRANCH  44  45
ENDBRANCH   5  44
TORSDOF 16
ENDMDL
