MODEL 1
REMARK VINA RESULT:      -5.8      0.000      0.000
REMARK  17 active torsions:
REMARK  status: ('A' for Active; 'I' for Inactive)
REMARK    1  A    between atoms: C1_1  and  C2_4 
REMARK    2  A    between atoms: C2_4  and  C3_5 
REMARK    3  A    between atoms: C3_5  and  C4_6 
REMARK    4  A    between atoms: C4_6  and  C5_7 
REMARK    5  A    between atoms: C5_7  and  C6_8 
REMARK    6  A    between atoms: C6_8  and  C7_9 
REMARK    7  A    between atoms: C7_9  and  C8_10 
REMARK    8  A    between atoms: C8_10  and  C9_11 
REMARK    9  A    between atoms: C9_11  and  C10_12 
REMARK   10  A    between atoms: C10_12  and  C11_13 
REMARK   11  A    between atoms: C11_13  and  C12_14 
REMARK   12  A    between atoms: C12_14  and  C13_15 
REMARK   13  A    between atoms: C13_15  and  C14_16 
REMARK   14  A    between atoms: C14_16  and  C15_17 
REMARK   15  A    between atoms: C15_17  and  C16_18 
REMARK   16  A    between atoms: C16_18  and  C17_19 
REMARK   17  A    between atoms: C17_19  and  C18_20 
ROOT
ATOM      1  C10 STE d          -3.955  11.867  18.477  0.00  0.00    -0.065 C 
ATOM      2  H17 STE d          -4.893  11.896  19.051  0.00  0.00     0.033 H 
ATOM      3  H18 STE d          -4.183  11.840  17.401  0.00  0.00     0.033 H 
ENDROOT
BRANCH   1   4
ATOM      4  C9  STE d          -3.132  10.649  18.872  0.00  0.00    -0.065 C 
ATOM      5  H15 STE d          -2.507  10.335  18.022  0.00  0.00     0.033 H 
ATOM      6  H16 STE d          -2.487  10.900  19.727  0.00  0.00     0.033 H 
BRANCH   4   7
ATOM      7  C8  STE d          -4.071   9.518  19.259  0.00  0.00    -0.065 C 
ATOM      8  H13 STE d          -4.631   9.794  20.164  0.00  0.00     0.033 H 
ATOM      9  H14 STE d          -4.775   9.322  18.436  0.00  0.00     0.033 H 
BRANCH   7  10
ATOM     10  C7  STE d          -3.244   8.285  19.526  0.00  0.00    -0.065 C 
ATOM     11  H11 STE d          -3.191   7.683  18.607  0.00  0.00     0.033 H 
ATOM     12  H12 STE d          -2.229   8.592  19.822  0.00  0.00     0.033 H 
BRANCH  10  13
ATOM     13  C6  STE d          -3.850   7.441  20.639  0.00  0.00    -0.065 C 
ATOM     14  H9  STE d          -4.188   8.100  21.452  0.00  0.00     0.033 H 
ATOM     15  H10 STE d          -4.709   6.879  20.241  0.00  0.00     0.033 H 
BRANCH  13  16
ATOM     16  C5  STE d          -2.816   6.461  21.182  0.00  0.00    -0.065 C 
ATOM     17  H7  STE d          -2.252   6.952  21.989  0.00  0.00     0.033 H 
ATOM     18  H8  STE d          -3.340   5.580  21.584  0.00  0.00     0.033 H 
BRANCH  16  19
ATOM     19  C4  STE d          -1.839   6.004  20.112  0.00  0.00    -0.065 C 
ATOM     20  H5  STE d          -2.362   5.328  19.419  0.00  0.00     0.033 H 
ATOM     21  H6  STE d          -1.476   6.884  19.561  0.00  0.00     0.033 H 
BRANCH  19  22
ATOM     22  C3  STE d          -0.644   5.269  20.712  0.00  0.00    -0.056 C 
ATOM     23  H3  STE d           0.196   5.973  20.811  0.00  0.00     0.033 H 
ATOM     24  H4  STE d          -0.921   4.888  21.707  0.00  0.00     0.033 H 
BRANCH  22  25
ATOM     25  C2  STE d          -0.207   4.097  19.837  0.00  0.00     0.016 C 
ATOM     26  H1  STE d          -0.825   4.066  18.928  0.00  0.00     0.049 H 
ATOM     27  H2  STE d           0.850   4.220  19.558  0.00  0.00     0.049 H 
BRANCH  25  28
ATOM     28  C1  STE d          -0.380   2.816  20.609  0.00  0.00     0.172 C 
ATOM     29  O1  STE d          -1.548   2.456  20.899  0.00  0.00    -0.648 OA
ATOM     30  O2  STE d           0.640   2.179  20.952  0.00  0.00    -0.648 OA
ENDBRANCH  25  28
ENDBRANCH  22  25
ENDBRANCH  19  22
ENDBRANCH  16  19
ENDBRANCH  13  16
ENDBRANCH  10  13
ENDBRANCH   7  10
ENDBRANCH   4   7
ENDBRANCH   1   4
BRANCH   1  31
ATOM     31  C11 STE d          -3.104  13.078  18.804  0.00  0.00    -0.065 C 
ATOM     32  H19 STE d          -2.096  12.949  18.385  0.00  0.00     0.033 H 
ATOM     33  H20 STE d          -3.035  13.202  19.895  0.00  0.00     0.033 H 
BRANCH  31  34
ATOM     34  C12 STE d          -3.758  14.296  18.192  0.00  0.00    -0.065 C 
ATOM     35  H21 STE d          -4.745  14.457  18.651  0.00  0.00     0.033 H 
ATOM     36  H22 STE d          -3.877  14.149  17.109  0.00  0.00     0.033 H 
BRANCH  34  37
ATOM     37  C13 STE d          -2.878  15.483  18.451  0.00  0.00    -0.065 C 
ATOM     38  H23 STE d          -1.916  15.335  17.937  0.00  0.00     0.033 H 
ATOM     39  H24 STE d          -2.706  15.571  19.534  0.00  0.00     0.033 H 
BRANCH  37  40
ATOM     40  C14 STE d          -3.516  16.765  17.946  0.00  0.00    -0.065 C 
ATOM     41  H25 STE d          -2.883  17.617  18.234  0.00  0.00     0.033 H 
ATOM     42  H26 STE d          -4.510  16.875  18.404  0.00  0.00     0.033 H 
BRANCH  40  43
ATOM     43  C15 STE d          -3.668  16.752  16.426  0.00  0.00    -0.065 C 
ATOM     44  H27 STE d          -4.301  15.906  16.119  0.00  0.00     0.033 H 
ATOM     45  H28 STE d          -2.681  16.662  15.950  0.00  0.00     0.033 H 
BRANCH  43  46
ATOM     46  C16 STE d          -4.320  18.059  16.023  0.00  0.00    -0.065 C 
ATOM     47  H29 STE d          -3.652  18.887  16.304  0.00  0.00     0.033 H 
ATOM     48  H30 STE d          -5.274  18.157  16.563  0.00  0.00     0.033 H 
BRANCH  46  49
ATOM     49  C17 STE d          -4.593  18.141  14.543  0.00  0.00    -0.069 C 
ATOM     50  H31 STE d          -3.635  18.254  14.014  0.00  0.00     0.032 H 
ATOM     51  H32 STE d          -5.226  19.020  14.349  0.00  0.00     0.032 H 
BRANCH  49  52
ATOM     52  C18 STE d          -5.298  16.911  14.012  0.00  0.00    -0.077 C 
ATOM     53  H33 STE d          -5.471  17.026  12.932  0.00  0.00     0.027 H 
ATOM     54  H34 STE d          -6.263  16.790  14.527  0.00  0.00     0.027 H 
ATOM     55  H35 STE d          -4.673  16.024  14.191  0.00  0.00     0.027 H 
ENDBRANCH  49  52
ENDBRANCH  46  49
ENDBRANCH  43  46
ENDBRANCH  40  43
ENDBRANCH  37  40
ENDBRANCH  34  37
ENDBRANCH  31  34
ENDBRANCH   1  31
TORSDOF 17
ENDMDL
