MODEL 1
REMARK VINA RESULT:      -6.8      0.000      0.000
REMARK  17 active torsions:
REMARK  status: ('A' for Active; 'I' for Inactive)
REMARK    1  A    between atoms: C1_1  and  C2_4 
REMARK    2  A    between atoms: C2_4  and  C3_5 
REMARK    3  A    between atoms: C3_5  and  C4_6 
REMARK    4  A    between atoms: C4_6  and  C5_7 
REMARK    5  A    between atoms: C5_7  and  C6_8 
REMARK    6  A    between atoms: C6_8  and  C7_9 
REMARK    7  A    between atoms: C7_9  and  C8_10 
REMARK    8  A    between atoms: C8_10  and  C9_11 
REMARK    9  A    between atoms: C9_11  and  C10_12 
REMARK   10  A    between atoms: C10_12  and  C11_13 
REMARK   11  A    between atoms: C11_13  and  C12_14 
REMARK   12  A    between atoms: C12_14  and  C13_15 
REMARK   13  A    between atoms: C13_15  and  C14_16 
REMARK   14  A    between atoms: C14_16  and  C15_17 
REMARK   15  A    between atoms: C15_17  and  C16_18 
REMARK   16  A    between atoms: C16_18  and  C17_19 
REMARK   17  A    between atoms: C17_19  and  C18_20 
ROOT
ATOM      1  C10 STE d          -3.507  13.047  18.579  0.00  0.00    -0.065 C 
ATOM      2  H17 STE d          -4.430  12.720  19.081  0.00  0.00     0.033 H 
ATOM      3  H18 STE d          -3.234  12.319  17.801  0.00  0.00     0.033 H 
ENDROOT
BRANCH   1   4
ATOM      4  C9  STE d          -2.377  13.186  19.591  0.00  0.00    -0.065 C 
ATOM      5  H15 STE d          -1.743  14.043  19.320  0.00  0.00     0.033 H 
ATOM      6  H16 STE d          -2.799  13.345  20.595  0.00  0.00     0.033 H 
BRANCH   4   7
ATOM      7  C8  STE d          -1.545  11.914  19.584  0.00  0.00    -0.065 C 
ATOM      8  H13 STE d          -0.479  12.167  19.493  0.00  0.00     0.033 H 
ATOM      9  H14 STE d          -1.712  11.355  20.518  0.00  0.00     0.033 H 
BRANCH   7  10
ATOM     10  C7  STE d          -1.973  11.074  18.405  0.00  0.00    -0.065 C 
ATOM     11  H11 STE d          -3.072  11.058  18.357  0.00  0.00     0.033 H 
ATOM     12  H12 STE d          -1.572  11.522  17.484  0.00  0.00     0.033 H 
BRANCH  10  13
ATOM     13  C6  STE d          -1.460   9.645  18.527  0.00  0.00    -0.065 C 
ATOM     14  H9  STE d          -2.041   8.993  17.857  0.00  0.00     0.033 H 
ATOM     15  H10 STE d          -0.399   9.615  18.239  0.00  0.00     0.033 H 
BRANCH  13  16
ATOM     16  C5  STE d          -1.608   9.151  19.961  0.00  0.00    -0.065 C 
ATOM     17  H7  STE d          -0.949   8.282  20.106  0.00  0.00     0.033 H 
ATOM     18  H8  STE d          -1.306   9.958  20.646  0.00  0.00     0.033 H 
BRANCH  16  19
ATOM     19  C4  STE d          -3.035   8.741  20.285  0.00  0.00    -0.065 C 
ATOM     20  H5  STE d          -3.463   9.469  20.989  0.00  0.00     0.033 H 
ATOM     21  H6  STE d          -3.624   8.740  19.356  0.00  0.00     0.033 H 
BRANCH  19  22
ATOM     22  C3  STE d          -3.097   7.351  20.911  0.00  0.00    -0.056 C 
ATOM     23  H3  STE d          -2.372   7.299  21.737  0.00  0.00     0.033 H 
ATOM     24  H4  STE d          -4.111   7.181  21.302  0.00  0.00     0.033 H 
BRANCH  22  25
ATOM     25  C2  STE d          -2.769   6.261  19.894  0.00  0.00     0.016 C 
ATOM     26  H1  STE d          -3.683   5.705  19.642  0.00  0.00     0.049 H 
ATOM     27  H2  STE d          -2.356   6.720  18.983  0.00  0.00     0.049 H 
BRANCH  25  28
ATOM     28  C1  STE d          -1.754   5.322  20.490  0.00  0.00     0.172 C 
ATOM     29  O1  STE d          -0.959   4.741  19.711  0.00  0.00    -0.648 OA
ATOM     30  O2  STE d          -1.760   5.138  21.727  0.00  0.00    -0.648 OA
ENDBRANCH  25  28
ENDBRANCH  22  25
ENDBRANCH  19  22
ENDBRANCH  16  19
ENDBRANCH  13  16
ENDBRANCH  10  13
ENDBRANCH   7  10
ENDBRANCH   4   7
ENDBRANCH   1   4
BRANCH   1  31
ATOM     31  C11 STE d          -3.700  14.421  17.969  0.00  0.00    -0.065 C 
ATOM     32  H19 STE d          -4.662  14.842  18.297  0.00  0.00     0.033 H 
ATOM     33  H20 STE d          -3.688  14.346  16.871  0.00  0.00     0.033 H 
BRANCH  31  34
ATOM     34  C12 STE d          -2.569  15.309  18.433  0.00  0.00    -0.065 C 
ATOM     35  H21 STE d          -1.686  15.150  17.797  0.00  0.00     0.033 H 
ATOM     36  H22 STE d          -2.316  15.074  19.477  0.00  0.00     0.033 H 
BRANCH  34  37
ATOM     37  C13 STE d          -3.019  16.737  18.329  0.00  0.00    -0.065 C 
ATOM     38  H23 STE d          -2.262  17.312  17.775  0.00  0.00     0.033 H 
ATOM     39  H24 STE d          -3.127  17.153  19.342  0.00  0.00     0.033 H 
BRANCH  37  40
ATOM     40  C14 STE d          -4.349  16.846  17.605  0.00  0.00    -0.065 C 
ATOM     41  H25 STE d          -5.161  16.843  18.347  0.00  0.00     0.033 H 
ATOM     42  H26 STE d          -4.463  15.981  16.934  0.00  0.00     0.033 H 
BRANCH  40  43
ATOM     43  C15 STE d          -4.434  18.129  16.780  0.00  0.00    -0.065 C 
ATOM     44  H27 STE d          -3.688  18.855  17.137  0.00  0.00     0.033 H 
ATOM     45  H28 STE d          -5.440  18.565  16.866  0.00  0.00     0.033 H 
BRANCH  43  46
ATOM     46  C16 STE d          -4.150  17.762  15.338  0.00  0.00    -0.065 C 
ATOM     47  H29 STE d          -3.248  17.133  15.305  0.00  0.00     0.033 H 
ATOM     48  H30 STE d          -3.974  18.687  14.768  0.00  0.00     0.033 H 
BRANCH  46  49
ATOM     49  C17 STE d          -5.286  17.009  14.695  0.00  0.00    -0.069 C 
ATOM     50  H31 STE d          -5.617  17.564  13.804  0.00  0.00     0.032 H 
ATOM     51  H32 STE d          -6.116  16.940  15.414  0.00  0.00     0.032 H 
BRANCH  49  52
ATOM     52  C18 STE d          -4.892  15.609  14.274  0.00  0.00    -0.077 C 
ATOM     53  H33 STE d          -5.637  14.891  14.647  0.00  0.00     0.027 H 
ATOM     54  H34 STE d          -3.905  15.365  14.695  0.00  0.00     0.027 H 
ATOM     55  H35 STE d          -4.847  15.555  13.177  0.00  0.00     0.027 H 
ENDBRANCH  49  52
ENDBRANCH  46  49
ENDBRANCH  43  46
ENDBRANCH  40  43
ENDBRANCH  37  40
ENDBRANCH  34  37
ENDBRANCH  31  34
ENDBRANCH   1  31
TORSDOF 17
ENDMDL
MODEL 2
REMARK VINA RESULT:      -6.4      5.019      9.664
REMARK  17 active torsions:
REMARK  status: ('A' for Active; 'I' for Inactive)
REMARK    1  A    between atoms: C1_1  and  C2_4 
REMARK    2  A    between atoms: C2_4  and  C3_5 
REMARK    3  A    between atoms: C3_5  and  C4_6 
REMARK    4  A    between atoms: C4_6  and  C5_7 
REMARK    5  A    between atoms: C5_7  and  C6_8 
REMARK    6  A    between atoms: C6_8  and  C7_9 
REMARK    7  A    between atoms: C7_9  and  C8_10 
REMARK    8  A    between atoms: C8_10  and  C9_11 
REMARK    9  A    between atoms: C9_11  and  C10_12 
REMARK   10  A    between atoms: C10_12  and  C11_13 
REMARK   11  A    between atoms: C11_13  and  C12_14 
REMARK   12  A    between atoms: C12_14  and  C13_15 
REMARK   13  A    between atoms: C13_15  and  C14_16 
REMARK   14  A    between atoms: C14_16  and  C15_17 
REMARK   15  A    between atoms: C15_17  and  C16_18 
REMARK   16  A    between atoms: C16_18  and  C17_19 
REMARK   17  A    between atoms: C17_19  and  C18_20 
ROOT
ATOM      1  C10 STE d          -2.706  10.419  19.309  0.00  0.00    -0.065 C 
ATOM      2  H17 STE d          -3.594   9.895  18.926  0.00  0.00     0.033 H 
ATOM      3  H18 STE d          -2.842  10.637  20.379  0.00  0.00     0.033 H 
ENDROOT
BRANCH   1   4
ATOM      4  C9  STE d          -2.480  11.709  18.533  0.00  0.00    -0.065 C 
ATOM      5  H15 STE d          -1.764  11.528  17.717  0.00  0.00     0.033 H 
ATOM      6  H16 STE d          -3.434  12.059  18.112  0.00  0.00     0.033 H 
BRANCH   4   7
ATOM      7  C8  STE d          -1.922  12.764  19.474  0.00  0.00    -0.065 C 
ATOM      8  H13 STE d          -2.280  12.577  20.497  0.00  0.00     0.033 H 
ATOM      9  H14 STE d          -0.822  12.733  19.458  0.00  0.00     0.033 H 
BRANCH   7  10
ATOM     10  C7  STE d          -2.400  14.117  19.006  0.00  0.00    -0.065 C 
ATOM     11  H11 STE d          -2.568  14.760  19.882  0.00  0.00     0.033 H 
ATOM     12  H12 STE d          -1.628  14.566  18.364  0.00  0.00     0.033 H 
BRANCH  10  13
ATOM     13  C6  STE d          -3.698  14.004  18.217  0.00  0.00    -0.065 C 
ATOM     14  H9  STE d          -3.551  13.315  17.373  0.00  0.00     0.033 H 
ATOM     15  H10 STE d          -4.490  13.615  18.875  0.00  0.00     0.033 H 
BRANCH  13  16
ATOM     16  C5  STE d          -4.112  15.371  17.684  0.00  0.00    -0.065 C 
ATOM     17  H7  STE d          -4.210  15.311  16.591  0.00  0.00     0.033 H 
ATOM     18  H8  STE d          -5.084  15.643  18.125  0.00  0.00     0.033 H 
BRANCH  16  19
ATOM     19  C4  STE d          -3.100  16.452  18.025  0.00  0.00    -0.065 C 
ATOM     20  H5  STE d          -2.699  16.259  19.031  0.00  0.00     0.033 H 
ATOM     21  H6  STE d          -2.281  16.418  17.291  0.00  0.00     0.033 H 
BRANCH  19  22
ATOM     22  C3  STE d          -3.728  17.844  18.001  0.00  0.00    -0.056 C 
ATOM     23  H3  STE d          -4.073  18.097  19.014  0.00  0.00     0.033 H 
ATOM     24  H4  STE d          -2.968  18.572  17.680  0.00  0.00     0.033 H 
BRANCH  22  25
ATOM     25  C2  STE d          -4.914  17.908  17.042  0.00  0.00     0.016 C 
ATOM     26  H1  STE d          -5.303  16.894  16.870  0.00  0.00     0.049 H 
ATOM     27  H2  STE d          -5.705  18.536  17.477  0.00  0.00     0.049 H 
BRANCH  25  28
ATOM     28  C1  STE d          -4.457  18.503  15.736  0.00  0.00     0.172 C 
ATOM     29  O1  STE d          -4.256  17.724  14.773  0.00  0.00    -0.648 OA
ATOM     30  O2  STE d          -4.273  19.738  15.671  0.00  0.00    -0.648 OA
ENDBRANCH  25  28
ENDBRANCH  22  25
ENDBRANCH  19  22
ENDBRANCH  16  19
ENDBRANCH  13  16
ENDBRANCH  10  13
ENDBRANCH   7  10
ENDBRANCH   4   7
ENDBRANCH   1   4
BRANCH   1  31
ATOM     31  C11 STE d          -1.466   9.574  19.098  0.00  0.00    -0.065 C 
ATOM     32  H19 STE d          -0.567  10.181  19.276  0.00  0.00     0.033 H 
ATOM     33  H20 STE d          -1.450   9.186  18.069  0.00  0.00     0.033 H 
BRANCH  31  34
ATOM     34  C12 STE d          -1.506   8.422  20.077  0.00  0.00    -0.065 C 
ATOM     35  H21 STE d          -0.773   8.590  20.879  0.00  0.00     0.033 H 
ATOM     36  H22 STE d          -1.272   7.483  19.555  0.00  0.00     0.033 H 
BRANCH  34  37
ATOM     37  C13 STE d          -2.888   8.348  20.659  0.00  0.00    -0.065 C 
ATOM     38  H23 STE d          -3.615   8.670  19.899  0.00  0.00     0.033 H 
ATOM     39  H24 STE d          -2.945   9.019  21.529  0.00  0.00     0.033 H 
BRANCH  37  40
ATOM     40  C14 STE d          -3.227   6.935  21.100  0.00  0.00    -0.065 C 
ATOM     41  H25 STE d          -3.545   6.955  22.153  0.00  0.00     0.033 H 
ATOM     42  H26 STE d          -2.330   6.304  21.001  0.00  0.00     0.033 H 
BRANCH  40  43
ATOM     43  C15 STE d          -4.350   6.339  20.253  0.00  0.00    -0.065 C 
ATOM     44  H27 STE d          -5.026   5.748  20.888  0.00  0.00     0.033 H 
ATOM     45  H28 STE d          -3.927   5.695  19.469  0.00  0.00     0.033 H 
BRANCH  43  46
ATOM     46  C16 STE d          -5.106   7.492  19.624  0.00  0.00    -0.065 C 
ATOM     47  H29 STE d          -4.459   7.968  18.872  0.00  0.00     0.033 H 
ATOM     48  H30 STE d          -5.353   8.221  20.411  0.00  0.00     0.033 H 
BRANCH  46  49
ATOM     49  C17 STE d          -6.383   7.054  18.954  0.00  0.00    -0.069 C 
ATOM     50  H31 STE d          -6.719   7.855  18.279  0.00  0.00     0.032 H 
ATOM     51  H32 STE d          -7.146   6.881  19.727  0.00  0.00     0.032 H 
BRANCH  49  52
ATOM     52  C18 STE d          -6.211   5.783  18.150  0.00  0.00    -0.077 C 
ATOM     53  H33 STE d          -5.818   6.030  17.153  0.00  0.00     0.027 H 
ATOM     54  H34 STE d          -7.184   5.281  18.045  0.00  0.00     0.027 H 
ATOM     55  H35 STE d          -5.507   5.114  18.666  0.00  0.00     0.027 H 
ENDBRANCH  49  52
ENDBRANCH  46  49
ENDBRANCH  43  46
ENDBRANCH  40  43
ENDBRANCH  37  40
ENDBRANCH  34  37
ENDBRANCH  31  34
ENDBRANCH   1  31
TORSDOF 17
ENDMDL
MODEL 3
REMARK VINA RESULT:      -6.3      4.355      9.891
REMARK  17 active torsions:
REMARK  status: ('A' for Active; 'I' for Inactive)
REMARK    1  A    between atoms: C1_1  and  C2_4 
REMARK    2  A    between atoms: C2_4  and  C3_5 
REMARK    3  A    between atoms: C3_5  and  C4_6 
REMARK    4  A    between atoms: C4_6  and  C5_7 
REMARK    5  A    between atoms: C5_7  and  C6_8 
REMARK    6  A    between atoms: C6_8  and  C7_9 
REMARK    7  A    between atoms: C7_9  and  C8_10 
REMARK    8  A    between atoms: C8_10  and  C9_11 
REMARK    9  A    between atoms: C9_11  and  C10_12 
REMARK   10  A    between atoms: C10_12  and  C11_13 
REMARK   11  A    between atoms: C11_13  and  C12_14 
REMARK   12  A    between atoms: C12_14  and  C13_15 
REMARK   13  A    between atoms: C13_15  and  C14_16 
REMARK   14  A    between atoms: C14_16  and  C15_17 
REMARK   15  A    between atoms: C15_17  and  C16_18 
REMARK   16  A    between atoms: C16_18  and  C17_19 
REMARK   17  A    between atoms: C17_19  and  C18_20 
ROOT
ATOM      1  C10 STE d          -1.625  12.220  20.002  0.00  0.00    -0.065 C 
ATOM      2  H17 STE d          -2.369  11.850  20.723  0.00  0.00     0.033 H 
ATOM      3  H18 STE d          -0.664  12.379  20.514  0.00  0.00     0.033 H 
ENDROOT
BRANCH   1   4
ATOM      4  C9  STE d          -2.105  13.517  19.367  0.00  0.00    -0.065 C 
ATOM      5  H15 STE d          -2.308  14.260  20.154  0.00  0.00     0.033 H 
ATOM      6  H16 STE d          -1.331  13.905  18.688  0.00  0.00     0.033 H 
BRANCH   4   7
ATOM      7  C8  STE d          -3.378  13.246  18.583  0.00  0.00    -0.065 C 
ATOM      8  H13 STE d          -3.158  12.584  17.733  0.00  0.00     0.033 H 
ATOM      9  H14 STE d          -4.123  12.769  19.237  0.00  0.00     0.033 H 
BRANCH   7  10
ATOM     10  C7  STE d          -3.913  14.563  18.077  0.00  0.00    -0.065 C 
ATOM     11  H11 STE d          -4.466  14.390  17.142  0.00  0.00     0.033 H 
ATOM     12  H12 STE d          -4.593  14.987  18.832  0.00  0.00     0.033 H 
BRANCH  10  13
ATOM     13  C6  STE d          -2.787  15.554  17.812  0.00  0.00    -0.065 C 
ATOM     14  H9  STE d          -1.915  15.286  18.426  0.00  0.00     0.033 H 
ATOM     15  H10 STE d          -2.512  15.514  16.747  0.00  0.00     0.033 H 
BRANCH  13  16
ATOM     16  C5  STE d          -3.235  16.969  18.163  0.00  0.00    -0.065 C 
ATOM     17  H7  STE d          -3.269  17.068  19.258  0.00  0.00     0.033 H 
ATOM     18  H8  STE d          -2.505  17.683  17.753  0.00  0.00     0.033 H 
BRANCH  16  19
ATOM     19  C4  STE d          -4.608  17.294  17.599  0.00  0.00    -0.065 C 
ATOM     20  H5  STE d          -5.023  16.390  17.131  0.00  0.00     0.033 H 
ATOM     21  H6  STE d          -5.264  17.616  18.421  0.00  0.00     0.033 H 
BRANCH  19  22
ATOM     22  C3  STE d          -4.542  18.406  16.555  0.00  0.00    -0.056 C 
ATOM     23  H3  STE d          -5.553  18.813  16.403  0.00  0.00     0.033 H 
ATOM     24  H4  STE d          -3.879  19.203  16.923  0.00  0.00     0.033 H 
BRANCH  22  25
ATOM     25  C2  STE d          -4.008  17.893  15.221  0.00  0.00     0.016 C 
ATOM     26  H1  STE d          -3.957  18.722  14.501  0.00  0.00     0.049 H 
ATOM     27  H2  STE d          -3.003  17.469  15.364  0.00  0.00     0.049 H 
BRANCH  25  28
ATOM     28  C1  STE d          -4.935  16.827  14.698  0.00  0.00     0.172 C 
ATOM     29  O1  STE d          -6.123  17.149  14.450  0.00  0.00    -0.648 OA
ATOM     30  O2  STE d          -4.495  15.665  14.558  0.00  0.00    -0.648 OA
ENDBRANCH  25  28
ENDBRANCH  22  25
ENDBRANCH  19  22
ENDBRANCH  16  19
ENDBRANCH  13  16
ENDBRANCH  10  13
ENDBRANCH   7  10
ENDBRANCH   4   7
ENDBRANCH   1   4
BRANCH   1  31
ATOM     31  C11 STE d          -1.457  11.229  18.867  0.00  0.00    -0.065 C 
ATOM     32  H19 STE d          -0.439  11.300  18.458  0.00  0.00     0.033 H 
ATOM     33  H20 STE d          -2.187  11.444  18.073  0.00  0.00     0.033 H 
BRANCH  31  34
ATOM     34  C12 STE d          -1.692   9.839  19.414  0.00  0.00    -0.065 C 
ATOM     35  H21 STE d          -1.611   9.852  20.511  0.00  0.00     0.033 H 
ATOM     36  H22 STE d          -0.946   9.146  18.999  0.00  0.00     0.033 H 
BRANCH  34  37
ATOM     37  C13 STE d          -3.070   9.402  19.011  0.00  0.00    -0.065 C 
ATOM     38  H23 STE d          -3.163   9.473  17.917  0.00  0.00     0.033 H 
ATOM     39  H24 STE d          -3.808  10.065  19.486  0.00  0.00     0.033 H 
BRANCH  37  40
ATOM     40  C14 STE d          -3.343   7.971  19.439  0.00  0.00    -0.065 C 
ATOM     41  H25 STE d          -3.473   7.348  18.542  0.00  0.00     0.033 H 
ATOM     42  H26 STE d          -4.266   7.946  20.038  0.00  0.00     0.033 H 
BRANCH  40  43
ATOM     43  C15 STE d          -2.194   7.408  20.274  0.00  0.00    -0.065 C 
ATOM     44  H27 STE d          -2.003   8.061  21.139  0.00  0.00     0.033 H 
ATOM     45  H28 STE d          -1.284   7.337  19.661  0.00  0.00     0.033 H 
BRANCH  43  46
ATOM     46  C16 STE d          -2.608   6.030  20.747  0.00  0.00    -0.065 C 
ATOM     47  H29 STE d          -3.112   5.510  19.917  0.00  0.00     0.033 H 
ATOM     48  H30 STE d          -3.308   6.142  21.588  0.00  0.00     0.033 H 
BRANCH  46  49
ATOM     49  C17 STE d          -1.439   5.194  21.200  0.00  0.00    -0.069 C 
ATOM     50  H31 STE d          -1.036   5.627  22.128  0.00  0.00     0.032 H 
ATOM     51  H32 STE d          -0.665   5.217  20.419  0.00  0.00     0.032 H 
BRANCH  49  52
ATOM     52  C18 STE d          -1.821   3.753  21.463  0.00  0.00    -0.077 C 
ATOM     53  H33 STE d          -2.038   3.621  22.532  0.00  0.00     0.027 H 
ATOM     54  H34 STE d          -0.988   3.095  21.174  0.00  0.00     0.027 H 
ATOM     55  H35 STE d          -2.713   3.497  20.873  0.00  0.00     0.027 H 
ENDBRANCH  49  52
ENDBRANCH  46  49
ENDBRANCH  43  46
ENDBRANCH  40  43
ENDBRANCH  37  40
ENDBRANCH  34  37
ENDBRANCH  31  34
ENDBRANCH   1  31
TORSDOF 17
ENDMDL
MODEL 4
REMARK VINA RESULT:      -6.2      4.802     10.158
REMARK  17 active torsions:
REMARK  status: ('A' for Active; 'I' for Inactive)
REMARK    1  A    between atoms: C1_1  and  C2_4 
REMARK    2  A    between atoms: C2_4  and  C3_5 
REMARK    3  A    between atoms: C3_5  and  C4_6 
REMARK    4  A    between atoms: C4_6  and  C5_7 
REMARK    5  A    between atoms: C5_7  and  C6_8 
REMARK    6  A    between atoms: C6_8  and  C7_9 
REMARK    7  A    between atoms: C7_9  and  C8_10 
REMARK    8  A    between atoms: C8_10  and  C9_11 
REMARK    9  A    between atoms: C9_11  and  C10_12 
REMARK   10  A    between atoms: C10_12  and  C11_13 
REMARK   11  A    between atoms: C11_13  and  C12_14 
REMARK   12  A    between atoms: C12_14  and  C13_15 
REMARK   13  A    between atoms: C13_15  and  C14_16 
REMARK   14  A    between atoms: C14_16  and  C15_17 
REMARK   15  A    between atoms: C15_17  and  C16_18 
REMARK   16  A    between atoms: C16_18  and  C17_19 
REMARK   17  A    between atoms: C17_19  and  C18_20 
ROOT
ATOM      1  C10 STE d          -1.432  10.066  19.144  0.00  0.00    -0.065 C 
ATOM      2  H17 STE d          -0.364  10.286  19.000  0.00  0.00     0.033 H 
ATOM      3  H18 STE d          -1.918   9.948  18.164  0.00  0.00     0.033 H 
ENDROOT
BRANCH   1   4
ATOM      4  C9  STE d          -2.099  11.184  19.933  0.00  0.00    -0.065 C 
ATOM      5  H15 STE d          -3.077  10.840  20.304  0.00  0.00     0.033 H 
ATOM      6  H16 STE d          -1.462  11.466  20.784  0.00  0.00     0.033 H 
BRANCH   4   7
ATOM      7  C8  STE d          -2.294  12.386  19.024  0.00  0.00    -0.065 C 
ATOM      8  H13 STE d          -2.011  13.305  19.557  0.00  0.00     0.033 H 
ATOM      9  H14 STE d          -1.672  12.276  18.123  0.00  0.00     0.033 H 
BRANCH   7  10
ATOM     10  C7  STE d          -3.750  12.452  18.631  0.00  0.00    -0.065 C 
ATOM     11  H11 STE d          -3.933  11.740  17.813  0.00  0.00     0.033 H 
ATOM     12  H12 STE d          -4.367  12.178  19.500  0.00  0.00     0.033 H 
BRANCH  10  13
ATOM     13  C6  STE d          -4.137  13.850  18.169  0.00  0.00    -0.065 C 
ATOM     14  H9  STE d          -4.409  13.818  17.104  0.00  0.00     0.033 H 
ATOM     15  H10 STE d          -4.998  14.202  18.757  0.00  0.00     0.033 H 
BRANCH  13  16
ATOM     16  C5  STE d          -2.970  14.813  18.361  0.00  0.00    -0.065 C 
ATOM     17  H7  STE d          -3.003  15.209  19.386  0.00  0.00     0.033 H 
ATOM     18  H8  STE d          -2.029  14.262  18.211  0.00  0.00     0.033 H 
BRANCH  16  19
ATOM     19  C4  STE d          -3.018  15.976  17.385  0.00  0.00    -0.065 C 
ATOM     20  H5  STE d          -1.989  16.276  17.138  0.00  0.00     0.033 H 
ATOM     21  H6  STE d          -3.536  15.653  16.470  0.00  0.00     0.033 H 
BRANCH  19  22
ATOM     22  C3  STE d          -3.756  17.177  17.971  0.00  0.00    -0.056 C 
ATOM     23  H3  STE d          -4.037  16.951  19.011  0.00  0.00     0.033 H 
ATOM     24  H4  STE d          -3.087  18.050  17.954  0.00  0.00     0.033 H 
BRANCH  22  25
ATOM     25  C2  STE d          -5.018  17.504  17.177  0.00  0.00     0.016 C 
ATOM     26  H1  STE d          -5.524  16.570  16.889  0.00  0.00     0.049 H 
ATOM     27  H2  STE d          -5.695  18.113  17.794  0.00  0.00     0.049 H 
BRANCH  25  28
ATOM     28  C1  STE d          -4.634  18.271  15.939  0.00  0.00     0.172 C 
ATOM     29  O1  STE d          -4.652  17.664  14.840  0.00  0.00    -0.648 OA
ATOM     30  O2  STE d          -4.290  19.468  16.058  0.00  0.00    -0.648 OA
ENDBRANCH  25  28
ENDBRANCH  22  25
ENDBRANCH  19  22
ENDBRANCH  16  19
ENDBRANCH  13  16
ENDBRANCH  10  13
ENDBRANCH   7  10
ENDBRANCH   4   7
ENDBRANCH   1   4
BRANCH   1  31
ATOM     31  C11 STE d          -1.601   8.805  19.968  0.00  0.00    -0.065 C 
ATOM     32  H19 STE d          -1.363   9.015  21.021  0.00  0.00     0.033 H 
ATOM     33  H20 STE d          -0.929   8.020  19.590  0.00  0.00     0.033 H 
BRANCH  31  34
ATOM     34  C12 STE d          -3.037   8.350  19.849  0.00  0.00    -0.065 C 
ATOM     35  H21 STE d          -3.094   7.466  19.198  0.00  0.00     0.033 H 
ATOM     36  H22 STE d          -3.649   9.159  19.424  0.00  0.00     0.033 H 
BRANCH  34  37
ATOM     37  C13 STE d          -3.536   8.003  21.222  0.00  0.00    -0.065 C 
ATOM     38  H23 STE d          -4.606   8.253  21.287  0.00  0.00     0.033 H 
ATOM     39  H24 STE d          -2.975   8.589  21.965  0.00  0.00     0.033 H 
BRANCH  37  40
ATOM     40  C14 STE d          -3.355   6.525  21.518  0.00  0.00    -0.065 C 
ATOM     41  H25 STE d          -4.091   6.220  22.276  0.00  0.00     0.033 H 
ATOM     42  H26 STE d          -2.339   6.360  21.908  0.00  0.00     0.033 H 
BRANCH  40  43
ATOM     43  C15 STE d          -3.550   5.675  20.264  0.00  0.00    -0.065 C 
ATOM     44  H27 STE d          -3.523   6.314  19.369  0.00  0.00     0.033 H 
ATOM     45  H28 STE d          -4.515   5.151  20.311  0.00  0.00     0.033 H 
BRANCH  43  46
ATOM     46  C16 STE d          -2.418   4.669  20.215  0.00  0.00    -0.065 C 
ATOM     47  H29 STE d          -2.047   4.606  19.181  0.00  0.00     0.033 H 
ATOM     48  H30 STE d          -2.806   3.688  20.527  0.00  0.00     0.033 H 
BRANCH  46  49
ATOM     49  C17 STE d          -1.269   5.042  21.117  0.00  0.00    -0.069 C 
ATOM     50  H31 STE d          -1.009   4.170  21.734  0.00  0.00     0.032 H 
ATOM     51  H32 STE d          -1.585   5.871  21.767  0.00  0.00     0.032 H 
BRANCH  49  52
ATOM     52  C18 STE d          -0.040   5.473  20.345  0.00  0.00    -0.077 C 
ATOM     53  H33 STE d          -0.265   6.390  19.781  0.00  0.00     0.027 H 
ATOM     54  H34 STE d           0.252   4.676  19.645  0.00  0.00     0.027 H 
ATOM     55  H35 STE d           0.784   5.667  21.046  0.00  0.00     0.027 H 
ENDBRANCH  49  52
ENDBRANCH  46  49
ENDBRANCH  43  46
ENDBRANCH  40  43
ENDBRANCH  37  40
ENDBRANCH  34  37
ENDBRANCH  31  34
ENDBRANCH   1  31
TORSDOF 17
ENDMDL
MODEL 5
REMARK VINA RESULT:      -6.2      4.891      9.634
REMARK  17 active torsions:
REMARK  status: ('A' for Active; 'I' for Inactive)
REMARK    1  A    between atoms: C1_1  and  C2_4 
REMARK    2  A    between atoms: C2_4  and  C3_5 
REMARK    3  A    between atoms: C3_5  and  C4_6 
REMARK    4  A    between atoms: C4_6  and  C5_7 
REMARK    5  A    between atoms: C5_7  and  C6_8 
REMARK    6  A    between atoms: C6_8  and  C7_9 
REMARK    7  A    between atoms: C7_9  and  C8_10 
REMARK    8  A    between atoms: C8_10  and  C9_11 
REMARK    9  A    between atoms: C9_11  and  C10_12 
REMARK   10  A    between atoms: C10_12  and  C11_13 
REMARK   11  A    between atoms: C11_13  and  C12_14 
REMARK   12  A    between atoms: C12_14  and  C13_15 
REMARK   13  A    between atoms: C13_15  and  C14_16 
REMARK   14  A    between atoms: C14_16  and  C15_17 
REMARK   15  A    between atoms: C15_17  and  C16_18 
REMARK   16  A    between atoms: C16_18  and  C17_19 
REMARK   17  A    between atoms: C17_19  and  C18_20 
ROOT
ATOM      1  C10 STE d          -1.573   9.284  19.437  0.00  0.00    -0.065 C 
ATOM      2  H17 STE d          -0.912   9.165  20.309  0.00  0.00     0.033 H 
ATOM      3  H18 STE d          -1.324   8.524  18.681  0.00  0.00     0.033 H 
ENDROOT
BRANCH   1   4
ATOM      4  C9  STE d          -1.425  10.680  18.849  0.00  0.00    -0.065 C 
ATOM      5  H15 STE d          -0.626  10.678  18.092  0.00  0.00     0.033 H 
ATOM      6  H16 STE d          -2.372  10.986  18.381  0.00  0.00     0.033 H 
BRANCH   4   7
ATOM      7  C8  STE d          -1.070  11.653  19.961  0.00  0.00    -0.065 C 
ATOM      8  H13 STE d          -0.946  11.107  20.908  0.00  0.00     0.033 H 
ATOM      9  H14 STE d          -0.134  12.176  19.714  0.00  0.00     0.033 H 
BRANCH   7  10
ATOM     10  C7  STE d          -2.193  12.652  20.093  0.00  0.00    -0.065 C 
ATOM     11  H11 STE d          -3.030  12.182  20.630  0.00  0.00     0.033 H 
ATOM     12  H12 STE d          -1.833  13.522  20.663  0.00  0.00     0.033 H 
BRANCH  10  13
ATOM     13  C6  STE d          -2.681  13.121  18.728  0.00  0.00    -0.065 C 
ATOM     14  H9  STE d          -2.135  12.580  17.941  0.00  0.00     0.033 H 
ATOM     15  H10 STE d          -3.757  12.913  18.637  0.00  0.00     0.033 H 
BRANCH  13  16
ATOM     16  C5  STE d          -2.441  14.618  18.567  0.00  0.00    -0.065 C 
ATOM     17  H7  STE d          -2.122  15.032  19.534  0.00  0.00     0.033 H 
ATOM     18  H8  STE d          -1.646  14.771  17.822  0.00  0.00     0.033 H 
BRANCH  16  19
ATOM     19  C4  STE d          -3.690  15.353  18.109  0.00  0.00    -0.065 C 
ATOM     20  H5  STE d          -3.981  14.977  17.117  0.00  0.00     0.033 H 
ATOM     21  H6  STE d          -4.501  15.161  18.827  0.00  0.00     0.033 H 
BRANCH  19  22
ATOM     22  C3  STE d          -3.458  16.860  18.017  0.00  0.00    -0.056 C 
ATOM     23  H3  STE d          -3.192  17.241  19.014  0.00  0.00     0.033 H 
ATOM     24  H4  STE d          -2.631  17.052  17.318  0.00  0.00     0.033 H 
BRANCH  22  25
ATOM     25  C2  STE d          -4.705  17.590  17.523  0.00  0.00     0.016 C 
ATOM     26  H1  STE d          -5.534  16.875  17.420  0.00  0.00     0.049 H 
ATOM     27  H2  STE d          -4.983  18.372  18.245  0.00  0.00     0.049 H 
BRANCH  25  28
ATOM     28  C1  STE d          -4.409  18.217  16.186  0.00  0.00     0.172 C 
ATOM     29  O1  STE d          -4.369  19.471  16.120  0.00  0.00    -0.648 OA
ATOM     30  O2  STE d          -4.241  17.471  15.197  0.00  0.00    -0.648 OA
ENDBRANCH  25  28
ENDBRANCH  22  25
ENDBRANCH  19  22
ENDBRANCH  16  19
ENDBRANCH  13  16
ENDBRANCH  10  13
ENDBRANCH   7  10
ENDBRANCH   4   7
ENDBRANCH   1   4
BRANCH   1  31
ATOM     31  C11 STE d          -3.023   9.152  19.857  0.00  0.00    -0.065 C 
ATOM     32  H19 STE d          -3.649   8.947  18.976  0.00  0.00     0.033 H 
ATOM     33  H20 STE d          -3.359  10.083  20.336  0.00  0.00     0.033 H 
BRANCH  31  34
ATOM     34  C12 STE d          -3.130   8.006  20.837  0.00  0.00    -0.065 C 
ATOM     35  H21 STE d          -4.170   7.650  20.880  0.00  0.00     0.033 H 
ATOM     36  H22 STE d          -2.815   8.340  21.835  0.00  0.00     0.033 H 
BRANCH  34  37
ATOM     37  C13 STE d          -2.234   6.898  20.365  0.00  0.00    -0.065 C 
ATOM     38  H23 STE d          -1.367   6.828  21.038  0.00  0.00     0.033 H 
ATOM     39  H24 STE d          -1.889   7.127  19.345  0.00  0.00     0.033 H 
BRANCH  37  40
ATOM     40  C14 STE d          -2.961   5.565  20.354  0.00  0.00    -0.065 C 
ATOM     41  H25 STE d          -2.813   5.070  21.324  0.00  0.00     0.033 H 
ATOM     42  H26 STE d          -2.543   4.936  19.554  0.00  0.00     0.033 H 
BRANCH  40  43
ATOM     43  C15 STE d          -4.458   5.747  20.111  0.00  0.00    -0.065 C 
ATOM     44  H27 STE d          -4.811   6.662  20.611  0.00  0.00     0.033 H 
ATOM     45  H28 STE d          -5.010   4.880  20.502  0.00  0.00     0.033 H 
BRANCH  43  46
ATOM     46  C16 STE d          -4.666   5.861  18.615  0.00  0.00    -0.065 C 
ATOM     47  H29 STE d          -4.529   4.866  18.164  0.00  0.00     0.033 H 
ATOM     48  H30 STE d          -3.916   6.555  18.208  0.00  0.00     0.033 H 
BRANCH  46  49
ATOM     49  C17 STE d          -6.039   6.368  18.255  0.00  0.00    -0.069 C 
ATOM     50  H31 STE d          -6.787   5.648  18.619  0.00  0.00     0.032 H 
ATOM     51  H32 STE d          -6.109   6.448  17.161  0.00  0.00     0.032 H 
BRANCH  49  52
ATOM     52  C18 STE d          -6.335   7.724  18.860  0.00  0.00    -0.077 C 
ATOM     53  H33 STE d          -7.089   7.614  19.653  0.00  0.00     0.027 H 
ATOM     54  H34 STE d          -6.720   8.397  18.080  0.00  0.00     0.027 H 
ATOM     55  H35 STE d          -5.413   8.144  19.287  0.00  0.00     0.027 H 
ENDBRANCH  49  52
ENDBRANCH  46  49
ENDBRANCH  43  46
ENDBRANCH  40  43
ENDBRANCH  37  40
ENDBRANCH  34  37
ENDBRANCH  31  34
ENDBRANCH   1  31
TORSDOF 17
ENDMDL
MODEL 6
REMARK VINA RESULT:      -6.1      4.373      9.264
REMARK  17 active torsions:
REMARK  status: ('A' for Active; 'I' for Inactive)
REMARK    1  A    between atoms: C1_1  and  C2_4 
REMARK    2  A    between atoms: C2_4  and  C3_5 
REMARK    3  A    between atoms: C3_5  and  C4_6 
REMARK    4  A    between atoms: C4_6  and  C5_7 
REMARK    5  A    between atoms: C5_7  and  C6_8 
REMARK    6  A    between atoms: C6_8  and  C7_9 
REMARK    7  A    between atoms: C7_9  and  C8_10 
REMARK    8  A    between atoms: C8_10  and  C9_11 
REMARK    9  A    between atoms: C9_11  and  C10_12 
REMARK   10  A    between atoms: C10_12  and  C11_13 
REMARK   11  A    between atoms: C11_13  and  C12_14 
REMARK   12  A    between atoms: C12_14  and  C13_15 
REMARK   13  A    between atoms: C13_15  and  C14_16 
REMARK   14  A    between atoms: C14_16  and  C15_17 
REMARK   15  A    between atoms: C15_17  and  C16_18 
REMARK   16  A    between atoms: C16_18  and  C17_19 
REMARK   17  A    between atoms: C17_19  and  C18_20 
ROOT
ATOM      1  C10 STE d          -1.795  10.060  18.936  0.00  0.00    -0.065 C 
ATOM      2  H17 STE d          -1.316   9.841  17.970  0.00  0.00     0.033 H 
ATOM      3  H18 STE d          -2.874  10.212  18.785  0.00  0.00     0.033 H 
ENDROOT
BRANCH   1   4
ATOM      4  C9  STE d          -1.172  11.298  19.565  0.00  0.00    -0.065 C 
ATOM      5  H15 STE d          -0.631  11.014  20.481  0.00  0.00     0.033 H 
ATOM      6  H16 STE d          -0.470  11.760  18.855  0.00  0.00     0.033 H 
BRANCH   4   7
ATOM      7  C8  STE d          -2.272  12.288  19.910  0.00  0.00    -0.065 C 
ATOM      8  H13 STE d          -2.746  12.001  20.859  0.00  0.00     0.033 H 
ATOM      9  H14 STE d          -1.847  13.299  20.003  0.00  0.00     0.033 H 
BRANCH   7  10
ATOM     10  C7  STE d          -3.294  12.265  18.801  0.00  0.00    -0.065 C 
ATOM     11  H11 STE d          -2.889  11.695  17.951  0.00  0.00     0.033 H 
ATOM     12  H12 STE d          -4.209  11.776  19.168  0.00  0.00     0.033 H 
BRANCH  10  13
ATOM     13  C6  STE d          -3.639  13.673  18.334  0.00  0.00    -0.065 C 
ATOM     14  H9  STE d          -3.907  13.647  17.267  0.00  0.00     0.033 H 
ATOM     15  H10 STE d          -4.492  14.051  18.917  0.00  0.00     0.033 H 
BRANCH  13  16
ATOM     16  C5  STE d          -2.445  14.602  18.530  0.00  0.00    -0.065 C 
ATOM     17  H7  STE d          -1.971  14.371  19.495  0.00  0.00     0.033 H 
ATOM     18  H8  STE d          -1.725  14.429  17.716  0.00  0.00     0.033 H 
BRANCH  16  19
ATOM     19  C4  STE d          -2.849  16.067  18.522  0.00  0.00    -0.065 C 
ATOM     20  H5  STE d          -3.186  16.348  19.531  0.00  0.00     0.033 H 
ATOM     21  H6  STE d          -1.977  16.676  18.243  0.00  0.00     0.033 H 
BRANCH  19  22
ATOM     22  C3  STE d          -3.978  16.338  17.531  0.00  0.00    -0.056 C 
ATOM     23  H3  STE d          -4.621  15.447  17.469  0.00  0.00     0.033 H 
ATOM     24  H4  STE d          -4.570  17.193  17.890  0.00  0.00     0.033 H 
BRANCH  22  25
ATOM     25  C2  STE d          -3.438  16.658  16.139  0.00  0.00     0.016 C 
ATOM     26  H1  STE d          -3.201  17.729  16.074  0.00  0.00     0.049 H 
ATOM     27  H2  STE d          -2.528  16.069  15.953  0.00  0.00     0.049 H 
BRANCH  25  28
ATOM     28  C1  STE d          -4.485  16.308  15.115  0.00  0.00     0.172 C 
ATOM     29  O1  STE d          -5.407  17.135  14.909  0.00  0.00    -0.648 OA
ATOM     30  O2  STE d          -4.410  15.204  14.533  0.00  0.00    -0.648 OA
ENDBRANCH  25  28
ENDBRANCH  22  25
ENDBRANCH  19  22
ENDBRANCH  16  19
ENDBRANCH  13  16
ENDBRANCH  10  13
ENDBRANCH   7  10
ENDBRANCH   4   7
ENDBRANCH   1   4
BRANCH   1  31
ATOM     31  C11 STE d          -1.556   8.923  19.909  0.00  0.00    -0.065 C 
ATOM     32  H19 STE d          -1.027   9.298  20.797  0.00  0.00     0.033 H 
ATOM     33  H20 STE d          -0.953   8.140  19.426  0.00  0.00     0.033 H 
BRANCH  31  34
ATOM     34  C12 STE d          -2.898   8.357  20.315  0.00  0.00    -0.065 C 
ATOM     35  H21 STE d          -3.326   8.962  21.128  0.00  0.00     0.033 H 
ATOM     36  H22 STE d          -2.776   7.319  20.656  0.00  0.00     0.033 H 
BRANCH  34  37
ATOM     37  C13 STE d          -3.805   8.397  19.120  0.00  0.00    -0.065 C 
ATOM     38  H23 STE d          -3.355   7.806  18.309  0.00  0.00     0.033 H 
ATOM     39  H24 STE d          -3.922   9.441  18.794  0.00  0.00     0.033 H 
BRANCH  37  40
ATOM     40  C14 STE d          -5.174   7.824  19.446  0.00  0.00    -0.065 C 
ATOM     41  H25 STE d          -5.918   8.270  18.771  0.00  0.00     0.033 H 
ATOM     42  H26 STE d          -5.428   8.075  20.488  0.00  0.00     0.033 H 
BRANCH  40  43
ATOM     43  C15 STE d          -5.199   6.306  19.281  0.00  0.00    -0.065 C 
ATOM     44  H27 STE d          -6.237   5.954  19.194  0.00  0.00     0.033 H 
ATOM     45  H28 STE d          -4.720   5.826  20.146  0.00  0.00     0.033 H 
BRANCH  43  46
ATOM     46  C16 STE d          -4.433   5.974  18.016  0.00  0.00    -0.065 C 
ATOM     47  H29 STE d          -3.775   6.820  17.771  0.00  0.00     0.033 H 
ATOM     48  H30 STE d          -5.154   5.820  17.199  0.00  0.00     0.033 H 
BRANCH  46  49
ATOM     49  C17 STE d          -3.591   4.732  18.155  0.00  0.00    -0.069 C 
ATOM     50  H31 STE d          -2.861   4.708  17.331  0.00  0.00     0.032 H 
ATOM     51  H32 STE d          -4.246   3.851  18.090  0.00  0.00     0.032 H 
BRANCH  49  52
ATOM     52  C18 STE d          -2.840   4.682  19.468  0.00  0.00    -0.077 C 
ATOM     53  H33 STE d          -3.549   4.498  20.289  0.00  0.00     0.027 H 
ATOM     54  H34 STE d          -2.328   5.641  19.635  0.00  0.00     0.027 H 
ATOM     55  H35 STE d          -2.098   3.870  19.437  0.00  0.00     0.027 H 
ENDBRANCH  49  52
ENDBRANCH  46  49
ENDBRANCH  43  46
ENDBRANCH  40  43
ENDBRANCH  37  40
ENDBRANCH  34  37
ENDBRANCH  31  34
ENDBRANCH   1  31
TORSDOF 17
ENDMDL
MODEL 7
REMARK VINA RESULT:      -5.8      4.780      9.796
REMARK  17 active torsions:
REMARK  status: ('A' for Active; 'I' for Inactive)
REMARK    1  A    between atoms: C1_1  and  C2_4 
REMARK    2  A    between atoms: C2_4  and  C3_5 
REMARK    3  A    between atoms: C3_5  and  C4_6 
REMARK    4  A    between atoms: C4_6  and  C5_7 
REMARK    5  A    between atoms: C5_7  and  C6_8 
REMARK    6  A    between atoms: C6_8  and  C7_9 
REMARK    7  A    between atoms: C7_9  and  C8_10 
REMARK    8  A    between atoms: C8_10  and  C9_11 
REMARK    9  A    between atoms: C9_11  and  C10_12 
REMARK   10  A    between atoms: C10_12  and  C11_13 
REMARK   11  A    between atoms: C11_13  and  C12_14 
REMARK   12  A    between atoms: C12_14  and  C13_15 
REMARK   13  A    between atoms: C13_15  and  C14_16 
REMARK   14  A    between atoms: C14_16  and  C15_17 
REMARK   15  A    between atoms: C15_17  and  C16_18 
REMARK   16  A    between atoms: C16_18  and  C17_19 
REMARK   17  A    between atoms: C17_19  and  C18_20 
ROOT
ATOM      1  C10 STE d          -1.457  11.007  19.478  0.00  0.00    -0.065 C 
ATOM      2  H17 STE d          -1.823  11.554  20.360  0.00  0.00     0.033 H 
ATOM      3  H18 STE d          -0.433  11.333  19.243  0.00  0.00     0.033 H 
ENDROOT
BRANCH   1   4
ATOM      4  C9  STE d          -2.375  11.250  18.288  0.00  0.00    -0.065 C 
ATOM      5  H15 STE d          -1.770  11.450  17.391  0.00  0.00     0.033 H 
ATOM      6  H16 STE d          -3.001  10.362  18.117  0.00  0.00     0.033 H 
BRANCH   4   7
ATOM      7  C8  STE d          -3.262  12.449  18.582  0.00  0.00    -0.065 C 
ATOM      8  H13 STE d          -3.641  12.870  17.639  0.00  0.00     0.033 H 
ATOM      9  H14 STE d          -4.109  12.140  19.213  0.00  0.00     0.033 H 
BRANCH   7  10
ATOM     10  C7  STE d          -2.437  13.483  19.307  0.00  0.00    -0.065 C 
ATOM     11  H11 STE d          -3.044  13.928  20.109  0.00  0.00     0.033 H 
ATOM     12  H12 STE d          -1.554  12.993  19.744  0.00  0.00     0.033 H 
BRANCH  10  13
ATOM     13  C6  STE d          -1.976  14.586  18.364  0.00  0.00    -0.065 C 
ATOM     14  H9  STE d          -0.911  14.797  18.544  0.00  0.00     0.033 H 
ATOM     15  H10 STE d          -2.113  14.255  17.323  0.00  0.00     0.033 H 
BRANCH  13  16
ATOM     16  C5  STE d          -2.787  15.856  18.599  0.00  0.00    -0.065 C 
ATOM     17  H7  STE d          -2.914  16.000  19.682  0.00  0.00     0.033 H 
ATOM     18  H8  STE d          -2.237  16.711  18.177  0.00  0.00     0.033 H 
BRANCH  16  19
ATOM     19  C4  STE d          -4.160  15.789  17.951  0.00  0.00    -0.065 C 
ATOM     20  H5  STE d          -4.725  14.960  18.401  0.00  0.00     0.033 H 
ATOM     21  H6  STE d          -4.688  16.736  18.136  0.00  0.00     0.033 H 
BRANCH  19  22
ATOM     22  C3  STE d          -4.065  15.563  16.444  0.00  0.00    -0.056 C 
ATOM     23  H3  STE d          -3.459  14.664  16.256  0.00  0.00     0.033 H 
ATOM     24  H4  STE d          -5.077  15.414  16.041  0.00  0.00     0.033 H 
BRANCH  22  25
ATOM     25  C2  STE d          -3.420  16.752  15.738  0.00  0.00     0.016 C 
ATOM     26  H1  STE d          -2.681  17.220  16.404  0.00  0.00     0.049 H 
ATOM     27  H2  STE d          -2.919  16.408  14.820  0.00  0.00     0.049 H 
BRANCH  25  28
ATOM     28  C1  STE d          -4.489  17.753  15.386  0.00  0.00     0.172 C 
ATOM     29  O1  STE d          -4.528  18.826  16.037  0.00  0.00    -0.648 OA
ATOM     30  O2  STE d          -5.305  17.467  14.483  0.00  0.00    -0.648 OA
ENDBRANCH  25  28
ENDBRANCH  22  25
ENDBRANCH  19  22
ENDBRANCH  16  19
ENDBRANCH  13  16
ENDBRANCH  10  13
ENDBRANCH   7  10
ENDBRANCH   4   7
ENDBRANCH   1   4
BRANCH   1  31
ATOM     31  C11 STE d          -1.486   9.514  19.738  0.00  0.00    -0.065 C 
ATOM     32  H19 STE d          -0.958   9.289  20.676  0.00  0.00     0.033 H 
ATOM     33  H20 STE d          -1.000   8.982  18.907  0.00  0.00     0.033 H 
BRANCH  31  34
ATOM     34  C12 STE d          -2.930   9.080  19.848  0.00  0.00    -0.065 C 
ATOM     35  H21 STE d          -3.322   8.838  18.849  0.00  0.00     0.033 H 
ATOM     36  H22 STE d          -3.529   9.889  20.290  0.00  0.00     0.033 H 
BRANCH  34  37
ATOM     37  C13 STE d          -2.990   7.864  20.726  0.00  0.00    -0.065 C 
ATOM     38  H23 STE d          -3.949   7.351  20.561  0.00  0.00     0.033 H 
ATOM     39  H24 STE d          -2.918   8.179  21.777  0.00  0.00     0.033 H 
BRANCH  37  40
ATOM     40  C14 STE d          -1.856   6.903  20.417  0.00  0.00    -0.065 C 
ATOM     41  H25 STE d          -0.948   7.243  20.936  0.00  0.00     0.033 H 
ATOM     42  H26 STE d          -1.677   6.897  19.332  0.00  0.00     0.033 H 
BRANCH  40  43
ATOM     43  C15 STE d          -2.187   5.483  20.874  0.00  0.00    -0.065 C 
ATOM     44  H27 STE d          -2.284   5.453  21.969  0.00  0.00     0.033 H 
ATOM     45  H28 STE d          -1.392   4.792  20.557  0.00  0.00     0.033 H 
BRANCH  43  46
ATOM     46  C16 STE d          -3.500   5.092  20.227  0.00  0.00    -0.065 C 
ATOM     47  H29 STE d          -4.222   5.909  20.374  0.00  0.00     0.033 H 
ATOM     48  H30 STE d          -3.874   4.179  20.716  0.00  0.00     0.033 H 
BRANCH  46  49
ATOM     49  C17 STE d          -3.365   4.827  18.750  0.00  0.00    -0.069 C 
ATOM     50  H31 STE d          -3.568   3.762  18.563  0.00  0.00     0.032 H 
ATOM     51  H32 STE d          -2.337   5.064  18.441  0.00  0.00     0.032 H 
BRANCH  49  52
ATOM     52  C18 STE d          -4.323   5.655  17.921  0.00  0.00    -0.077 C 
ATOM     53  H33 STE d          -4.917   6.301  18.584  0.00  0.00     0.027 H 
ATOM     54  H34 STE d          -4.996   4.988  17.362  0.00  0.00     0.027 H 
ATOM     55  H35 STE d          -3.754   6.278  17.215  0.00  0.00     0.027 H 
ENDBRANCH  49  52
ENDBRANCH  46  49
ENDBRANCH  43  46
ENDBRANCH  40  43
ENDBRANCH  37  40
ENDBRANCH  34  37
ENDBRANCH  31  34
ENDBRANCH   1  31
TORSDOF 17
ENDMDL
MODEL 8
REMARK VINA RESULT:      -5.6      4.889     10.753
REMARK  17 active torsions:
REMARK  status: ('A' for Active; 'I' for Inactive)
REMARK    1  A    between atoms: C1_1  and  C2_4 
REMARK    2  A    between atoms: C2_4  and  C3_5 
REMARK    3  A    between atoms: C3_5  and  C4_6 
REMARK    4  A    between atoms: C4_6  and  C5_7 
REMARK    5  A    between atoms: C5_7  and  C6_8 
REMARK    6  A    between atoms: C6_8  and  C7_9 
REMARK    7  A    between atoms: C7_9  and  C8_10 
REMARK    8  A    between atoms: C8_10  and  C9_11 
REMARK    9  A    between atoms: C9_11  and  C10_12 
REMARK   10  A    between atoms: C10_12  and  C11_13 
REMARK   11  A    between atoms: C11_13  and  C12_14 
REMARK   12  A    between atoms: C12_14  and  C13_15 
REMARK   13  A    between atoms: C13_15  and  C14_16 
REMARK   14  A    between atoms: C14_16  and  C15_17 
REMARK   15  A    between atoms: C15_17  and  C16_18 
REMARK   16  A    between atoms: C16_18  and  C17_19 
REMARK   17  A    between atoms: C17_19  and  C18_20 
ROOT
ATOM      1  C10 STE d          -2.689   9.298  18.905  0.00  0.00    -0.065 C 
ATOM      2  H17 STE d          -2.504   8.941  17.881  0.00  0.00     0.033 H 
ATOM      3  H18 STE d          -3.649   8.898  19.265  0.00  0.00     0.033 H 
ENDROOT
BRANCH   1   4
ATOM      4  C9  STE d          -2.706  10.820  18.938  0.00  0.00    -0.065 C 
ATOM      5  H15 STE d          -2.625  11.211  17.913  0.00  0.00     0.033 H 
ATOM      6  H16 STE d          -3.646  11.168  19.390  0.00  0.00     0.033 H 
BRANCH   4   7
ATOM      7  C8  STE d          -1.530  11.312  19.766  0.00  0.00    -0.065 C 
ATOM      8  H13 STE d          -1.635  10.965  20.804  0.00  0.00     0.033 H 
ATOM      9  H14 STE d          -0.590  10.927  19.343  0.00  0.00     0.033 H 
BRANCH   7  10
ATOM     10  C7  STE d          -1.525  12.821  19.730  0.00  0.00    -0.065 C 
ATOM     11  H11 STE d          -1.499  13.203  20.761  0.00  0.00     0.033 H 
ATOM     12  H12 STE d          -0.630  13.162  19.190  0.00  0.00     0.033 H 
BRANCH  10  13
ATOM     13  C6  STE d          -2.764  13.364  19.031  0.00  0.00    -0.065 C 
ATOM     14  H9  STE d          -2.979  12.750  18.144  0.00  0.00     0.033 H 
ATOM     15  H10 STE d          -3.619  13.321  19.723  0.00  0.00     0.033 H 
BRANCH  13  16
ATOM     16  C5  STE d          -2.538  14.808  18.600  0.00  0.00    -0.065 C 
ATOM     17  H7  STE d          -2.304  15.411  19.490  0.00  0.00     0.033 H 
ATOM     18  H8  STE d          -1.688  14.840  17.902  0.00  0.00     0.033 H 
BRANCH  16  19
ATOM     19  C4  STE d          -3.757  15.402  17.915  0.00  0.00    -0.065 C 
ATOM     20  H5  STE d          -3.763  15.085  16.861  0.00  0.00     0.033 H 
ATOM     21  H6  STE d          -4.664  15.029  18.415  0.00  0.00     0.033 H 
BRANCH  19  22
ATOM     22  C3  STE d          -3.753  16.927  17.972  0.00  0.00    -0.056 C 
ATOM     23  H3  STE d          -3.766  17.245  19.025  0.00  0.00     0.033 H 
ATOM     24  H4  STE d          -2.838  17.300  17.488  0.00  0.00     0.033 H 
BRANCH  22  25
ATOM     25  C2  STE d          -4.967  17.519  17.260  0.00  0.00     0.016 C 
ATOM     26  H1  STE d          -5.663  16.713  16.989  0.00  0.00     0.049 H 
ATOM     27  H2  STE d          -5.474  18.232  17.928  0.00  0.00     0.049 H 
BRANCH  25  28
ATOM     28  C1  STE d          -4.507  18.231  16.015  0.00  0.00     0.172 C 
ATOM     29  O1  STE d          -4.343  19.474  16.075  0.00  0.00    -0.648 OA
ATOM     30  O2  STE d          -4.335  17.564  14.972  0.00  0.00    -0.648 OA
ENDBRANCH  25  28
ENDBRANCH  22  25
ENDBRANCH  19  22
ENDBRANCH  16  19
ENDBRANCH  13  16
ENDBRANCH  10  13
ENDBRANCH   7  10
ENDBRANCH   4   7
ENDBRANCH   1   4
BRANCH   1  31
ATOM     31  C11 STE d          -1.563   8.865  19.822  0.00  0.00    -0.065 C 
ATOM     32  H19 STE d          -1.533   9.516  20.708  0.00  0.00     0.033 H 
ATOM     33  H20 STE d          -0.603   8.928  19.289  0.00  0.00     0.033 H 
BRANCH  31  34
ATOM     34  C12 STE d          -1.819   7.437  20.246  0.00  0.00    -0.065 C 
ATOM     35  H21 STE d          -2.561   6.978  19.577  0.00  0.00     0.033 H 
ATOM     36  H22 STE d          -2.196   7.418  21.279  0.00  0.00     0.033 H 
BRANCH  34  37
ATOM     37  C13 STE d          -0.524   6.683  20.163  0.00  0.00    -0.065 C 
ATOM     38  H23 STE d           0.293   7.334  20.509  0.00  0.00     0.033 H 
ATOM     39  H24 STE d          -0.346   6.392  19.117  0.00  0.00     0.033 H 
BRANCH  37  40
ATOM     40  C14 STE d          -0.557   5.433  21.025  0.00  0.00    -0.065 C 
ATOM     41  H25 STE d          -1.539   5.361  21.515  0.00  0.00     0.033 H 
ATOM     42  H26 STE d           0.230   5.504  21.791  0.00  0.00     0.033 H 
BRANCH  40  43
ATOM     43  C15 STE d          -0.325   4.173  20.191  0.00  0.00    -0.065 C 
ATOM     44  H27 STE d           0.320   3.472  20.741  0.00  0.00     0.033 H 
ATOM     45  H28 STE d           0.151   4.437  19.236  0.00  0.00     0.033 H 
BRANCH  43  46
ATOM     46  C16 STE d          -1.678   3.540  19.937  0.00  0.00    -0.065 C 
ATOM     47  H29 STE d          -1.523   2.524  19.545  0.00  0.00     0.033 H 
ATOM     48  H30 STE d          -2.214   4.144  19.190  0.00  0.00     0.033 H 
BRANCH  46  49
ATOM     49  C17 STE d          -2.522   3.452  21.182  0.00  0.00    -0.069 C 
ATOM     50  H31 STE d          -3.566   3.268  20.887  0.00  0.00     0.032 H 
ATOM     51  H32 STE d          -2.457   4.409  21.721  0.00  0.00     0.032 H 
BRANCH  49  52
ATOM     52  C18 STE d          -2.078   2.342  22.110  0.00  0.00    -0.077 C 
ATOM     53  H33 STE d          -1.790   1.462  21.516  0.00  0.00     0.027 H 
ATOM     54  H34 STE d          -2.905   2.074  22.784  0.00  0.00     0.027 H 
ATOM     55  H35 STE d          -1.216   2.682  22.702  0.00  0.00     0.027 H 
ENDBRANCH  49  52
ENDBRANCH  46  49
ENDBRANCH  43  46
ENDBRANCH  40  43
ENDBRANCH  37  40
ENDBRANCH  34  37
ENDBRANCH  31  34
ENDBRANCH   1  31
TORSDOF 17
ENDMDL
MODEL 9
REMARK VINA RESULT:      -5.5      1.665      2.088
REMARK  17 active torsions:
REMARK  status: ('A' for Active; 'I' for Inactive)
REMARK    1  A    between atoms: C1_1  and  C2_4 
REMARK    2  A    between atoms: C2_4  and  C3_5 
REMARK    3  A    between atoms: C3_5  and  C4_6 
REMARK    4  A    between atoms: C4_6  and  C5_7 
REMARK    5  A    between atoms: C5_7  and  C6_8 
REMARK    6  A    between atoms: C6_8  and  C7_9 
REMARK    7  A    between atoms: C7_9  and  C8_10 
REMARK    8  A    between atoms: C8_10  and  C9_11 
REMARK    9  A    between atoms: C9_11  and  C10_12 
REMARK   10  A    between atoms: C10_12  and  C11_13 
REMARK   11  A    between atoms: C11_13  and  C12_14 
REMARK   12  A    between atoms: C12_14  and  C13_15 
REMARK   13  A    between atoms: C13_15  and  C14_16 
REMARK   14  A    between atoms: C14_16  and  C15_17 
REMARK   15  A    between atoms: C15_17  and  C16_18 
REMARK   16  A    between atoms: C16_18  and  C17_19 
REMARK   17  A    between atoms: C17_19  and  C18_20 
ROOT
ATOM      1  C10 STE d          -1.839  12.704  18.933  0.00  0.00    -0.065 C 
ATOM      2  H17 STE d          -1.885  11.975  18.110  0.00  0.00     0.033 H 
ATOM      3  H18 STE d          -0.899  13.272  18.868  0.00  0.00     0.033 H 
ENDROOT
BRANCH   1   4
ATOM      4  C9  STE d          -1.935  11.993  20.275  0.00  0.00    -0.065 C 
ATOM      5  H15 STE d          -1.624  12.678  21.078  0.00  0.00     0.033 H 
ATOM      6  H16 STE d          -2.972  11.671  20.449  0.00  0.00     0.033 H 
BRANCH   4   7
ATOM      7  C8  STE d          -1.021  10.778  20.260  0.00  0.00    -0.065 C 
ATOM      8  H13 STE d          -0.001  11.084  19.985  0.00  0.00     0.033 H 
ATOM      9  H14 STE d          -1.008  10.310  21.256  0.00  0.00     0.033 H 
BRANCH   7  10
ATOM     10  C7  STE d          -1.552   9.799  19.243  0.00  0.00    -0.065 C 
ATOM     11  H11 STE d          -2.488  10.193  18.820  0.00  0.00     0.033 H 
ATOM     12  H12 STE d          -0.810   9.678  18.440  0.00  0.00     0.033 H 
BRANCH  10  13
ATOM     13  C6  STE d          -1.827   8.439  19.873  0.00  0.00    -0.065 C 
ATOM     14  H9  STE d          -1.927   7.685  19.079  0.00  0.00     0.033 H 
ATOM     15  H10 STE d          -0.989   8.169  20.532  0.00  0.00     0.033 H 
BRANCH  13  16
ATOM     16  C5  STE d          -3.114   8.485  20.688  0.00  0.00    -0.065 C 
ATOM     17  H7  STE d          -2.864   8.360  21.752  0.00  0.00     0.033 H 
ATOM     18  H8  STE d          -3.594   9.464  20.537  0.00  0.00     0.033 H 
BRANCH  16  19
ATOM     19  C4  STE d          -4.090   7.393  20.284  0.00  0.00    -0.065 C 
ATOM     20  H5  STE d          -4.507   6.934  21.193  0.00  0.00     0.033 H 
ATOM     21  H6  STE d          -4.903   7.842  19.694  0.00  0.00     0.033 H 
BRANCH  19  22
ATOM     22  C3  STE d          -3.413   6.309  19.449  0.00  0.00    -0.056 C 
ATOM     23  H3  STE d          -2.457   6.697  19.067  0.00  0.00     0.033 H 
ATOM     24  H4  STE d          -3.225   5.433  20.087  0.00  0.00     0.033 H 
BRANCH  22  25
ATOM     25  C2  STE d          -4.283   5.885  18.268  0.00  0.00     0.016 C 
ATOM     26  H1  STE d          -5.343   6.023  18.524  0.00  0.00     0.049 H 
ATOM     27  H2  STE d          -4.035   6.498  17.389  0.00  0.00     0.049 H 
BRANCH  25  28
ATOM     28  C1  STE d          -4.021   4.434  17.962  0.00  0.00     0.172 C 
ATOM     29  O1  STE d          -4.418   3.984  16.859  0.00  0.00    -0.648 OA
ATOM     30  O2  STE d          -3.448   3.732  18.824  0.00  0.00    -0.648 OA
ENDBRANCH  25  28
ENDBRANCH  22  25
ENDBRANCH  19  22
ENDBRANCH  16  19
ENDBRANCH  13  16
ENDBRANCH  10  13
ENDBRANCH   7  10
ENDBRANCH   4   7
ENDBRANCH   1   4
BRANCH   1  31
ATOM     31  C11 STE d          -3.026  13.644  18.865  0.00  0.00    -0.065 C 
ATOM     32  H19 STE d          -3.499  13.718  19.855  0.00  0.00     0.033 H 
ATOM     33  H20 STE d          -3.759  13.268  18.136  0.00  0.00     0.033 H 
BRANCH  31  34
ATOM     34  C12 STE d          -2.529  15.005  18.433  0.00  0.00    -0.065 C 
ATOM     35  H21 STE d          -1.461  14.946  18.174  0.00  0.00     0.033 H 
ATOM     36  H22 STE d          -2.669  15.728  19.250  0.00  0.00     0.033 H 
BRANCH  34  37
ATOM     37  C13 STE d          -3.320  15.435  17.232  0.00  0.00    -0.065 C 
ATOM     38  H23 STE d          -3.751  14.545  16.750  0.00  0.00     0.033 H 
ATOM     39  H24 STE d          -2.649  15.947  16.527  0.00  0.00     0.033 H 
BRANCH  37  40
ATOM     40  C14 STE d          -4.443  16.380  17.620  0.00  0.00    -0.065 C 
ATOM     41  H25 STE d          -4.838  16.082  18.602  0.00  0.00     0.033 H 
ATOM     42  H26 STE d          -5.244  16.313  16.868  0.00  0.00     0.033 H 
BRANCH  40  43
ATOM     43  C15 STE d          -3.956  17.826  17.698  0.00  0.00    -0.065 C 
ATOM     44  H27 STE d          -2.857  17.851  17.723  0.00  0.00     0.033 H 
ATOM     45  H28 STE d          -4.354  18.308  18.602  0.00  0.00     0.033 H 
BRANCH  43  46
ATOM     46  C16 STE d          -4.462  18.544  16.464  0.00  0.00    -0.065 C 
ATOM     47  H29 STE d          -3.607  18.754  15.803  0.00  0.00     0.033 H 
ATOM     48  H30 STE d          -4.927  19.492  16.774  0.00  0.00     0.033 H 
BRANCH  46  49
ATOM     49  C17 STE d          -5.477  17.737  15.696  0.00  0.00    -0.069 C 
ATOM     50  H31 STE d          -6.425  18.295  15.672  0.00  0.00     0.032 H 
ATOM     51  H32 STE d          -5.629  16.778  16.213  0.00  0.00     0.032 H 
BRANCH  49  52
ATOM     52  C18 STE d          -5.043  17.456  14.274  0.00  0.00    -0.077 C 
ATOM     53  H33 STE d          -5.841  16.913  13.747  0.00  0.00     0.027 H 
ATOM     54  H34 STE d          -4.128  16.845  14.283  0.00  0.00     0.027 H 
ATOM     55  H35 STE d          -4.843  18.407  13.757  0.00  0.00     0.027 H 
ENDBRANCH  49  52
ENDBRANCH  46  49
ENDBRANCH  43  46
ENDBRANCH  40  43
ENDBRANCH  37  40
ENDBRANCH  34  37
ENDBRANCH  31  34
ENDBRANCH   1  31
TORSDOF 17
ENDMDL
MODEL 10
REMARK VINA RESULT:      -5.1      4.506      9.845
REMARK  17 active torsions:
REMARK  status: ('A' for Active; 'I' for Inactive)
REMARK    1  A    between atoms: C1_1  and  C2_4 
REMARK    2  A    between atoms: C2_4  and  C3_5 
REMARK    3  A    between atoms: C3_5  and  C4_6 
REMARK    4  A    between atoms: C4_6  and  C5_7 
REMARK    5  A    between atoms: C5_7  and  C6_8 
REMARK    6  A    between atoms: C6_8  and  C7_9 
REMARK    7  A    between atoms: C7_9  and  C8_10 
REMARK    8  A    between atoms: C8_10  and  C9_11 
REMARK    9  A    between atoms: C9_11  and  C10_12 
REMARK   10  A    between atoms: C10_12  and  C11_13 
REMARK   11  A    between atoms: C11_13  and  C12_14 
REMARK   12  A    between atoms: C12_14  and  C13_15 
REMARK   13  A    between atoms: C13_15  and  C14_16 
REMARK   14  A    between atoms: C14_16  and  C15_17 
REMARK   15  A    between atoms: C15_17  and  C16_18 
REMARK   16  A    between atoms: C16_18  and  C17_19 
REMARK   17  A    between atoms: C17_19  and  C18_20 
ROOT
ATOM      1  C10 STE d          -3.929   8.658  19.146  0.00  0.00    -0.065 C 
ATOM      2  H17 STE d          -4.089   9.442  18.390  0.00  0.00     0.033 H 
ATOM      3  H18 STE d          -4.675   8.764  19.948  0.00  0.00     0.033 H 
ENDROOT
BRANCH   1   4
ATOM      4  C9  STE d          -2.522   8.757  19.718  0.00  0.00    -0.065 C 
ATOM      5  H15 STE d          -2.577   8.959  20.799  0.00  0.00     0.033 H 
ATOM      6  H16 STE d          -1.987   7.810  19.550  0.00  0.00     0.033 H 
BRANCH   4   7
ATOM      7  C8  STE d          -1.781   9.889  19.026  0.00  0.00    -0.065 C 
ATOM      8  H13 STE d          -0.838   9.513  18.603  0.00  0.00     0.033 H 
ATOM      9  H14 STE d          -2.406  10.304  18.220  0.00  0.00     0.033 H 
BRANCH   7  10
ATOM     10  C7  STE d          -1.491  10.961  20.048  0.00  0.00    -0.065 C 
ATOM     11  H11 STE d          -2.317  10.997  20.774  0.00  0.00     0.033 H 
ATOM     12  H12 STE d          -0.555  10.713  20.570  0.00  0.00     0.033 H 
BRANCH  10  13
ATOM     13  C6  STE d          -1.347  12.328  19.393  0.00  0.00    -0.065 C 
ATOM     14  H9  STE d          -0.577  12.906  19.925  0.00  0.00     0.033 H 
ATOM     15  H10 STE d          -1.046  12.198  18.342  0.00  0.00     0.033 H 
BRANCH  13  16
ATOM     16  C5  STE d          -2.670  13.083  19.448  0.00  0.00    -0.065 C 
ATOM     17  H7  STE d          -3.440  12.417  19.864  0.00  0.00     0.033 H 
ATOM     18  H8  STE d          -2.551  13.960  20.102  0.00  0.00     0.033 H 
BRANCH  16  19
ATOM     19  C4  STE d          -3.121  13.553  18.075  0.00  0.00    -0.065 C 
ATOM     20  H5  STE d          -2.236  13.843  17.490  0.00  0.00     0.033 H 
ATOM     21  H6  STE d          -3.642  12.727  17.568  0.00  0.00     0.033 H 
BRANCH  19  22
ATOM     22  C3  STE d          -4.066  14.748  18.168  0.00  0.00    -0.056 C 
ATOM     23  H3  STE d          -5.101  14.397  18.041  0.00  0.00     0.033 H 
ATOM     24  H4  STE d          -3.956  15.214  19.159  0.00  0.00     0.033 H 
BRANCH  22  25
ATOM     25  C2  STE d          -3.761  15.790  17.094  0.00  0.00     0.016 C 
ATOM     26  H1  STE d          -2.685  15.780  16.867  0.00  0.00     0.049 H 
ATOM     27  H2  STE d          -4.331  15.556  16.183  0.00  0.00     0.049 H 
BRANCH  25  28
ATOM     28  C1  STE d          -4.158  17.150  17.604  0.00  0.00     0.172 C 
ATOM     29  O1  STE d          -5.247  17.633  17.207  0.00  0.00    -0.648 OA
ATOM     30  O2  STE d          -3.380  17.753  18.375  0.00  0.00    -0.648 OA
ENDBRANCH  25  28
ENDBRANCH  22  25
ENDBRANCH  19  22
ENDBRANCH  16  19
ENDBRANCH  13  16
ENDBRANCH  10  13
ENDBRANCH   7  10
ENDBRANCH   4   7
ENDBRANCH   1   4
BRANCH   1  31
ATOM     31  C11 STE d          -4.032   7.287  18.509  0.00  0.00    -0.065 C 
ATOM     32  H19 STE d          -3.412   6.570  19.065  0.00  0.00     0.033 H 
ATOM     33  H20 STE d          -3.690   7.335  17.464  0.00  0.00     0.033 H 
BRANCH  31  34
ATOM     34  C12 STE d          -5.480   6.853  18.553  0.00  0.00    -0.065 C 
ATOM     35  H21 STE d          -5.917   6.912  17.545  0.00  0.00     0.033 H 
ATOM     36  H22 STE d          -6.043   7.505  19.236  0.00  0.00     0.033 H 
BRANCH  34  37
ATOM     37  C13 STE d          -5.530   5.436  19.046  0.00  0.00    -0.065 C 
ATOM     38  H23 STE d          -5.143   4.769  18.262  0.00  0.00     0.033 H 
ATOM     39  H24 STE d          -6.575   5.172  19.270  0.00  0.00     0.033 H 
BRANCH  37  40
ATOM     40  C14 STE d          -4.695   5.258  20.302  0.00  0.00    -0.065 C 
ATOM     41  H25 STE d          -5.334   4.858  21.103  0.00  0.00     0.033 H 
ATOM     42  H26 STE d          -4.295   6.236  20.607  0.00  0.00     0.033 H 
BRANCH  40  43
ATOM     43  C15 STE d          -3.531   4.296  20.067  0.00  0.00    -0.065 C 
ATOM     44  H27 STE d          -3.305   4.235  18.992  0.00  0.00     0.033 H 
ATOM     45  H28 STE d          -3.788   3.296  20.446  0.00  0.00     0.033 H 
BRANCH  43  46
ATOM     46  C16 STE d          -2.333   4.841  20.817  0.00  0.00    -0.065 C 
ATOM     47  H29 STE d          -2.045   4.118  21.595  0.00  0.00     0.033 H 
ATOM     48  H30 STE d          -2.617   5.794  21.289  0.00  0.00     0.033 H 
BRANCH  46  49
ATOM     49  C17 STE d          -1.145   5.082  19.921  0.00  0.00    -0.069 C 
ATOM     50  H31 STE d          -1.467   5.700  19.069  0.00  0.00     0.032 H 
ATOM     51  H32 STE d          -0.778   4.112  19.553  0.00  0.00     0.032 H 
BRANCH  49  52
ATOM     52  C18 STE d          -0.013   5.790  20.633  0.00  0.00    -0.077 C 
ATOM     53  H33 STE d           0.935   5.573  20.119  0.00  0.00     0.027 H 
ATOM     54  H34 STE d           0.045   5.435  21.673  0.00  0.00     0.027 H 
ATOM     55  H35 STE d          -0.195   6.874  20.625  0.00  0.00     0.027 H 
ENDBRANCH  49  52
ENDBRANCH  46  49
ENDBRANCH  43  46
ENDBRANCH  40  43
ENDBRANCH  37  40
ENDBRANCH  34  37
ENDBRANCH  31  34
ENDBRANCH   1  31
TORSDOF 17
ENDMDL
