REMARK  20 active torsions:
REMARK  status: ('A' for Active; 'I' for Inactive)
REMARK    1  A    between atoms: C1_1  and  C23_23 
REMARK    2  A    between atoms: C1_1  and  C2_2 
REMARK    3  A    between atoms: C2_2  and  C18_18 
REMARK    4  A    between atoms: C2_2  and  C3_3 
REMARK    5  A    between atoms: C21_21  and  C4_4 
REMARK    6  A    between atoms: C13_13  and  C5_5 
REMARK    7  A    between atoms: C18_18  and  C7_7 
REMARK    8  A    between atoms: C7_7  and  C16_16 
REMARK    9  A    between atoms: C7_7  and  C8_8 
REMARK   10  A    between atoms: C8_8  and  C9_9 
REMARK   11  A    between atoms: C9_9  and  C10_10 
REMARK       I    between atoms: C16_16  and  N18_45 
REMARK   12  A    between atoms: N18_45  and  C19_19 
REMARK   13  A    between atoms: C19_19  and  C27_27 
REMARK   14  A    between atoms: C19_19  and  C20_20 
REMARK   15  A    between atoms: C20_20  and  C21_21 
REMARK   16  A    between atoms: C21_21  and  C22_22 
REMARK   17  A    between atoms: C23_23  and  C24_24 
REMARK   18  A    between atoms: C24_24  and  C25_25 
REMARK   19  A    between atoms: C25_25  and  N1_44 
REMARK       I    between atoms: C27_27  and  N29_46 
REMARK   20  A    between atoms: N29_46  and  C30_30 
ROOT
ATOM      1  C7  L04 d          35.150  35.809  24.366  0.00  0.00     0.025 C 
ATOM      2  H8  L04 d          34.939  36.665  25.024  0.00  0.00     0.054 H 
ENDROOT
BRANCH   1   3
ATOM      3  C18 L04 d          33.825  35.266  23.832  0.00  0.00    -0.041 C 
ATOM      4  H18 L04 d          33.983  34.970  22.785  0.00  0.00     0.035 H 
ATOM      5  H19 L04 d          33.562  34.380  24.428  0.00  0.00     0.035 H 
BRANCH   3   6
ATOM      6  C2  L04 d          32.632  36.223  23.870  0.00  0.00     0.031 C 
ATOM      7  H3  L04 d          31.818  35.750  23.302  0.00  0.00     0.056 H 
BRANCH   6   8
ATOM      8  C1  L04 d          32.915  37.574  23.197  0.00  0.00    -0.052 C 
ATOM      9  H1  L04 d          33.680  38.099  23.787  0.00  0.00     0.034 H 
ATOM     10  H2  L04 d          33.301  37.381  22.185  0.00  0.00     0.034 H 
BRANCH   8  11
ATOM     11  C23 L04 d          31.701  38.480  23.078  0.00  0.00    -0.063 C 
ATOM     12  H27 L04 d          31.371  38.772  24.086  0.00  0.00     0.033 H 
ATOM     13  H28 L04 d          30.893  37.932  22.572  0.00  0.00     0.033 H 
BRANCH  11  14
ATOM     14  C24 L04 d          32.025  39.735  22.279  0.00  0.00    -0.050 C 
ATOM     15  H29 L04 d          32.146  39.462  21.220  0.00  0.00     0.035 H 
ATOM     16  H30 L04 d          32.964  40.165  22.657  0.00  0.00     0.035 H 
BRANCH  14  17
ATOM     17  C25 L04 d          30.923  40.778  22.396  0.00  0.00    -0.002 C 
ATOM     18  H31 L04 d          31.207  41.655  21.796  0.00  0.00     0.064 H 
ATOM     19  H32 L04 d          30.829  41.071  23.452  0.00  0.00     0.064 H 
BRANCH  17  20
ATOM     20  N1  L04 d          29.623  40.298  21.930  0.00  0.00    -0.344 N 
ATOM     21  C28 L04 d          29.130  40.209  20.550  0.00  0.00     0.023 A 
ATOM     22  C36 L04 d          27.758  39.565  20.740  0.00  0.00    -0.025 A 
ATOM     23  H33 L04 d          29.785  39.577  19.932  0.00  0.00     0.071 H 
ATOM     24  H34 L04 d          29.043  41.205  20.092  0.00  0.00     0.071 H 
ATOM     25  C29 L04 d          27.523  39.383  22.127  0.00  0.00     0.040 A 
ATOM     26  C38 L04 d          26.798  39.140  19.813  0.00  0.00    -0.074 A 
ATOM     27  C26 L04 d          28.707  39.881  22.838  0.00  0.00     0.254 A 
ATOM     28  C37 L04 d          26.333  38.780  22.559  0.00  0.00    -0.067 A 
ATOM     29  O1  L04 d          28.862  39.881  24.062  0.00  0.00    -0.267 OA
ATOM     30  C40 L04 d          25.399  38.365  21.622  0.00  0.00    -0.082 A 
ATOM     31  H40 L04 d          26.145  38.639  23.617  0.00  0.00     0.085 H 
ATOM     32  C39 L04 d          25.626  38.543  20.268  0.00  0.00    -0.082 A 
ATOM     33  H43 L04 d          24.480  37.895  21.954  0.00  0.00     0.083 H 
ATOM     34  H42 L04 d          24.881  38.213  19.553  0.00  0.00     0.083 H 
ATOM     35  H41 L04 d          26.966  39.275  18.751  0.00  0.00     0.084 H 
ENDBRANCH  17  20
ENDBRANCH  14  17
ENDBRANCH  11  14
ENDBRANCH   8  11
ENDBRANCH   6   8
BRANCH   6  36
ATOM     36  C3  L04 d          32.146  36.393  25.314  0.00  0.00     0.177 C 
ATOM     37  O5  L04 d          32.625  37.237  26.115  0.00  0.00    -0.648 OA
ATOM     38  O4  L04 d          31.264  35.624  25.705  0.00  0.00    -0.648 OA
ENDBRANCH   6  36
ENDBRANCH   3   6
ENDBRANCH   1   3
BRANCH   1  39
ATOM     39  C16 L04 d          36.040  36.268  23.220  0.00  0.00     0.222 C 
ATOM     40  O17 L04 d          35.861  35.853  22.072  0.00  0.00    -0.273 OA
ATOM     41  N18 L04 d          37.002  37.127  23.541  0.00  0.00    -0.347 N 
ATOM     42  H46 L04 d          37.081  37.444  24.486  0.00  0.00     0.163 HD
BRANCH  41  43
ATOM     43  C19 L04 d          37.942  37.614  22.542  0.00  0.00     0.090 C 
ATOM     44  H20 L04 d          37.513  37.486  21.537  0.00  0.00     0.087 H 
BRANCH  43  45
ATOM     45  C27 L04 d          39.215  36.785  22.671  0.00  0.00     0.245 C 
ATOM     46  O28 L04 d          39.724  36.597  23.779  0.00  0.00    -0.271 OA
ATOM     47  N29 L04 d          39.672  36.240  21.543  0.00  0.00    -0.325 N 
ATOM     48  H47 L04 d          39.130  36.421  20.722  0.00  0.00     0.169 HD
BRANCH  47  49
ATOM     49  C30 L04 d          40.796  35.458  21.360  0.00  0.00     0.034 A 
ATOM     50  C35 L04 d          41.642  35.064  22.396  0.00  0.00    -0.057 A 
ATOM     51  C34 L04 d          42.766  34.282  22.142  0.00  0.00    -0.081 A 
ATOM     52  H39 L04 d          41.422  35.370  23.412  0.00  0.00     0.086 H 
ATOM     53  C33 L04 d          43.054  33.883  20.837  0.00  0.00    -0.083 A 
ATOM     54  H38 L04 d          43.416  33.984  22.957  0.00  0.00     0.083 H 
ATOM     55  C32 L04 d          42.218  34.271  19.796  0.00  0.00    -0.081 A 
ATOM     56  H37 L04 d          43.927  33.273  20.635  0.00  0.00     0.083 H 
ATOM     57  C31 L04 d          41.097  35.052  20.061  0.00  0.00    -0.057 A 
ATOM     58  H36 L04 d          42.439  33.966  18.780  0.00  0.00     0.083 H 
ATOM     59  H35 L04 d          40.448  35.349  19.245  0.00  0.00     0.086 H 
ENDBRANCH  47  49
ENDBRANCH  43  45
BRANCH  43  60
ATOM     60  C20 L04 d          38.262  39.093  22.767  0.00  0.00    -0.035 C 
ATOM     61  H21 L04 d          38.972  39.395  21.983  0.00  0.00     0.037 H 
ATOM     62  H22 L04 d          38.745  39.175  23.752  0.00  0.00     0.037 H 
BRANCH  60  63
ATOM     63  C21 L04 d          37.108  40.099  22.744  0.00  0.00    -0.059 C 
ATOM     64  H23 L04 d          36.447  39.908  23.602  0.00  0.00     0.038 H 
BRANCH  63  65
ATOM     65  C4  L04 d          37.691  41.496  22.865  0.00  0.00    -0.073 C 
ATOM     66  H4  L04 d          36.877  42.236  22.851  0.00  0.00     0.028 H 
ATOM     67  H5  L04 d          38.372  41.684  22.022  0.00  0.00     0.028 H 
ATOM     68  H6  L04 d          38.247  41.581  23.811  0.00  0.00     0.028 H 
ENDBRANCH  63  65
BRANCH  63  69
ATOM     69  C22 L04 d          36.292  39.963  21.459  0.00  0.00    -0.073 C 
ATOM     70  H24 L04 d          35.880  38.945  21.392  0.00  0.00     0.028 H 
ATOM     71  H25 L04 d          36.940  40.154  20.591  0.00  0.00     0.028 H 
ATOM     72  H26 L04 d          35.468  40.692  21.469  0.00  0.00     0.028 H 
ENDBRANCH  63  69
ENDBRANCH  60  63
ENDBRANCH  43  60
ENDBRANCH  41  43
ENDBRANCH   1  39
BRANCH   1  73
ATOM     73  C8  L04 d          35.902  34.740  25.164  0.00  0.00    -0.050 C 
ATOM     74  H9  L04 d          36.906  35.125  25.398  0.00  0.00     0.034 H 
ATOM     75  H10 L04 d          35.991  33.840  24.538  0.00  0.00     0.034 H 
BRANCH  73  76
ATOM     76  C9  L04 d          35.231  34.354  26.455  0.00  0.00    -0.040 C 
ATOM     77  H11 L04 d          34.413  33.658  26.220  0.00  0.00     0.040 H 
ATOM     78  H12 L04 d          34.817  35.265  26.911  0.00  0.00     0.040 H 
BRANCH  76  79
ATOM     79  C10 L04 d          36.128  33.697  27.458  0.00  0.00    -0.058 A 
ATOM     80  C15 L04 d          36.892  34.463  28.331  0.00  0.00    -0.076 A 
ATOM     81  C14 L04 d          37.699  33.860  29.285  0.00  0.00    -0.072 A 
ATOM     82  H16 L04 d          36.857  35.544  28.266  0.00  0.00     0.084 H 
ATOM     83  C13 L04 d          37.758  32.475  29.380  0.00  0.00    -0.026 A 
ATOM     84  H15 L04 d          38.286  34.472  29.960  0.00  0.00     0.084 H 
ATOM     85  C12 L04 d          36.995  31.711  28.502  0.00  0.00    -0.072 A 
ATOM     86  C11 L04 d          36.191  32.314  27.553  0.00  0.00    -0.076 A 
ATOM     87  H14 L04 d          37.032  30.629  28.563  0.00  0.00     0.084 H 
ATOM     88  H13 L04 d          35.605  31.701  26.877  0.00  0.00     0.084 H 
BRANCH  83  89
ATOM     89  C5  L04 d          38.607  31.819  30.387  0.00  0.00    -0.026 A 
ATOM     90  C43 L04 d          39.507  30.828  30.012  0.00  0.00    -0.069 A 
ATOM     91  C42 L04 d          40.303  30.201  30.961  0.00  0.00    -0.045 A 
ATOM     92  H45 L04 d          39.588  30.542  28.969  0.00  0.00     0.085 H 
ATOM     93  C41 L04 d          40.215  30.550  32.301  0.00  0.00     0.116 A 
ATOM     94  H44 L04 d          41.000  29.431  30.652  0.00  0.00     0.088 H 
ATOM     95  C17 L04 d          39.330  31.550  32.679  0.00  0.00    -0.045 A 
ATOM     96  F1  L04 d          40.982  29.922  33.216  0.00  0.00    -0.206 F 
ATOM     97  C6  L04 d          38.527  32.174  31.730  0.00  0.00    -0.069 A 
ATOM     98  H17 L04 d          39.264  31.846  33.720  0.00  0.00     0.088 H 
ATOM     99  H7  L04 d          37.831  32.945  32.040  0.00  0.00     0.085 H 
ENDBRANCH  83  89
ENDBRANCH  76  79
ENDBRANCH  73  76
ENDBRANCH   1  73
TORSDOF 20
