MODEL 1
REMARK VINA RESULT:     -10.6      0.000      0.000
REMARK  20 active torsions:
REMARK  status: ('A' for Active; 'I' for Inactive)
REMARK    1  A    between atoms: C1_1  and  C23_23 
REMARK    2  A    between atoms: C1_1  and  C2_2 
REMARK    3  A    between atoms: C2_2  and  C18_18 
REMARK    4  A    between atoms: C2_2  and  C3_3 
REMARK    5  A    between atoms: C21_21  and  C4_4 
REMARK    6  A    between atoms: C13_13  and  C5_5 
REMARK    7  A    between atoms: C18_18  and  C7_7 
REMARK    8  A    between atoms: C7_7  and  C16_16 
REMARK    9  A    between atoms: C7_7  and  C8_8 
REMARK   10  A    between atoms: C8_8  and  C9_9 
REMARK   11  A    between atoms: C9_9  and  C10_10 
REMARK       I    between atoms: C16_16  and  N18_45 
REMARK   12  A    between atoms: N18_45  and  C19_19 
REMARK   13  A    between atoms: C19_19  and  C27_27 
REMARK   14  A    between atoms: C19_19  and  C20_20 
REMARK   15  A    between atoms: C20_20  and  C21_21 
REMARK   16  A    between atoms: C21_21  and  C22_22 
REMARK   17  A    between atoms: C23_23  and  C24_24 
REMARK   18  A    between atoms: C24_24  and  C25_25 
REMARK   19  A    between atoms: C25_25  and  N1_44 
REMARK       I    between atoms: C27_27  and  N29_46 
REMARK   20  A    between atoms: N29_46  and  C30_30 
ROOT
ATOM      1  C7  L04 d          32.883  37.842  22.731  0.00  0.00     0.025 C 
ATOM      2  H8  L04 d          32.021  37.312  22.300  0.00  0.00     0.054 H 
ENDROOT
BRANCH   1   3
ATOM      3  C18 L04 d          32.506  38.331  24.129  0.00  0.00    -0.041 C 
ATOM      4  H18 L04 d          33.051  37.713  24.857  0.00  0.00     0.035 H 
ATOM      5  H19 L04 d          32.834  39.377  24.217  0.00  0.00     0.035 H 
BRANCH   3   6
ATOM      6  C2  L04 d          31.021  38.277  24.491  0.00  0.00     0.031 C 
ATOM      7  H3  L04 d          30.459  38.622  23.611  0.00  0.00     0.056 H 
BRANCH   6   8
ATOM      8  C1  L04 d          30.644  39.210  25.651  0.00  0.00    -0.052 C 
ATOM      9  H1  L04 d          31.185  38.879  26.549  0.00  0.00     0.034 H 
ATOM     10  H2  L04 d          30.960  40.231  25.389  0.00  0.00     0.034 H 
BRANCH   8  11
ATOM     11  C23 L04 d          29.159  39.240  25.974  0.00  0.00    -0.063 C 
ATOM     12  H27 L04 d          29.027  39.520  27.029  0.00  0.00     0.033 H 
ATOM     13  H28 L04 d          28.736  38.239  25.804  0.00  0.00     0.033 H 
BRANCH  11  14
ATOM     14  C24 L04 d          28.424  40.244  25.097  0.00  0.00    -0.050 C 
ATOM     15  H29 L04 d          29.154  40.953  24.677  0.00  0.00     0.035 H 
ATOM     16  H30 L04 d          27.696  40.789  25.715  0.00  0.00     0.035 H 
BRANCH  14  17
ATOM     17  C25 L04 d          27.687  39.561  23.954  0.00  0.00    -0.002 C 
ATOM     18  H31 L04 d          26.648  39.920  23.944  0.00  0.00     0.064 H 
ATOM     19  H32 L04 d          27.698  38.475  24.129  0.00  0.00     0.064 H 
BRANCH  17  20
ATOM     20  N1  L04 d          28.282  39.826  22.645  0.00  0.00    -0.344 N 
ATOM     21  C28 L04 d          29.575  40.453  22.346  0.00  0.00     0.023 A 
ATOM     22  C36 L04 d          29.631  40.363  20.822  0.00  0.00    -0.025 A 
ATOM     23  H33 L04 d          30.405  39.898  22.809  0.00  0.00     0.071 H 
ATOM     24  H34 L04 d          29.600  41.499  22.684  0.00  0.00     0.071 H 
ATOM     25  C29 L04 d          28.426  39.783  20.350  0.00  0.00     0.040 A 
ATOM     26  C38 L04 d          30.634  40.716  19.909  0.00  0.00    -0.074 A 
ATOM     27  C26 L04 d          27.597  39.486  21.525  0.00  0.00     0.254 A 
ATOM     28  C37 L04 d          28.247  39.568  18.976  0.00  0.00    -0.067 A 
ATOM     29  O1  L04 d          26.476  38.971  21.501  0.00  0.00    -0.267 OA
ATOM     30  C40 L04 d          29.255  39.923  18.093  0.00  0.00    -0.082 A 
ATOM     31  H40 L04 d          27.328  39.127  18.608  0.00  0.00     0.085 H 
ATOM     32  C39 L04 d          30.431  40.490  18.551  0.00  0.00    -0.082 A 
ATOM     33  H43 L04 d          29.120  39.754  17.030  0.00  0.00     0.083 H 
ATOM     34  H42 L04 d          31.205  40.762  17.842  0.00  0.00     0.083 H 
ATOM     35  H41 L04 d          31.558  41.161  20.258  0.00  0.00     0.084 H 
ENDBRANCH  17  20
ENDBRANCH  14  17
ENDBRANCH  11  14
ENDBRANCH   8  11
ENDBRANCH   6   8
BRANCH   6  36
ATOM     36  C3  L04 d          30.603  36.827  24.764  0.00  0.00     0.177 C 
ATOM     37  O5  L04 d          29.494  36.345  24.416  0.00  0.00    -0.648 OA
ATOM     38  O4  L04 d          31.395  36.123  25.394  0.00  0.00    -0.648 OA
ENDBRANCH   6  36
ENDBRANCH   3   6
ENDBRANCH   1   3
BRANCH   1  39
ATOM     39  C16 L04 d          34.070  36.893  22.799  0.00  0.00     0.222 C 
ATOM     40  O17 L04 d          34.342  36.147  21.854  0.00  0.00    -0.273 OA
ATOM     41  N18 L04 d          34.774  36.924  23.926  0.00  0.00    -0.347 N 
ATOM     42  H46 L04 d          34.517  37.567  24.647  0.00  0.00     0.163 HD
BRANCH  41  43
ATOM     43  C19 L04 d          35.912  36.039  24.129  0.00  0.00     0.090 C 
ATOM     44  H20 L04 d          36.014  35.364  23.266  0.00  0.00     0.087 H 
BRANCH  43  45
ATOM     45  C27 L04 d          35.639  35.228  25.391  0.00  0.00     0.245 C 
ATOM     46  O28 L04 d          34.517  35.237  25.904  0.00  0.00    -0.271 OA
ATOM     47  N29 L04 d          36.651  34.481  25.834  0.00  0.00    -0.325 N 
ATOM     48  H47 L04 d          37.489  34.518  25.289  0.00  0.00     0.169 HD
BRANCH  47  49
ATOM     49  C30 L04 d          36.693  33.662  26.946  0.00  0.00     0.034 A 
ATOM     50  C35 L04 d          37.102  34.091  28.208  0.00  0.00    -0.057 A 
ATOM     51  C34 L04 d          37.131  33.211  29.287  0.00  0.00    -0.081 A 
ATOM     52  H39 L04 d          37.402  35.123  28.351  0.00  0.00     0.086 H 
ATOM     53  C33 L04 d          36.745  31.883  29.109  0.00  0.00    -0.083 A 
ATOM     54  H38 L04 d          37.453  33.558  30.262  0.00  0.00     0.083 H 
ATOM     55  C32 L04 d          36.336  31.444  27.855  0.00  0.00    -0.081 A 
ATOM     56  H37 L04 d          36.764  31.194  29.947  0.00  0.00     0.083 H 
ATOM     57  C31 L04 d          36.311  32.332  26.784  0.00  0.00    -0.057 A 
ATOM     58  H36 L04 d          36.038  30.412  27.712  0.00  0.00     0.083 H 
ATOM     59  H35 L04 d          35.989  31.984  25.809  0.00  0.00     0.086 H 
ENDBRANCH  47  49
ENDBRANCH  43  45
BRANCH  43  60
ATOM     60  C20 L04 d          37.204  36.840  24.297  0.00  0.00    -0.035 C 
ATOM     61  H21 L04 d          37.471  36.806  25.364  0.00  0.00     0.037 H 
ATOM     62  H22 L04 d          36.985  37.877  24.005  0.00  0.00     0.037 H 
BRANCH  60  63
ATOM     63  C21 L04 d          38.440  36.400  23.508  0.00  0.00    -0.059 C 
ATOM     64  H23 L04 d          38.857  35.492  23.967  0.00  0.00     0.038 H 
BRANCH  63  65
ATOM     65  C4  L04 d          38.011  36.087  22.085  0.00  0.00    -0.073 C 
ATOM     66  H4  L04 d          36.980  35.703  22.089  0.00  0.00     0.028 H 
ATOM     67  H5  L04 d          38.682  35.328  21.657  0.00  0.00     0.028 H 
ATOM     68  H6  L04 d          38.059  37.003  21.477  0.00  0.00     0.028 H 
ENDBRANCH  63  65
BRANCH  63  69
ATOM     69  C22 L04 d          39.512  37.489  23.521  0.00  0.00    -0.073 C 
ATOM     70  H24 L04 d          40.336  37.202  22.851  0.00  0.00     0.028 H 
ATOM     71  H25 L04 d          39.898  37.611  24.544  0.00  0.00     0.028 H 
ATOM     72  H26 L04 d          39.074  38.439  23.179  0.00  0.00     0.028 H 
ENDBRANCH  63  69
ENDBRANCH  60  63
ENDBRANCH  43  60
ENDBRANCH  41  43
ENDBRANCH   1  39
BRANCH   1  73
ATOM     73  C8  L04 d          33.254  39.015  21.818  0.00  0.00    -0.050 C 
ATOM     74  H9  L04 d          32.325  39.447  21.416  0.00  0.00     0.034 H 
ATOM     75  H10 L04 d          33.867  38.629  20.991  0.00  0.00     0.034 H 
BRANCH  73  76
ATOM     76  C9  L04 d          34.024  40.109  22.509  0.00  0.00    -0.040 C 
ATOM     77  H11 L04 d          33.913  39.972  23.594  0.00  0.00     0.040 H 
ATOM     78  H12 L04 d          33.586  41.073  22.214  0.00  0.00     0.040 H 
BRANCH  76  79
ATOM     79  C10 L04 d          35.487  40.144  22.191  0.00  0.00    -0.058 A 
ATOM     80  C15 L04 d          36.036  39.240  21.289  0.00  0.00    -0.076 A 
ATOM     81  C14 L04 d          37.384  39.290  20.965  0.00  0.00    -0.072 A 
ATOM     82  H16 L04 d          35.404  38.486  20.834  0.00  0.00     0.084 H 
ATOM     83  C13 L04 d          38.210  40.247  21.542  0.00  0.00    -0.026 A 
ATOM     84  H15 L04 d          37.796  38.579  20.258  0.00  0.00     0.084 H 
ATOM     85  C12 L04 d          37.658  41.149  22.447  0.00  0.00    -0.072 A 
ATOM     86  C11 L04 d          36.314  41.098  22.767  0.00  0.00    -0.076 A 
ATOM     87  H14 L04 d          38.290  41.901  22.906  0.00  0.00     0.084 H 
ATOM     88  H13 L04 d          35.903  41.808  23.476  0.00  0.00     0.084 H 
BRANCH  83  89
ATOM     89  C5  L04 d          39.641  40.316  21.208  0.00  0.00    -0.026 A 
ATOM     90  C43 L04 d          40.108  39.807  20.001  0.00  0.00    -0.069 A 
ATOM     91  C42 L04 d          41.459  39.862  19.687  0.00  0.00    -0.045 A 
ATOM     92  H45 L04 d          39.411  39.363  19.299  0.00  0.00     0.085 H 
ATOM     93  C41 L04 d          42.369  40.424  20.571  0.00  0.00     0.116 A 
ATOM     94  H44 L04 d          41.807  39.462  18.742  0.00  0.00     0.088 H 
ATOM     95  C17 L04 d          41.906  40.948  21.770  0.00  0.00    -0.045 A 
ATOM     96  F1  L04 d          43.682  40.457  20.261  0.00  0.00    -0.206 F 
ATOM     97  C6  L04 d          40.554  40.887  22.088  0.00  0.00    -0.069 A 
ATOM     98  H17 L04 d          42.604  41.408  22.462  0.00  0.00     0.088 H 
ATOM     99  H7  L04 d          40.207  41.289  23.033  0.00  0.00     0.085 H 
ENDBRANCH  83  89
ENDBRANCH  76  79
ENDBRANCH  73  76
ENDBRANCH   1  73
TORSDOF 20
ENDMDL
MODEL 2
REMARK VINA RESULT:     -10.4      3.280     10.220
REMARK  20 active torsions:
REMARK  status: ('A' for Active; 'I' for Inactive)
REMARK    1  A    between atoms: C1_1  and  C23_23 
REMARK    2  A    between atoms: C1_1  and  C2_2 
REMARK    3  A    between atoms: C2_2  and  C18_18 
REMARK    4  A    between atoms: C2_2  and  C3_3 
REMARK    5  A    between atoms: C21_21  and  C4_4 
REMARK    6  A    between atoms: C13_13  and  C5_5 
REMARK    7  A    between atoms: C18_18  and  C7_7 
REMARK    8  A    between atoms: C7_7  and  C16_16 
REMARK    9  A    between atoms: C7_7  and  C8_8 
REMARK   10  A    between atoms: C8_8  and  C9_9 
REMARK   11  A    between atoms: C9_9  and  C10_10 
REMARK       I    between atoms: C16_16  and  N18_45 
REMARK   12  A    between atoms: N18_45  and  C19_19 
REMARK   13  A    between atoms: C19_19  and  C27_27 
REMARK   14  A    between atoms: C19_19  and  C20_20 
REMARK   15  A    between atoms: C20_20  and  C21_21 
REMARK   16  A    between atoms: C21_21  and  C22_22 
REMARK   17  A    between atoms: C23_23  and  C24_24 
REMARK   18  A    between atoms: C24_24  and  C25_25 
REMARK   19  A    between atoms: C25_25  and  N1_44 
REMARK       I    between atoms: C27_27  and  N29_46 
REMARK   20  A    between atoms: N29_46  and  C30_30 
ROOT
ATOM      1  C7  L04 d          34.983  38.759  22.044  0.00  0.00     0.025 C 
ATOM      2  H8  L04 d          35.598  39.053  21.180  0.00  0.00     0.054 H 
ENDROOT
BRANCH   1   3
ATOM      3  C18 L04 d          35.840  38.851  23.306  0.00  0.00    -0.041 C 
ATOM      4  H18 L04 d          35.686  39.848  23.743  0.00  0.00     0.035 H 
ATOM      5  H19 L04 d          35.484  38.083  24.009  0.00  0.00     0.035 H 
BRANCH   3   6
ATOM      6  C2  L04 d          37.346  38.650  23.123  0.00  0.00     0.031 C 
ATOM      7  H3  L04 d          37.847  39.198  23.934  0.00  0.00     0.056 H 
BRANCH   6   8
ATOM      8  C1  L04 d          37.879  39.226  21.804  0.00  0.00    -0.052 C 
ATOM      9  H1  L04 d          38.383  38.418  21.254  0.00  0.00     0.034 H 
ATOM     10  H2  L04 d          37.024  39.591  21.216  0.00  0.00     0.034 H 
BRANCH   8  11
ATOM     11  C23 L04 d          38.864  40.371  21.973  0.00  0.00    -0.063 C 
ATOM     12  H27 L04 d          38.953  40.612  23.043  0.00  0.00     0.033 H 
ATOM     13  H28 L04 d          38.488  41.250  21.430  0.00  0.00     0.033 H 
BRANCH  11  14
ATOM     14  C24 L04 d          40.238  40.003  21.431  0.00  0.00    -0.050 C 
ATOM     15  H29 L04 d          40.832  40.921  21.310  0.00  0.00     0.035 H 
ATOM     16  H30 L04 d          40.115  39.514  20.453  0.00  0.00     0.035 H 
BRANCH  14  17
ATOM     17  C25 L04 d          40.978  39.057  22.365  0.00  0.00    -0.002 C 
ATOM     18  H31 L04 d          40.429  39.006  23.317  0.00  0.00     0.064 H 
ATOM     19  H32 L04 d          41.986  39.459  22.544  0.00  0.00     0.064 H 
BRANCH  17  20
ATOM     20  N1  L04 d          41.107  37.702  21.831  0.00  0.00    -0.344 N 
ATOM     21  C28 L04 d          41.107  37.277  20.425  0.00  0.00     0.023 A 
ATOM     22  C36 L04 d          41.352  35.774  20.544  0.00  0.00    -0.025 A 
ATOM     23  H33 L04 d          41.911  37.770  19.859  0.00  0.00     0.071 H 
ATOM     24  H34 L04 d          40.140  37.487  19.945  0.00  0.00     0.071 H 
ATOM     25  C29 L04 d          41.418  35.426  21.917  0.00  0.00     0.040 A 
ATOM     26  C38 L04 d          41.535  34.786  19.569  0.00  0.00    -0.074 A 
ATOM     27  C26 L04 d          41.232  36.661  22.689  0.00  0.00     0.254 A 
ATOM     28  C37 L04 d          41.665  34.096  22.288  0.00  0.00    -0.067 A 
ATOM     29  O1  L04 d          41.233  36.745  23.920  0.00  0.00    -0.267 OA
ATOM     30  C40 L04 d          41.846  33.136  21.304  0.00  0.00    -0.082 A 
ATOM     31  H40 L04 d          41.715  33.821  23.335  0.00  0.00     0.085 H 
ATOM     32  C39 L04 d          41.780  33.474  19.963  0.00  0.00    -0.082 A 
ATOM     33  H43 L04 d          42.041  32.108  21.589  0.00  0.00     0.083 H 
ATOM     34  H42 L04 d          41.922  32.707  19.211  0.00  0.00     0.083 H 
ATOM     35  H41 L04 d          41.486  35.040  18.517  0.00  0.00     0.084 H 
ENDBRANCH  17  20
ENDBRANCH  14  17
ENDBRANCH  11  14
ENDBRANCH   8  11
ENDBRANCH   6   8
BRANCH   6  36
ATOM     36  C3  L04 d          37.698  37.167  23.285  0.00  0.00     0.177 C 
ATOM     37  O5  L04 d          37.918  36.621  24.397  0.00  0.00    -0.648 OA
ATOM     38  O4  L04 d          37.805  36.499  22.254  0.00  0.00    -0.648 OA
ENDBRANCH   6  36
ENDBRANCH   3   6
ENDBRANCH   1   3
BRANCH   1  39
ATOM     39  C16 L04 d          33.785  39.691  22.144  0.00  0.00     0.222 C 
ATOM     40  O17 L04 d          33.702  40.525  23.049  0.00  0.00    -0.273 OA
ATOM     41  N18 L04 d          32.855  39.543  21.205  0.00  0.00    -0.347 N 
ATOM     42  H46 L04 d          32.991  38.864  20.484  0.00  0.00     0.163 HD
BRANCH  41  43
ATOM     43  C19 L04 d          31.643  40.349  21.210  0.00  0.00     0.090 C 
ATOM     44  H20 L04 d          31.857  41.335  21.649  0.00  0.00     0.087 H 
BRANCH  43  45
ATOM     45  C27 L04 d          30.611  39.617  22.060  0.00  0.00     0.245 C 
ATOM     46  O28 L04 d          30.617  38.385  22.120  0.00  0.00    -0.271 OA
ATOM     47  N29 L04 d          29.782  40.389  22.764  0.00  0.00    -0.325 N 
ATOM     48  H47 L04 d          29.924  41.375  22.672  0.00  0.00     0.169 HD
BRANCH  47  49
ATOM     49  C30 L04 d          28.754  40.005  23.602  0.00  0.00     0.034 A 
ATOM     50  C35 L04 d          27.566  39.426  23.156  0.00  0.00    -0.057 A 
ATOM     51  C34 L04 d          26.564  39.070  24.055  0.00  0.00    -0.081 A 
ATOM     52  H39 L04 d          27.422  39.250  22.097  0.00  0.00     0.086 H 
ATOM     53  C33 L04 d          26.744  39.292  25.420  0.00  0.00    -0.083 A 
ATOM     54  H38 L04 d          25.645  38.622  23.694  0.00  0.00     0.083 H 
ATOM     55  C32 L04 d          27.923  39.870  25.876  0.00  0.00    -0.081 A 
ATOM     56  H37 L04 d          25.966  39.016  26.123  0.00  0.00     0.083 H 
ATOM     57  C31 L04 d          28.919  40.221  24.969  0.00  0.00    -0.057 A 
ATOM     58  H36 L04 d          28.067  40.048  26.935  0.00  0.00     0.083 H 
ATOM     59  H35 L04 d          29.837  40.670  25.332  0.00  0.00     0.086 H 
ENDBRANCH  47  49
ENDBRANCH  43  45
BRANCH  43  60
ATOM     60  C20 L04 d          31.106  40.538  19.790  0.00  0.00    -0.035 C 
ATOM     61  H21 L04 d          31.898  40.216  19.098  0.00  0.00     0.037 H 
ATOM     62  H22 L04 d          30.913  41.612  19.655  0.00  0.00     0.037 H 
BRANCH  60  63
ATOM     63  C21 L04 d          29.828  39.795  19.392  0.00  0.00    -0.059 C 
ATOM     64  H23 L04 d          29.573  39.069  20.178  0.00  0.00     0.038 H 
BRANCH  63  65
ATOM     65  C4  L04 d          28.705  40.811  19.268  0.00  0.00    -0.073 C 
ATOM     66  H4  L04 d          28.457  40.956  18.207  0.00  0.00     0.028 H 
ATOM     67  H5  L04 d          29.027  41.768  19.704  0.00  0.00     0.028 H 
ATOM     68  H6  L04 d          27.817  40.443  19.805  0.00  0.00     0.028 H 
ENDBRANCH  63  65
BRANCH  63  69
ATOM     69  C22 L04 d          30.023  39.042  18.076  0.00  0.00    -0.073 C 
ATOM     70  H24 L04 d          30.995  38.527  18.089  0.00  0.00     0.028 H 
ATOM     71  H25 L04 d          29.996  39.755  17.238  0.00  0.00     0.028 H 
ATOM     72  H26 L04 d          29.217  38.303  17.954  0.00  0.00     0.028 H 
ENDBRANCH  63  69
ENDBRANCH  60  63
ENDBRANCH  43  60
ENDBRANCH  41  43
ENDBRANCH   1  39
BRANCH   1  73
ATOM     73  C8  L04 d          34.470  37.333  21.829  0.00  0.00    -0.050 C 
ATOM     74  H9  L04 d          35.338  36.660  21.756  0.00  0.00     0.034 H 
ATOM     75  H10 L04 d          33.905  37.307  20.886  0.00  0.00     0.034 H 
BRANCH  73  76
ATOM     76  C9  L04 d          33.575  36.831  22.930  0.00  0.00    -0.040 C 
ATOM     77  H11 L04 d          32.780  36.224  22.474  0.00  0.00     0.040 H 
ATOM     78  H12 L04 d          33.128  37.702  23.431  0.00  0.00     0.040 H 
BRANCH  76  79
ATOM     79  C10 L04 d          34.260  35.997  23.968  0.00  0.00    -0.058 A 
ATOM     80  C15 L04 d          34.330  36.429  25.288  0.00  0.00    -0.076 A 
ATOM     81  C14 L04 d          34.935  35.645  26.260  0.00  0.00    -0.072 A 
ATOM     82  H16 L04 d          33.908  37.388  25.561  0.00  0.00     0.084 H 
ATOM     83  C13 L04 d          35.484  34.413  25.927  0.00  0.00    -0.026 A 
ATOM     84  H15 L04 d          34.978  35.995  27.285  0.00  0.00     0.084 H 
ATOM     85  C12 L04 d          35.416  33.986  24.604  0.00  0.00    -0.072 A 
ATOM     86  C11 L04 d          34.813  34.768  23.637  0.00  0.00    -0.076 A 
ATOM     87  H14 L04 d          35.842  33.028  24.328  0.00  0.00     0.084 H 
ATOM     88  H13 L04 d          34.771  34.418  22.611  0.00  0.00     0.084 H 
BRANCH  83  89
ATOM     89  C5  L04 d          36.127  33.568  26.946  0.00  0.00    -0.026 A 
ATOM     90  C43 L04 d          36.869  34.143  27.971  0.00  0.00    -0.069 A 
ATOM     91  C42 L04 d          37.484  33.348  28.929  0.00  0.00    -0.045 A 
ATOM     92  H45 L04 d          36.969  35.222  28.024  0.00  0.00     0.085 H 
ATOM     93  C41 L04 d          37.372  31.966  28.881  0.00  0.00     0.116 A 
ATOM     94  H44 L04 d          38.059  33.812  29.722  0.00  0.00     0.088 H 
ATOM     95  C17 L04 d          36.619  31.388  27.868  0.00  0.00    -0.045 A 
ATOM     96  F1  L04 d          37.988  31.204  29.807  0.00  0.00    -0.206 F 
ATOM     97  C6  L04 d          36.008  32.183  26.904  0.00  0.00    -0.069 A 
ATOM     98  H17 L04 d          36.507  30.310  27.829  0.00  0.00     0.088 H 
ATOM     99  H7  L04 d          35.433  31.718  26.112  0.00  0.00     0.085 H 
ENDBRANCH  83  89
ENDBRANCH  76  79
ENDBRANCH  73  76
ENDBRANCH   1  73
TORSDOF 20
ENDMDL
MODEL 3
REMARK VINA RESULT:     -10.2      2.317      8.995
REMARK  20 active torsions:
REMARK  status: ('A' for Active; 'I' for Inactive)
REMARK    1  A    between atoms: C1_1  and  C23_23 
REMARK    2  A    between atoms: C1_1  and  C2_2 
REMARK    3  A    between atoms: C2_2  and  C18_18 
REMARK    4  A    between atoms: C2_2  and  C3_3 
REMARK    5  A    between atoms: C21_21  and  C4_4 
REMARK    6  A    between atoms: C13_13  and  C5_5 
REMARK    7  A    between atoms: C18_18  and  C7_7 
REMARK    8  A    between atoms: C7_7  and  C16_16 
REMARK    9  A    between atoms: C7_7  and  C8_8 
REMARK   10  A    between atoms: C8_8  and  C9_9 
REMARK   11  A    between atoms: C9_9  and  C10_10 
REMARK       I    between atoms: C16_16  and  N18_45 
REMARK   12  A    between atoms: N18_45  and  C19_19 
REMARK   13  A    between atoms: C19_19  and  C27_27 
REMARK   14  A    between atoms: C19_19  and  C20_20 
REMARK   15  A    between atoms: C20_20  and  C21_21 
REMARK   16  A    between atoms: C21_21  and  C22_22 
REMARK   17  A    between atoms: C23_23  and  C24_24 
REMARK   18  A    between atoms: C24_24  and  C25_25 
REMARK   19  A    between atoms: C25_25  and  N1_44 
REMARK       I    between atoms: C27_27  and  N29_46 
REMARK   20  A    between atoms: N29_46  and  C30_30 
ROOT
ATOM      1  C7  L04 d          33.795  39.156  22.737  0.00  0.00     0.025 C 
ATOM      2  H8  L04 d          34.211  39.163  23.755  0.00  0.00     0.054 H 
ENDROOT
BRANCH   1   3
ATOM      3  C18 L04 d          33.508  37.710  22.337  0.00  0.00    -0.041 C 
ATOM      4  H18 L04 d          32.439  37.636  22.094  0.00  0.00     0.035 H 
ATOM      5  H19 L04 d          34.105  37.486  21.441  0.00  0.00     0.035 H 
BRANCH   3   6
ATOM      6  C2  L04 d          33.822  36.639  23.384  0.00  0.00     0.031 C 
ATOM      7  H3  L04 d          34.737  36.954  23.906  0.00  0.00     0.056 H 
BRANCH   6   8
ATOM      8  C1  L04 d          34.113  35.260  22.774  0.00  0.00    -0.052 C 
ATOM      9  H1  L04 d          33.210  34.919  22.248  0.00  0.00     0.034 H 
ATOM     10  H2  L04 d          34.938  35.368  22.055  0.00  0.00     0.034 H 
BRANCH   8  11
ATOM     11  C23 L04 d          34.502  34.197  23.788  0.00  0.00    -0.063 C 
ATOM     12  H27 L04 d          34.650  33.240  23.266  0.00  0.00     0.033 H 
ATOM     13  H28 L04 d          33.694  34.092  24.526  0.00  0.00     0.033 H 
BRANCH  11  14
ATOM     14  C24 L04 d          35.789  34.570  24.512  0.00  0.00    -0.050 C 
ATOM     15  H29 L04 d          36.230  35.452  24.024  0.00  0.00     0.035 H 
ATOM     16  H30 L04 d          36.490  33.726  24.449  0.00  0.00     0.035 H 
BRANCH  14  17
ATOM     17  C25 L04 d          35.537  34.893  25.978  0.00  0.00    -0.002 C 
ATOM     18  H31 L04 d          34.451  34.950  26.142  0.00  0.00     0.064 H 
ATOM     19  H32 L04 d          35.994  35.868  26.205  0.00  0.00     0.064 H 
BRANCH  17  20
ATOM     20  N1  L04 d          36.092  33.896  26.892  0.00  0.00    -0.344 N 
ATOM     21  C28 L04 d          35.920  32.438  26.857  0.00  0.00     0.023 A 
ATOM     22  C36 L04 d          36.804  31.983  28.017  0.00  0.00    -0.025 A 
ATOM     23  H33 L04 d          36.269  32.018  25.902  0.00  0.00     0.071 H 
ATOM     24  H34 L04 d          34.870  32.155  27.020  0.00  0.00     0.071 H 
ATOM     25  C29 L04 d          37.353  33.126  28.653  0.00  0.00     0.040 A 
ATOM     26  C38 L04 d          37.139  30.704  28.479  0.00  0.00    -0.074 A 
ATOM     27  C26 L04 d          36.859  34.305  27.932  0.00  0.00     0.254 A 
ATOM     28  C37 L04 d          38.227  32.967  29.738  0.00  0.00    -0.067 A 
ATOM     29  O1  L04 d          37.132  35.478  28.201  0.00  0.00    -0.267 OA
ATOM     30  C40 L04 d          38.546  31.690  30.176  0.00  0.00    -0.082 A 
ATOM     31  H40 L04 d          38.649  33.835  30.231  0.00  0.00     0.085 H 
ATOM     32  C39 L04 d          38.010  30.574  29.558  0.00  0.00    -0.082 A 
ATOM     33  H43 L04 d          39.224  31.565  31.013  0.00  0.00     0.083 H 
ATOM     34  H42 L04 d          38.271  29.586  29.918  0.00  0.00     0.083 H 
ATOM     35  H41 L04 d          36.724  29.824  28.002  0.00  0.00     0.084 H 
ENDBRANCH  17  20
ENDBRANCH  14  17
ENDBRANCH  11  14
ENDBRANCH   8  11
ENDBRANCH   6   8
BRANCH   6  36
ATOM     36  C3  L04 d          32.697  36.580  24.423  0.00  0.00     0.177 C 
ATOM     37  O5  L04 d          31.527  36.198  24.161  0.00  0.00    -0.648 OA
ATOM     38  O4  L04 d          32.962  36.971  25.563  0.00  0.00    -0.648 OA
ENDBRANCH   6  36
ENDBRANCH   3   6
ENDBRANCH   1   3
BRANCH   1  39
ATOM     39  C16 L04 d          32.515  39.980  22.715  0.00  0.00     0.222 C 
ATOM     40  O17 L04 d          32.540  41.184  22.444  0.00  0.00    -0.273 OA
ATOM     41  N18 L04 d          31.397  39.323  23.004  0.00  0.00    -0.347 N 
ATOM     42  H46 L04 d          31.440  38.342  23.192  0.00  0.00     0.163 HD
BRANCH  41  43
ATOM     43  C19 L04 d          30.112  40.005  23.051  0.00  0.00     0.090 C 
ATOM     44  H20 L04 d          30.223  41.029  22.665  0.00  0.00     0.087 H 
BRANCH  43  45
ATOM     45  C27 L04 d          29.671  40.047  24.510  0.00  0.00     0.245 C 
ATOM     46  O28 L04 d          30.512  40.055  25.413  0.00  0.00    -0.271 OA
ATOM     47  N29 L04 d          28.358  40.145  24.719  0.00  0.00    -0.325 N 
ATOM     48  H47 L04 d          27.789  40.191  23.897  0.00  0.00     0.169 HD
BRANCH  47  49
ATOM     49  C30 L04 d          27.680  40.193  25.921  0.00  0.00     0.034 A 
ATOM     50  C35 L04 d          27.720  41.283  26.790  0.00  0.00    -0.057 A 
ATOM     51  C34 L04 d          27.020  41.263  27.994  0.00  0.00    -0.081 A 
ATOM     52  H39 L04 d          28.302  42.157  26.525  0.00  0.00     0.086 H 
ATOM     53  C33 L04 d          26.266  40.142  28.340  0.00  0.00    -0.083 A 
ATOM     54  H38 L04 d          27.060  42.117  28.660  0.00  0.00     0.083 H 
ATOM     55  C32 L04 d          26.220  39.049  27.483  0.00  0.00    -0.081 A 
ATOM     56  H37 L04 d          25.718  40.123  29.276  0.00  0.00     0.083 H 
ATOM     57  C31 L04 d          26.923  39.079  26.282  0.00  0.00    -0.057 A 
ATOM     58  H36 L04 d          25.639  38.174  27.749  0.00  0.00     0.083 H 
ATOM     59  H35 L04 d          26.881  38.224  25.616  0.00  0.00     0.086 H 
ENDBRANCH  47  49
ENDBRANCH  43  45
BRANCH  43  60
ATOM     60  C20 L04 d          29.068  39.263  22.215  0.00  0.00    -0.035 C 
ATOM     61  H21 L04 d          28.086  39.464  22.668  0.00  0.00     0.037 H 
ATOM     62  H22 L04 d          29.294  38.189  22.291  0.00  0.00     0.037 H 
BRANCH  60  63
ATOM     63  C21 L04 d          28.956  39.598  20.725  0.00  0.00    -0.059 C 
ATOM     64  H23 L04 d          29.417  38.789  20.139  0.00  0.00     0.038 H 
BRANCH  63  65
ATOM     65  C4  L04 d          27.483  39.695  20.368  0.00  0.00    -0.073 C 
ATOM     66  H4  L04 d          26.898  39.056  21.046  0.00  0.00     0.028 H 
ATOM     67  H5  L04 d          27.334  39.362  19.330  0.00  0.00     0.028 H 
ATOM     68  H6  L04 d          27.149  40.739  20.469  0.00  0.00     0.028 H 
ENDBRANCH  63  65
BRANCH  63  69
ATOM     69  C22 L04 d          29.678  40.906  20.405  0.00  0.00    -0.073 C 
ATOM     70  H24 L04 d          30.103  41.326  21.329  0.00  0.00     0.028 H 
ATOM     71  H25 L04 d          28.964  41.622  19.972  0.00  0.00     0.028 H 
ATOM     72  H26 L04 d          30.486  40.712  19.684  0.00  0.00     0.028 H 
ENDBRANCH  63  69
ENDBRANCH  60  63
ENDBRANCH  43  60
ENDBRANCH  41  43
ENDBRANCH   1  39
BRANCH   1  73
ATOM     73  C8  L04 d          34.803  39.803  21.782  0.00  0.00    -0.050 C 
ATOM     74  H9  L04 d          34.305  40.638  21.267  0.00  0.00     0.034 H 
ATOM     75  H10 L04 d          35.113  39.048  21.044  0.00  0.00     0.034 H 
BRANCH  73  76
ATOM     76  C9  L04 d          36.036  40.335  22.461  0.00  0.00    -0.040 C 
ATOM     77  H11 L04 d          35.769  40.601  23.494  0.00  0.00     0.040 H 
ATOM     78  H12 L04 d          36.361  41.236  21.923  0.00  0.00     0.040 H 
BRANCH  76  79
ATOM     79  C10 L04 d          37.189  39.380  22.510  0.00  0.00    -0.058 A 
ATOM     80  C15 L04 d          37.225  38.364  23.459  0.00  0.00    -0.076 A 
ATOM     81  C14 L04 d          38.273  37.456  23.487  0.00  0.00    -0.072 A 
ATOM     82  H16 L04 d          36.425  38.281  24.185  0.00  0.00     0.084 H 
ATOM     83  C13 L04 d          39.309  37.550  22.565  0.00  0.00    -0.026 A 
ATOM     84  H15 L04 d          38.285  36.668  24.232  0.00  0.00     0.084 H 
ATOM     85  C12 L04 d          39.271  38.570  21.619  0.00  0.00    -0.072 A 
ATOM     86  C11 L04 d          38.225  39.474  21.592  0.00  0.00    -0.076 A 
ATOM     87  H14 L04 d          40.073  38.658  20.894  0.00  0.00     0.084 H 
ATOM     88  H13 L04 d          38.215  40.262  20.848  0.00  0.00     0.084 H 
BRANCH  83  89
ATOM     89  C5  L04 d          40.427  36.594  22.579  0.00  0.00    -0.026 A 
ATOM     90  C43 L04 d          41.651  36.950  23.134  0.00  0.00    -0.069 A 
ATOM     91  C42 L04 d          42.711  36.054  23.142  0.00  0.00    -0.045 A 
ATOM     92  H45 L04 d          41.779  37.937  23.566  0.00  0.00     0.085 H 
ATOM     93  C41 L04 d          42.570  34.786  22.594  0.00  0.00     0.116 A 
ATOM     94  H44 L04 d          43.658  36.346  23.579  0.00  0.00     0.088 H 
ATOM     95  C17 L04 d          41.345  34.420  22.053  0.00  0.00    -0.045 A 
ATOM     96  F1  L04 d          43.612  33.930  22.592  0.00  0.00    -0.206 F 
ATOM     97  C6  L04 d          40.285  35.320  22.039  0.00  0.00    -0.069 A 
ATOM     98  H17 L04 d          41.215  33.426  21.639  0.00  0.00     0.088 H 
ATOM     99  H7  L04 d          39.337  35.025  21.603  0.00  0.00     0.085 H 
ENDBRANCH  83  89
ENDBRANCH  76  79
ENDBRANCH  73  76
ENDBRANCH   1  73
TORSDOF 20
ENDMDL
MODEL 4
REMARK VINA RESULT:     -10.1      3.929      8.590
REMARK  20 active torsions:
REMARK  status: ('A' for Active; 'I' for Inactive)
REMARK    1  A    between atoms: C1_1  and  C23_23 
REMARK    2  A    between atoms: C1_1  and  C2_2 
REMARK    3  A    between atoms: C2_2  and  C18_18 
REMARK    4  A    between atoms: C2_2  and  C3_3 
REMARK    5  A    between atoms: C21_21  and  C4_4 
REMARK    6  A    between atoms: C13_13  and  C5_5 
REMARK    7  A    between atoms: C18_18  and  C7_7 
REMARK    8  A    between atoms: C7_7  and  C16_16 
REMARK    9  A    between atoms: C7_7  and  C8_8 
REMARK   10  A    between atoms: C8_8  and  C9_9 
REMARK   11  A    between atoms: C9_9  and  C10_10 
REMARK       I    between atoms: C16_16  and  N18_45 
REMARK   12  A    between atoms: N18_45  and  C19_19 
REMARK   13  A    between atoms: C19_19  and  C27_27 
REMARK   14  A    between atoms: C19_19  and  C20_20 
REMARK   15  A    between atoms: C20_20  and  C21_21 
REMARK   16  A    between atoms: C21_21  and  C22_22 
REMARK   17  A    between atoms: C23_23  and  C24_24 
REMARK   18  A    between atoms: C24_24  and  C25_25 
REMARK   19  A    between atoms: C25_25  and  N1_44 
REMARK       I    between atoms: C27_27  and  N29_46 
REMARK   20  A    between atoms: N29_46  and  C30_30 
ROOT
ATOM      1  C7  L04 d          38.082  40.021  21.902  0.00  0.00     0.025 C 
ATOM      2  H8  L04 d          37.659  39.710  20.935  0.00  0.00     0.054 H 
ENDROOT
BRANCH   1   3
ATOM      3  C18 L04 d          37.720  38.973  22.953  0.00  0.00    -0.041 C 
ATOM      4  H18 L04 d          38.435  39.070  23.782  0.00  0.00     0.035 H 
ATOM      5  H19 L04 d          36.706  39.197  23.314  0.00  0.00     0.035 H 
BRANCH   3   6
ATOM      6  C2  L04 d          37.737  37.514  22.493  0.00  0.00     0.031 C 
ATOM      7  H3  L04 d          38.345  37.468  21.578  0.00  0.00     0.056 H 
BRANCH   6   8
ATOM      8  C1  L04 d          36.346  36.975  22.127  0.00  0.00    -0.052 C 
ATOM      9  H1  L04 d          36.324  36.787  21.044  0.00  0.00     0.034 H 
ATOM     10  H2  L04 d          36.189  36.030  22.667  0.00  0.00     0.034 H 
BRANCH   8  11
ATOM     11  C23 L04 d          35.202  37.914  22.471  0.00  0.00    -0.063 C 
ATOM     12  H27 L04 d          35.318  38.846  21.899  0.00  0.00     0.033 H 
ATOM     13  H28 L04 d          35.233  38.138  23.547  0.00  0.00     0.033 H 
BRANCH  11  14
ATOM     14  C24 L04 d          33.855  37.289  22.133  0.00  0.00    -0.050 C 
ATOM     15  H29 L04 d          34.017  36.433  21.462  0.00  0.00     0.035 H 
ATOM     16  H30 L04 d          33.231  38.040  21.627  0.00  0.00     0.035 H 
BRANCH  14  17
ATOM     17  C25 L04 d          33.129  36.806  23.381  0.00  0.00    -0.002 C 
ATOM     18  H31 L04 d          32.165  36.372  23.078  0.00  0.00     0.064 H 
ATOM     19  H32 L04 d          32.952  37.669  24.039  0.00  0.00     0.064 H 
BRANCH  17  20
ATOM     20  N1  L04 d          33.878  35.797  24.129  0.00  0.00    -0.344 N 
ATOM     21  C28 L04 d          34.242  34.439  23.706  0.00  0.00     0.023 A 
ATOM     22  C36 L04 d          35.069  33.945  24.892  0.00  0.00    -0.025 A 
ATOM     23  H33 L04 d          34.840  34.455  22.783  0.00  0.00     0.071 H 
ATOM     24  H34 L04 d          33.350  33.815  23.555  0.00  0.00     0.071 H 
ATOM     25  C29 L04 d          35.088  34.952  25.891  0.00  0.00     0.040 A 
ATOM     26  C38 L04 d          35.774  32.753  25.096  0.00  0.00    -0.074 A 
ATOM     27  C26 L04 d          34.306  36.085  25.382  0.00  0.00     0.254 A 
ATOM     28  C37 L04 d          35.810  34.745  27.075  0.00  0.00    -0.067 A 
ATOM     29  O1  L04 d          34.106  37.146  25.980  0.00  0.00    -0.267 OA
ATOM     30  C40 L04 d          36.503  33.557  27.254  0.00  0.00    -0.082 A 
ATOM     31  H40 L04 d          35.828  35.508  27.845  0.00  0.00     0.085 H 
ATOM     32  C39 L04 d          36.485  32.573  26.280  0.00  0.00    -0.082 A 
ATOM     33  H43 L04 d          37.065  33.397  28.167  0.00  0.00     0.083 H 
ATOM     34  H42 L04 d          37.031  31.651  26.441  0.00  0.00     0.083 H 
ATOM     35  H41 L04 d          35.766  31.976  24.341  0.00  0.00     0.084 H 
ENDBRANCH  17  20
ENDBRANCH  14  17
ENDBRANCH  11  14
ENDBRANCH   8  11
ENDBRANCH   6   8
BRANCH   6  36
ATOM     36  C3  L04 d          38.429  36.643  23.548  0.00  0.00     0.177 C 
ATOM     37  O5  L04 d          39.655  36.720  23.819  0.00  0.00    -0.648 OA
ATOM     38  O4  L04 d          37.737  35.799  24.123  0.00  0.00    -0.648 OA
ENDBRANCH   6  36
ENDBRANCH   3   6
ENDBRANCH   1   3
BRANCH   1  39
ATOM     39  C16 L04 d          39.593  40.146  21.769  0.00  0.00     0.222 C 
ATOM     40  O17 L04 d          40.111  41.195  21.379  0.00  0.00    -0.273 OA
ATOM     41  N18 L04 d          40.294  39.065  22.095  0.00  0.00    -0.347 N 
ATOM     42  H46 L04 d          39.817  38.252  22.427  0.00  0.00     0.163 HD
BRANCH  41  43
ATOM     43  C19 L04 d          41.745  39.045  21.978  0.00  0.00     0.090 C 
ATOM     44  H20 L04 d          42.072  39.840  21.291  0.00  0.00     0.087 H 
BRANCH  43  45
ATOM     45  C27 L04 d          42.138  37.683  21.417  0.00  0.00     0.245 C 
ATOM     46  O28 L04 d          42.563  37.585  20.263  0.00  0.00    -0.271 OA
ATOM     47  N29 L04 d          42.059  36.658  22.267  0.00  0.00    -0.325 N 
ATOM     48  H47 L04 d          41.757  36.884  23.193  0.00  0.00     0.169 HD
BRANCH  47  49
ATOM     49  C30 L04 d          42.339  35.325  22.035  0.00  0.00     0.034 A 
ATOM     50  C35 L04 d          41.435  34.433  21.461  0.00  0.00    -0.057 A 
ATOM     51  C34 L04 d          41.778  33.097  21.263  0.00  0.00    -0.081 A 
ATOM     52  H39 L04 d          40.453  34.782  21.164  0.00  0.00     0.086 H 
ATOM     53  C33 L04 d          43.040  32.641  21.641  0.00  0.00    -0.083 A 
ATOM     54  H38 L04 d          41.064  32.414  20.817  0.00  0.00     0.083 H 
ATOM     55  C32 L04 d          43.949  33.522  22.215  0.00  0.00    -0.081 A 
ATOM     56  H37 L04 d          43.312  31.603  21.487  0.00  0.00     0.083 H 
ATOM     57  C31 L04 d          43.597  34.855  22.408  0.00  0.00    -0.057 A 
ATOM     58  H36 L04 d          44.931  33.172  22.513  0.00  0.00     0.083 H 
ATOM     59  H35 L04 d          44.312  35.537  22.854  0.00  0.00     0.086 H 
ENDBRANCH  47  49
ENDBRANCH  43  45
BRANCH  43  60
ATOM     60  C20 L04 d          42.407  39.255  23.341  0.00  0.00    -0.035 C 
ATOM     61  H21 L04 d          42.750  38.270  23.691  0.00  0.00     0.037 H 
ATOM     62  H22 L04 d          41.634  39.639  24.022  0.00  0.00     0.037 H 
BRANCH  60  63
ATOM     63  C21 L04 d          43.603  40.207  23.430  0.00  0.00    -0.059 C 
ATOM     64  H23 L04 d          43.479  40.859  24.307  0.00  0.00     0.038 H 
BRANCH  63  65
ATOM     65  C4  L04 d          44.862  39.376  23.600  0.00  0.00    -0.073 C 
ATOM     66  H4  L04 d          45.118  38.897  22.643  0.00  0.00     0.028 H 
ATOM     67  H5  L04 d          44.692  38.603  24.363  0.00  0.00     0.028 H 
ATOM     68  H6  L04 d          45.692  40.027  23.917  0.00  0.00     0.028 H 
ENDBRANCH  63  65
BRANCH  63  69
ATOM     69  C22 L04 d          43.697  41.082  22.181  0.00  0.00    -0.073 C 
ATOM     70  H24 L04 d          43.157  40.600  21.353  0.00  0.00     0.028 H 
ATOM     71  H25 L04 d          44.753  41.213  21.903  0.00  0.00     0.028 H 
ATOM     72  H26 L04 d          43.248  42.066  22.388  0.00  0.00     0.028 H 
ENDBRANCH  63  69
ENDBRANCH  60  63
ENDBRANCH  43  60
ENDBRANCH  41  43
ENDBRANCH   1  39
BRANCH   1  73
ATOM     73  C8  L04 d          37.514  41.394  22.275  0.00  0.00    -0.050 C 
ATOM     74  H9  L04 d          36.884  41.746  21.444  0.00  0.00     0.034 H 
ATOM     75  H10 L04 d          38.355  42.089  22.417  0.00  0.00     0.034 H 
BRANCH  73  76
ATOM     76  C9  L04 d          36.684  41.393  23.530  0.00  0.00    -0.040 C 
ATOM     77  H11 L04 d          36.819  42.363  24.030  0.00  0.00     0.040 H 
ATOM     78  H12 L04 d          37.054  40.590  24.184  0.00  0.00     0.040 H 
BRANCH  76  79
ATOM     79  C10 L04 d          35.218  41.180  23.315  0.00  0.00    -0.058 A 
ATOM     80  C15 L04 d          34.654  41.371  22.058  0.00  0.00    -0.076 A 
ATOM     81  C14 L04 d          33.302  41.142  21.844  0.00  0.00    -0.072 A 
ATOM     82  H16 L04 d          35.277  41.702  21.236  0.00  0.00     0.084 H 
ATOM     83  C13 L04 d          32.488  40.720  22.889  0.00  0.00    -0.026 A 
ATOM     84  H15 L04 d          32.879  41.293  20.858  0.00  0.00     0.084 H 
ATOM     85  C12 L04 d          33.055  40.534  24.146  0.00  0.00    -0.072 A 
ATOM     86  C11 L04 d          34.402  40.762  24.356  0.00  0.00    -0.076 A 
ATOM     87  H14 L04 d          32.432  40.207  24.971  0.00  0.00     0.084 H 
ATOM     88  H13 L04 d          34.825  40.612  25.344  0.00  0.00     0.084 H 
BRANCH  83  89
ATOM     89  C5  L04 d          31.053  40.471  22.679  0.00  0.00    -0.026 A 
ATOM     90  C43 L04 d          30.195  40.339  23.765  0.00  0.00    -0.069 A 
ATOM     91  C42 L04 d          28.842  40.095  23.570  0.00  0.00    -0.045 A 
ATOM     92  H45 L04 d          30.586  40.427  24.773  0.00  0.00     0.085 H 
ATOM     93  C41 L04 d          28.321  39.977  22.290  0.00  0.00     0.116 A 
ATOM     94  H44 L04 d          28.187  39.996  24.428  0.00  0.00     0.088 H 
ATOM     95  C17 L04 d          29.170  40.124  21.202  0.00  0.00    -0.045 A 
ATOM     96  F1  L04 d          27.008  39.724  22.114  0.00  0.00    -0.206 F 
ATOM     97  C6  L04 d          30.527  40.362  21.396  0.00  0.00    -0.069 A 
ATOM     98  H17 L04 d          28.773  40.053  20.195  0.00  0.00     0.088 H 
ATOM     99  H7  L04 d          31.181  40.463  20.537  0.00  0.00     0.085 H 
ENDBRANCH  83  89
ENDBRANCH  76  79
ENDBRANCH  73  76
ENDBRANCH   1  73
TORSDOF 20
ENDMDL
MODEL 5
REMARK VINA RESULT:      -9.9      3.221      9.639
REMARK  20 active torsions:
REMARK  status: ('A' for Active; 'I' for Inactive)
REMARK    1  A    between atoms: C1_1  and  C23_23 
REMARK    2  A    between atoms: C1_1  and  C2_2 
REMARK    3  A    between atoms: C2_2  and  C18_18 
REMARK    4  A    between atoms: C2_2  and  C3_3 
REMARK    5  A    between atoms: C21_21  and  C4_4 
REMARK    6  A    between atoms: C13_13  and  C5_5 
REMARK    7  A    between atoms: C18_18  and  C7_7 
REMARK    8  A    between atoms: C7_7  and  C16_16 
REMARK    9  A    between atoms: C7_7  and  C8_8 
REMARK   10  A    between atoms: C8_8  and  C9_9 
REMARK   11  A    between atoms: C9_9  and  C10_10 
REMARK       I    between atoms: C16_16  and  N18_45 
REMARK   12  A    between atoms: N18_45  and  C19_19 
REMARK   13  A    between atoms: C19_19  and  C27_27 
REMARK   14  A    between atoms: C19_19  and  C20_20 
REMARK   15  A    between atoms: C20_20  and  C21_21 
REMARK   16  A    between atoms: C21_21  and  C22_22 
REMARK   17  A    between atoms: C23_23  and  C24_24 
REMARK   18  A    between atoms: C24_24  and  C25_25 
REMARK   19  A    between atoms: C25_25  and  N1_44 
REMARK       I    between atoms: C27_27  and  N29_46 
REMARK   20  A    between atoms: N29_46  and  C30_30 
ROOT
ATOM      1  C7  L04 d          34.728  38.621  22.001  0.00  0.00     0.025 C 
ATOM      2  H8  L04 d          35.631  38.696  21.376  0.00  0.00     0.054 H 
ENDROOT
BRANCH   1   3
ATOM      3  C18 L04 d          35.103  38.959  23.443  0.00  0.00    -0.041 C 
ATOM      4  H18 L04 d          34.289  38.605  24.092  0.00  0.00     0.035 H 
ATOM      5  H19 L04 d          36.027  38.414  23.685  0.00  0.00     0.035 H 
BRANCH   3   6
ATOM      6  C2  L04 d          35.340  40.437  23.757  0.00  0.00     0.031 C 
ATOM      7  H3  L04 d          35.094  41.006  22.848  0.00  0.00     0.056 H 
BRANCH   6   8
ATOM      8  C1  L04 d          36.801  40.759  24.100  0.00  0.00    -0.052 C 
ATOM      9  H1  L04 d          36.814  41.370  25.015  0.00  0.00     0.034 H 
ATOM     10  H2  L04 d          37.329  39.812  24.284  0.00  0.00     0.034 H 
BRANCH   8  11
ATOM     11  C23 L04 d          37.547  41.516  23.013  0.00  0.00    -0.063 C 
ATOM     12  H27 L04 d          38.488  41.906  23.429  0.00  0.00     0.033 H 
ATOM     13  H28 L04 d          36.923  42.352  22.667  0.00  0.00     0.033 H 
BRANCH  11  14
ATOM     14  C24 L04 d          37.865  40.611  21.830  0.00  0.00    -0.050 C 
ATOM     15  H29 L04 d          37.393  41.026  20.927  0.00  0.00     0.035 H 
ATOM     16  H30 L04 d          37.459  39.609  22.030  0.00  0.00     0.035 H 
BRANCH  14  17
ATOM     17  C25 L04 d          39.364  40.498  21.594  0.00  0.00    -0.002 C 
ATOM     18  H31 L04 d          39.884  41.084  22.366  0.00  0.00     0.064 H 
ATOM     19  H32 L04 d          39.594  40.911  20.602  0.00  0.00     0.064 H 
BRANCH  17  20
ATOM     20  N1  L04 d          39.854  39.121  21.649  0.00  0.00    -0.344 N 
ATOM     21  C28 L04 d          39.741  38.161  22.754  0.00  0.00     0.023 A 
ATOM     22  C36 L04 d          40.374  36.906  22.155  0.00  0.00    -0.025 A 
ATOM     23  H33 L04 d          38.690  37.987  23.026  0.00  0.00     0.071 H 
ATOM     24  H34 L04 d          40.297  38.504  23.639  0.00  0.00     0.071 H 
ATOM     25  C29 L04 d          40.838  37.204  20.848  0.00  0.00     0.040 A 
ATOM     26  C38 L04 d          40.518  35.609  22.663  0.00  0.00    -0.074 A 
ATOM     27  C26 L04 d          40.516  38.611  20.582  0.00  0.00     0.254 A 
ATOM     28  C37 L04 d          41.438  36.199  20.076  0.00  0.00    -0.067 A 
ATOM     29  O1  L04 d          40.767  39.220  19.539  0.00  0.00    -0.267 OA
ATOM     30  C40 L04 d          41.567  34.921  20.600  0.00  0.00    -0.082 A 
ATOM     31  H40 L04 d          41.797  36.418  19.077  0.00  0.00     0.085 H 
ATOM     32  C39 L04 d          41.115  34.629  21.875  0.00  0.00    -0.082 A 
ATOM     33  H43 L04 d          42.026  34.142  20.002  0.00  0.00     0.083 H 
ATOM     34  H42 L04 d          41.228  33.624  22.266  0.00  0.00     0.083 H 
ATOM     35  H41 L04 d          40.168  35.370  23.660  0.00  0.00     0.084 H 
ENDBRANCH  17  20
ENDBRANCH  14  17
ENDBRANCH  11  14
ENDBRANCH   8  11
ENDBRANCH   6   8
BRANCH   6  36
ATOM     36  C3  L04 d          34.378  40.896  24.859  0.00  0.00     0.177 C 
ATOM     37  O5  L04 d          33.153  41.114  24.669  0.00  0.00    -0.648 OA
ATOM     38  O4  L04 d          34.859  41.096  25.978  0.00  0.00    -0.648 OA
ENDBRANCH   6  36
ENDBRANCH   3   6
ENDBRANCH   1   3
BRANCH   1  39
ATOM     39  C16 L04 d          33.679  39.594  21.480  0.00  0.00     0.222 C 
ATOM     40  O17 L04 d          34.000  40.711  21.068  0.00  0.00    -0.273 OA
ATOM     41  N18 L04 d          32.423  39.160  21.504  0.00  0.00    -0.347 N 
ATOM     42  H46 L04 d          32.231  38.234  21.828  0.00  0.00     0.163 HD
BRANCH  41  43
ATOM     43  C19 L04 d          31.324  40.008  21.066  0.00  0.00     0.090 C 
ATOM     44  H20 L04 d          31.724  40.894  20.550  0.00  0.00     0.087 H 
BRANCH  43  45
ATOM     45  C27 L04 d          30.555  40.436  22.311  0.00  0.00     0.245 C 
ATOM     46  O28 L04 d          30.466  41.631  22.605  0.00  0.00    -0.271 OA
ATOM     47  N29 L04 d          29.949  39.459  22.986  0.00  0.00    -0.325 N 
ATOM     48  H47 L04 d          30.050  38.540  22.605  0.00  0.00     0.169 HD
BRANCH  47  49
ATOM     49  C30 L04 d          29.198  39.551  24.142  0.00  0.00     0.034 A 
ATOM     50  C35 L04 d          27.808  39.447  24.173  0.00  0.00    -0.057 A 
ATOM     51  C34 L04 d          27.111  39.559  25.373  0.00  0.00    -0.081 A 
ATOM     52  H39 L04 d          27.264  39.278  23.252  0.00  0.00     0.086 H 
ATOM     53  C33 L04 d          27.805  39.774  26.563  0.00  0.00    -0.083 A 
ATOM     54  H38 L04 d          26.029  39.478  25.383  0.00  0.00     0.083 H 
ATOM     55  C32 L04 d          29.192  39.880  26.544  0.00  0.00    -0.081 A 
ATOM     56  H37 L04 d          27.266  39.860  27.500  0.00  0.00     0.083 H 
ATOM     57  C31 L04 d          29.879  39.767  25.339  0.00  0.00    -0.057 A 
ATOM     58  H36 L04 d          29.736  40.051  27.465  0.00  0.00     0.083 H 
ATOM     59  H35 L04 d          30.960  39.848  25.331  0.00  0.00     0.086 H 
ENDBRANCH  47  49
ENDBRANCH  43  45
BRANCH  43  60
ATOM     60  C20 L04 d          30.393  39.251  20.117  0.00  0.00    -0.035 C 
ATOM     61  H21 L04 d          29.865  38.494  20.715  0.00  0.00     0.037 H 
ATOM     62  H22 L04 d          31.027  38.751  19.369  0.00  0.00     0.037 H 
BRANCH  60  63
ATOM     63  C21 L04 d          29.332  40.045  19.351  0.00  0.00    -0.059 C 
ATOM     64  H23 L04 d          29.536  41.120  19.464  0.00  0.00     0.038 H 
BRANCH  63  65
ATOM     65  C4  L04 d          29.425  39.672  17.882  0.00  0.00    -0.073 C 
ATOM     66  H4  L04 d          28.524  39.114  17.587  0.00  0.00     0.028 H 
ATOM     67  H5  L04 d          30.314  39.045  17.718  0.00  0.00     0.028 H 
ATOM     68  H6  L04 d          29.504  40.587  17.275  0.00  0.00     0.028 H 
ENDBRANCH  63  65
BRANCH  63  69
ATOM     69  C22 L04 d          27.934  39.753  19.896  0.00  0.00    -0.073 C 
ATOM     70  H24 L04 d          27.968  38.853  20.529  0.00  0.00     0.028 H 
ATOM     71  H25 L04 d          27.241  39.586  19.058  0.00  0.00     0.028 H 
ATOM     72  H26 L04 d          27.587  40.609  20.494  0.00  0.00     0.028 H 
ENDBRANCH  63  69
ENDBRANCH  60  63
ENDBRANCH  43  60
ENDBRANCH  41  43
ENDBRANCH   1  39
BRANCH   1  73
ATOM     73  C8  L04 d          34.165  37.201  21.896  0.00  0.00    -0.050 C 
ATOM     74  H9  L04 d          35.009  36.498  21.822  0.00  0.00     0.034 H 
ATOM     75  H10 L04 d          33.554  37.138  20.983  0.00  0.00     0.034 H 
BRANCH  73  76
ATOM     76  C9  L04 d          33.310  36.793  23.066  0.00  0.00    -0.040 C 
ATOM     77  H11 L04 d          32.446  36.234  22.679  0.00  0.00     0.040 H 
ATOM     78  H12 L04 d          32.961  37.706  23.569  0.00  0.00     0.040 H 
BRANCH  76  79
ATOM     79  C10 L04 d          34.002  35.936  24.081  0.00  0.00    -0.058 A 
ATOM     80  C15 L04 d          34.473  34.675  23.738  0.00  0.00    -0.076 A 
ATOM     81  C14 L04 d          35.145  33.891  24.665  0.00  0.00    -0.072 A 
ATOM     82  H16 L04 d          34.314  34.299  22.734  0.00  0.00     0.084 H 
ATOM     83  C13 L04 d          35.354  34.356  25.957  0.00  0.00    -0.026 A 
ATOM     84  H15 L04 d          35.508  32.910  24.379  0.00  0.00     0.084 H 
ATOM     85  C12 L04 d          34.877  35.618  26.299  0.00  0.00    -0.072 A 
ATOM     86  C11 L04 d          34.210  36.398  25.373  0.00  0.00    -0.076 A 
ATOM     87  H14 L04 d          35.032  35.994  27.304  0.00  0.00     0.084 H 
ATOM     88  H13 L04 d          33.845  37.378  25.660  0.00  0.00     0.084 H 
BRANCH  83  89
ATOM     89  C5  L04 d          36.066  33.539  26.952  0.00  0.00    -0.026 A 
ATOM     90  C43 L04 d          36.848  34.142  27.930  0.00  0.00    -0.069 A 
ATOM     91  C42 L04 d          37.528  33.373  28.865  0.00  0.00    -0.045 A 
ATOM     92  H45 L04 d          36.928  35.223  27.963  0.00  0.00     0.085 H 
ATOM     93  C41 L04 d          37.441  31.989  28.840  0.00  0.00     0.116 A 
ATOM     94  H44 L04 d          38.133  33.859  29.621  0.00  0.00     0.088 H 
ATOM     95  C17 L04 d          36.649  31.381  27.876  0.00  0.00    -0.045 A 
ATOM     96  F1  L04 d          38.120  31.252  29.744  0.00  0.00    -0.206 F 
ATOM     97  C6  L04 d          35.973  32.150  26.935  0.00  0.00    -0.069 A 
ATOM     98  H17 L04 d          36.557  30.301  27.857  0.00  0.00     0.088 H 
ATOM     99  H7  L04 d          35.367  31.663  26.180  0.00  0.00     0.085 H 
ENDBRANCH  83  89
ENDBRANCH  76  79
ENDBRANCH  73  76
ENDBRANCH   1  73
TORSDOF 20
ENDMDL
MODEL 6
REMARK VINA RESULT:      -9.8      1.363      3.571
REMARK  20 active torsions:
REMARK  status: ('A' for Active; 'I' for Inactive)
REMARK    1  A    between atoms: C1_1  and  C23_23 
REMARK    2  A    between atoms: C1_1  and  C2_2 
REMARK    3  A    between atoms: C2_2  and  C18_18 
REMARK    4  A    between atoms: C2_2  and  C3_3 
REMARK    5  A    between atoms: C21_21  and  C4_4 
REMARK    6  A    between atoms: C13_13  and  C5_5 
REMARK    7  A    between atoms: C18_18  and  C7_7 
REMARK    8  A    between atoms: C7_7  and  C16_16 
REMARK    9  A    between atoms: C7_7  and  C8_8 
REMARK   10  A    between atoms: C8_8  and  C9_9 
REMARK   11  A    between atoms: C9_9  and  C10_10 
REMARK       I    between atoms: C16_16  and  N18_45 
REMARK   12  A    between atoms: N18_45  and  C19_19 
REMARK   13  A    between atoms: C19_19  and  C27_27 
REMARK   14  A    between atoms: C19_19  and  C20_20 
REMARK   15  A    between atoms: C20_20  and  C21_21 
REMARK   16  A    between atoms: C21_21  and  C22_22 
REMARK   17  A    between atoms: C23_23  and  C24_24 
REMARK   18  A    between atoms: C24_24  and  C25_25 
REMARK   19  A    between atoms: C25_25  and  N1_44 
REMARK       I    between atoms: C27_27  and  N29_46 
REMARK   20  A    between atoms: N29_46  and  C30_30 
ROOT
ATOM      1  C7  L04 d          32.521  37.317  24.090  0.00  0.00     0.025 C 
ATOM      2  H8  L04 d          32.005  36.474  23.607  0.00  0.00     0.054 H 
ENDROOT
BRANCH   1   3
ATOM      3  C18 L04 d          31.592  37.920  25.142  0.00  0.00    -0.041 C 
ATOM      4  H18 L04 d          31.456  37.172  25.936  0.00  0.00     0.035 H 
ATOM      5  H19 L04 d          32.090  38.809  25.557  0.00  0.00     0.035 H 
BRANCH   3   6
ATOM      6  C2  L04 d          30.204  38.346  24.661  0.00  0.00     0.031 C 
ATOM      7  H3  L04 d          30.336  38.848  23.692  0.00  0.00     0.056 H 
BRANCH   6   8
ATOM      8  C1  L04 d          29.521  39.357  25.594  0.00  0.00    -0.052 C 
ATOM      9  H1  L04 d          28.489  39.021  25.770  0.00  0.00     0.034 H 
ATOM     10  H2  L04 d          30.070  39.371  26.548  0.00  0.00     0.034 H 
BRANCH   8  11
ATOM     11  C23 L04 d          29.473  40.775  25.052  0.00  0.00    -0.063 C 
ATOM     12  H27 L04 d          30.118  41.418  25.670  0.00  0.00     0.033 H 
ATOM     13  H28 L04 d          28.437  41.142  25.098  0.00  0.00     0.033 H 
BRANCH  11  14
ATOM     14  C24 L04 d          29.955  40.831  23.608  0.00  0.00    -0.050 C 
ATOM     15  H29 L04 d          30.852  40.202  23.507  0.00  0.00     0.035 H 
ATOM     16  H30 L04 d          30.206  41.872  23.357  0.00  0.00     0.035 H 
BRANCH  14  17
ATOM     17  C25 L04 d          28.892  40.333  22.640  0.00  0.00    -0.002 C 
ATOM     18  H31 L04 d          27.994  40.957  22.755  0.00  0.00     0.064 H 
ATOM     19  H32 L04 d          28.648  39.290  22.893  0.00  0.00     0.064 H 
BRANCH  17  20
ATOM     20  N1  L04 d          29.316  40.384  21.242  0.00  0.00    -0.344 N 
ATOM     21  C28 L04 d          30.491  41.057  20.674  0.00  0.00     0.023 A 
ATOM     22  C36 L04 d          30.402  40.668  19.199  0.00  0.00    -0.025 A 
ATOM     23  H33 L04 d          31.422  40.687  21.129  0.00  0.00     0.071 H 
ATOM     24  H34 L04 d          30.428  42.147  20.803  0.00  0.00     0.071 H 
ATOM     25  C29 L04 d          29.231  39.894  18.997  0.00  0.00     0.040 A 
ATOM     26  C38 L04 d          31.259  40.923  18.121  0.00  0.00    -0.074 A 
ATOM     27  C26 L04 d          28.566  39.763  20.299  0.00  0.00     0.254 A 
ATOM     28  C37 L04 d          28.940  39.391  17.721  0.00  0.00    -0.067 A 
ATOM     29  O1  L04 d          27.515  39.151  20.510  0.00  0.00    -0.267 OA
ATOM     30  C40 L04 d          29.805  39.655  16.670  0.00  0.00    -0.082 A 
ATOM     31  H40 L04 d          28.046  38.801  17.557  0.00  0.00     0.085 H 
ATOM     32  C39 L04 d          30.948  40.411  16.865  0.00  0.00    -0.082 A 
ATOM     33  H43 L04 d          29.584  39.264  15.683  0.00  0.00     0.083 H 
ATOM     34  H42 L04 d          31.610  40.607  16.029  0.00  0.00     0.083 H 
ATOM     35  H41 L04 d          32.156  41.514  18.264  0.00  0.00     0.084 H 
ENDBRANCH  17  20
ENDBRANCH  14  17
ENDBRANCH  11  14
ENDBRANCH   8  11
ENDBRANCH   6   8
BRANCH   6  36
ATOM     36  C3  L04 d          29.332  37.108  24.423  0.00  0.00     0.177 C 
ATOM     37  O5  L04 d          28.106  37.162  24.147  0.00  0.00    -0.648 OA
ATOM     38  O4  L04 d          29.873  36.006  24.552  0.00  0.00    -0.648 OA
ENDBRANCH   6  36
ENDBRANCH   3   6
ENDBRANCH   1   3
BRANCH   1  39
ATOM     39  C16 L04 d          33.804  36.812  24.735  0.00  0.00     0.222 C 
ATOM     40  O17 L04 d          34.029  37.003  25.933  0.00  0.00    -0.273 OA
ATOM     41  N18 L04 d          34.643  36.167  23.931  0.00  0.00    -0.347 N 
ATOM     42  H46 L04 d          34.392  36.023  22.974  0.00  0.00     0.163 HD
BRANCH  41  43
ATOM     43  C19 L04 d          35.919  35.666  24.419  0.00  0.00     0.090 C 
ATOM     44  H20 L04 d          36.158  36.138  25.384  0.00  0.00     0.087 H 
BRANCH  43  45
ATOM     45  C27 L04 d          36.979  36.034  23.387  0.00  0.00     0.245 C 
ATOM     46  O28 L04 d          36.650  36.308  22.229  0.00  0.00    -0.271 OA
ATOM     47  N29 L04 d          38.232  36.107  23.838  0.00  0.00    -0.325 N 
ATOM     48  H47 L04 d          38.354  35.921  24.813  0.00  0.00     0.169 HD
BRANCH  47  49
ATOM     49  C30 L04 d          39.383  36.406  23.134  0.00  0.00     0.034 A 
ATOM     50  C35 L04 d          39.792  35.719  21.992  0.00  0.00    -0.057 A 
ATOM     51  C34 L04 d          40.970  36.065  21.335  0.00  0.00    -0.081 A 
ATOM     52  H39 L04 d          39.186  34.906  21.611  0.00  0.00     0.086 H 
ATOM     53  C33 L04 d          41.754  37.112  21.819  0.00  0.00    -0.083 A 
ATOM     54  H38 L04 d          41.277  35.521  20.448  0.00  0.00     0.083 H 
ATOM     55  C32 L04 d          41.356  37.803  22.958  0.00  0.00    -0.081 A 
ATOM     56  H37 L04 d          42.671  37.385  21.309  0.00  0.00     0.083 H 
ATOM     57  C31 L04 d          40.177  37.449  23.607  0.00  0.00    -0.057 A 
ATOM     58  H36 L04 d          41.963  38.615  23.339  0.00  0.00     0.083 H 
ATOM     59  H35 L04 d          39.871  37.994  24.493  0.00  0.00     0.086 H 
ENDBRANCH  47  49
ENDBRANCH  43  45
BRANCH  43  60
ATOM     60  C20 L04 d          35.878  34.147  24.600  0.00  0.00    -0.035 C 
ATOM     61  H21 L04 d          36.543  33.711  23.840  0.00  0.00     0.037 H 
ATOM     62  H22 L04 d          34.843  33.825  24.412  0.00  0.00     0.037 H 
BRANCH  60  63
ATOM     63  C21 L04 d          36.295  33.564  25.953  0.00  0.00    -0.059 C 
ATOM     64  H23 L04 d          37.280  33.087  25.851  0.00  0.00     0.038 H 
BRANCH  63  65
ATOM     65  C4  L04 d          36.393  34.703  26.953  0.00  0.00    -0.073 C 
ATOM     66  H4  L04 d          35.511  34.691  27.610  0.00  0.00     0.028 H 
ATOM     67  H5  L04 d          36.437  35.661  26.415  0.00  0.00     0.028 H 
ATOM     68  H6  L04 d          37.304  34.581  27.559  0.00  0.00     0.028 H 
ENDBRANCH  63  65
BRANCH  63  69
ATOM     69  C22 L04 d          35.290  32.514  26.426  0.00  0.00    -0.073 C 
ATOM     70  H24 L04 d          35.337  32.429  27.522  0.00  0.00     0.028 H 
ATOM     71  H25 L04 d          35.535  31.542  25.973  0.00  0.00     0.028 H 
ATOM     72  H26 L04 d          34.276  32.815  26.124  0.00  0.00     0.028 H 
ENDBRANCH  63  69
ENDBRANCH  60  63
ENDBRANCH  43  60
ENDBRANCH  41  43
ENDBRANCH   1  39
BRANCH   1  73
ATOM     73  C8  L04 d          32.892  38.352  23.023  0.00  0.00    -0.050 C 
ATOM     74  H9  L04 d          31.965  38.701  22.543  0.00  0.00     0.034 H 
ATOM     75  H10 L04 d          33.532  37.862  22.274  0.00  0.00     0.034 H 
BRANCH  73  76
ATOM     76  C9  L04 d          33.626  39.551  23.562  0.00  0.00    -0.040 C 
ATOM     77  H11 L04 d          33.711  39.437  24.652  0.00  0.00     0.040 H 
ATOM     78  H12 L04 d          33.031  40.447  23.332  0.00  0.00     0.040 H 
BRANCH  76  79
ATOM     79  C10 L04 d          35.001  39.748  23.005  0.00  0.00    -0.058 A 
ATOM     80  C15 L04 d          36.048  40.142  23.831  0.00  0.00    -0.076 A 
ATOM     81  C14 L04 d          37.332  40.294  23.327  0.00  0.00    -0.072 A 
ATOM     82  H16 L04 d          35.859  40.333  24.881  0.00  0.00     0.084 H 
ATOM     83  C13 L04 d          37.591  40.056  21.983  0.00  0.00    -0.026 A 
ATOM     84  H15 L04 d          38.137  40.598  23.986  0.00  0.00     0.084 H 
ATOM     85  C12 L04 d          36.540  39.666  21.158  0.00  0.00    -0.072 A 
ATOM     86  C11 L04 d          35.262  39.514  21.662  0.00  0.00    -0.076 A 
ATOM     87  H14 L04 d          36.727  39.479  20.106  0.00  0.00     0.084 H 
ATOM     88  H13 L04 d          34.457  39.211  21.002  0.00  0.00     0.084 H 
BRANCH  83  89
ATOM     89  C5  L04 d          38.947  40.210  21.433  0.00  0.00    -0.026 A 
ATOM     90  C43 L04 d          39.321  39.529  20.281  0.00  0.00    -0.069 A 
ATOM     91  C42 L04 d          40.603  39.665  19.764  0.00  0.00    -0.045 A 
ATOM     92  H45 L04 d          38.606  38.884  19.781  0.00  0.00     0.085 H 
ATOM     93  C41 L04 d          41.534  40.483  20.388  0.00  0.00     0.116 A 
ATOM     94  H44 L04 d          40.878  39.127  18.865  0.00  0.00     0.088 H 
ATOM     95  C17 L04 d          41.161  41.179  21.529  0.00  0.00    -0.045 A 
ATOM     96  F1  L04 d          42.781  40.595  19.886  0.00  0.00    -0.206 F 
ATOM     97  C6  L04 d          39.879  41.037  22.052  0.00  0.00    -0.069 A 
ATOM     98  H17 L04 d          41.872  41.836  22.017  0.00  0.00     0.088 H 
ATOM     99  H7  L04 d          39.604  41.577  22.951  0.00  0.00     0.085 H 
ENDBRANCH  83  89
ENDBRANCH  76  79
ENDBRANCH  73  76
ENDBRANCH   1  73
TORSDOF 20
ENDMDL
MODEL 7
REMARK VINA RESULT:      -9.8      3.110      9.859
REMARK  20 active torsions:
REMARK  status: ('A' for Active; 'I' for Inactive)
REMARK    1  A    between atoms: C1_1  and  C23_23 
REMARK    2  A    between atoms: C1_1  and  C2_2 
REMARK    3  A    between atoms: C2_2  and  C18_18 
REMARK    4  A    between atoms: C2_2  and  C3_3 
REMARK    5  A    between atoms: C21_21  and  C4_4 
REMARK    6  A    between atoms: C13_13  and  C5_5 
REMARK    7  A    between atoms: C18_18  and  C7_7 
REMARK    8  A    between atoms: C7_7  and  C16_16 
REMARK    9  A    between atoms: C7_7  and  C8_8 
REMARK   10  A    between atoms: C8_8  and  C9_9 
REMARK   11  A    between atoms: C9_9  and  C10_10 
REMARK       I    between atoms: C16_16  and  N18_45 
REMARK   12  A    between atoms: N18_45  and  C19_19 
REMARK   13  A    between atoms: C19_19  and  C27_27 
REMARK   14  A    between atoms: C19_19  and  C20_20 
REMARK   15  A    between atoms: C20_20  and  C21_21 
REMARK   16  A    between atoms: C21_21  and  C22_22 
REMARK   17  A    between atoms: C23_23  and  C24_24 
REMARK   18  A    between atoms: C24_24  and  C25_25 
REMARK   19  A    between atoms: C25_25  and  N1_44 
REMARK       I    between atoms: C27_27  and  N29_46 
REMARK   20  A    between atoms: N29_46  and  C30_30 
ROOT
ATOM      1  C7  L04 d          34.258  38.315  22.341  0.00  0.00     0.025 C 
ATOM      2  H8  L04 d          34.873  38.852  21.603  0.00  0.00     0.054 H 
ENDROOT
BRANCH   1   3
ATOM      3  C18 L04 d          34.643  38.797  23.739  0.00  0.00    -0.041 C 
ATOM      4  H18 L04 d          33.765  38.673  24.389  0.00  0.00     0.035 H 
ATOM      5  H19 L04 d          35.460  38.155  24.101  0.00  0.00     0.035 H 
BRANCH   3   6
ATOM      6  C2  L04 d          35.108  40.250  23.856  0.00  0.00     0.031 C 
ATOM      7  H3  L04 d          34.942  40.723  22.877  0.00  0.00     0.056 H 
BRANCH   6   8
ATOM      8  C1  L04 d          36.606  40.386  24.166  0.00  0.00    -0.052 C 
ATOM      9  H1  L04 d          36.715  40.989  25.078  0.00  0.00     0.034 H 
ATOM     10  H2  L04 d          37.015  39.379  24.341  0.00  0.00     0.034 H 
BRANCH   8  11
ATOM     11  C23 L04 d          37.416  41.042  23.061  0.00  0.00    -0.063 C 
ATOM     12  H27 L04 d          38.449  41.186  23.410  0.00  0.00     0.033 H 
ATOM     13  H28 L04 d          36.971  42.019  22.822  0.00  0.00     0.033 H 
BRANCH  11  14
ATOM     14  C24 L04 d          37.432  40.184  21.803  0.00  0.00    -0.050 C 
ATOM     15  H29 L04 d          38.052  40.680  21.041  0.00  0.00     0.035 H 
ATOM     16  H30 L04 d          36.403  40.080  21.430  0.00  0.00     0.035 H 
BRANCH  14  17
ATOM     17  C25 L04 d          38.000  38.798  22.074  0.00  0.00    -0.002 C 
ATOM     18  H31 L04 d          37.853  38.179  21.177  0.00  0.00     0.064 H 
ATOM     19  H32 L04 d          37.453  38.355  22.919  0.00  0.00     0.064 H 
BRANCH  17  20
ATOM     20  N1  L04 d          39.425  38.813  22.400  0.00  0.00    -0.344 N 
ATOM     21  C28 L04 d          40.453  39.753  21.935  0.00  0.00     0.023 A 
ATOM     22  C36 L04 d          41.692  39.273  22.689  0.00  0.00    -0.025 A 
ATOM     23  H33 L04 d          40.198  40.788  22.206  0.00  0.00     0.071 H 
ATOM     24  H34 L04 d          40.596  39.683  20.847  0.00  0.00     0.071 H 
ATOM     25  C29 L04 d          41.352  38.125  23.450  0.00  0.00     0.040 A 
ATOM     26  C38 L04 d          42.995  39.783  22.750  0.00  0.00    -0.074 A 
ATOM     27  C26 L04 d          39.927  37.856  23.218  0.00  0.00     0.254 A 
ATOM     28  C37 L04 d          42.321  37.511  24.256  0.00  0.00    -0.067 A 
ATOM     29  O1  L04 d          39.280  36.933  23.720  0.00  0.00    -0.267 OA
ATOM     30  C40 L04 d          43.603  38.036  24.301  0.00  0.00    -0.082 A 
ATOM     31  H40 L04 d          42.070  36.632  24.839  0.00  0.00     0.085 H 
ATOM     32  C39 L04 d          43.938  39.155  23.558  0.00  0.00    -0.082 A 
ATOM     33  H43 L04 d          44.353  37.565  24.927  0.00  0.00     0.083 H 
ATOM     34  H42 L04 d          44.947  39.548  23.607  0.00  0.00     0.083 H 
ATOM     35  H41 L04 d          43.266  40.659  22.172  0.00  0.00     0.084 H 
ENDBRANCH  17  20
ENDBRANCH  14  17
ENDBRANCH  11  14
ENDBRANCH   8  11
ENDBRANCH   6   8
BRANCH   6  36
ATOM     36  C3  L04 d          34.241  40.993  24.879  0.00  0.00     0.177 C 
ATOM     37  O5  L04 d          34.663  41.376  26.001  0.00  0.00    -0.648 OA
ATOM     38  O4  L04 d          33.059  41.182  24.583  0.00  0.00    -0.648 OA
ENDBRANCH   6  36
ENDBRANCH   3   6
ENDBRANCH   1   3
BRANCH   1  39
ATOM     39  C16 L04 d          32.788  38.598  22.065  0.00  0.00     0.222 C 
ATOM     40  O17 L04 d          31.909  37.829  22.461  0.00  0.00    -0.273 OA
ATOM     41  N18 L04 d          32.530  39.708  21.380  0.00  0.00    -0.347 N 
ATOM     42  H46 L04 d          33.286  40.303  21.107  0.00  0.00     0.163 HD
BRANCH  41  43
ATOM     43  C19 L04 d          31.167  40.072  21.021  0.00  0.00     0.090 C 
ATOM     44  H20 L04 d          31.184  40.917  20.317  0.00  0.00     0.087 H 
BRANCH  43  45
ATOM     45  C27 L04 d          30.451  40.480  22.303  0.00  0.00     0.245 C 
ATOM     46  O28 L04 d          30.515  41.645  22.706  0.00  0.00    -0.271 OA
ATOM     47  N29 L04 d          29.719  39.532  22.889  0.00  0.00    -0.325 N 
ATOM     48  H47 L04 d          29.703  38.646  22.425  0.00  0.00     0.169 HD
BRANCH  47  49
ATOM     49  C30 L04 d          28.978  39.613  24.052  0.00  0.00     0.034 A 
ATOM     50  C35 L04 d          29.517  39.963  25.290  0.00  0.00    -0.057 A 
ATOM     51  C34 L04 d          28.717  40.017  26.428  0.00  0.00    -0.081 A 
ATOM     52  H39 L04 d          30.573  40.196  25.367  0.00  0.00     0.086 H 
ATOM     53  C33 L04 d          27.357  39.721  26.335  0.00  0.00    -0.083 A 
ATOM     54  H38 L04 d          29.149  40.289  27.384  0.00  0.00     0.083 H 
ATOM     55  C32 L04 d          26.809  39.370  25.107  0.00  0.00    -0.081 A 
ATOM     56  H37 L04 d          26.730  39.763  27.218  0.00  0.00     0.083 H 
ATOM     57  C31 L04 d          27.618  39.319  23.975  0.00  0.00    -0.057 A 
ATOM     58  H36 L04 d          25.754  39.136  25.030  0.00  0.00     0.083 H 
ATOM     59  H35 L04 d          27.184  39.047  23.020  0.00  0.00     0.086 H 
ENDBRANCH  47  49
ENDBRANCH  43  45
BRANCH  43  60
ATOM     60  C20 L04 d          30.438  38.893  20.374  0.00  0.00    -0.035 C 
ATOM     61  H21 L04 d          29.722  38.508  21.114  0.00  0.00     0.037 H 
ATOM     62  H22 L04 d          31.194  38.122  20.158  0.00  0.00     0.037 H 
BRANCH  60  63
ATOM     63  C21 L04 d          29.662  39.140  19.078  0.00  0.00    -0.059 C 
ATOM     64  H23 L04 d          29.580  38.194  18.522  0.00  0.00     0.038 H 
BRANCH  63  65
ATOM     65  C4  L04 d          28.270  39.627  19.441  0.00  0.00    -0.073 C 
ATOM     66  H4  L04 d          28.223  39.829  20.522  0.00  0.00     0.028 H 
ATOM     67  H5  L04 d          27.531  38.855  19.180  0.00  0.00     0.028 H 
ATOM     68  H6  L04 d          28.048  40.550  18.886  0.00  0.00     0.028 H 
ENDBRANCH  63  65
BRANCH  63  69
ATOM     69  C22 L04 d          30.380  40.163  18.198  0.00  0.00    -0.073 C 
ATOM     70  H24 L04 d          31.445  40.200  18.474  0.00  0.00     0.028 H 
ATOM     71  H25 L04 d          29.929  41.155  18.346  0.00  0.00     0.028 H 
ATOM     72  H26 L04 d          30.285  39.870  17.142  0.00  0.00     0.028 H 
ENDBRANCH  63  69
ENDBRANCH  60  63
ENDBRANCH  43  60
ENDBRANCH  41  43
ENDBRANCH   1  39
BRANCH   1  73
ATOM     73  C8  L04 d          34.498  36.810  22.191  0.00  0.00    -0.050 C 
ATOM     74  H9  L04 d          35.553  36.603  22.422  0.00  0.00     0.034 H 
ATOM     75  H10 L04 d          34.288  36.529  21.148  0.00  0.00     0.034 H 
BRANCH  73  76
ATOM     76  C9  L04 d          33.641  35.961  23.091  0.00  0.00    -0.040 C 
ATOM     77  H11 L04 d          33.142  35.202  22.471  0.00  0.00     0.040 H 
ATOM     78  H12 L04 d          32.884  36.610  23.555  0.00  0.00     0.040 H 
BRANCH  76  79
ATOM     79  C10 L04 d          34.383  35.256  24.183  0.00  0.00    -0.058 A 
ATOM     80  C15 L04 d          34.642  35.897  25.389  0.00  0.00    -0.076 A 
ATOM     81  C14 L04 d          35.299  35.237  26.418  0.00  0.00    -0.072 A 
ATOM     82  H16 L04 d          34.326  36.924  25.528  0.00  0.00     0.084 H 
ATOM     83  C13 L04 d          35.713  33.921  26.255  0.00  0.00    -0.026 A 
ATOM     84  H15 L04 d          35.490  35.751  27.353  0.00  0.00     0.084 H 
ATOM     85  C12 L04 d          35.456  33.283  25.045  0.00  0.00    -0.072 A 
ATOM     86  C11 L04 d          34.800  33.942  24.022  0.00  0.00    -0.076 A 
ATOM     87  H14 L04 d          35.775  32.256  24.903  0.00  0.00     0.084 H 
ATOM     88  H13 L04 d          34.611  33.428  23.086  0.00  0.00     0.084 H 
BRANCH  83  89
ATOM     89  C5  L04 d          36.410  33.205  27.336  0.00  0.00    -0.026 A 
ATOM     90  C43 L04 d          36.342  31.820  27.422  0.00  0.00    -0.069 A 
ATOM     91  C42 L04 d          36.991  31.143  28.446  0.00  0.00    -0.045 A 
ATOM     92  H45 L04 d          35.777  31.262  26.683  0.00  0.00     0.085 H 
ATOM     93  C41 L04 d          37.718  31.835  29.403  0.00  0.00     0.116 A 
ATOM     94  H44 L04 d          36.928  30.062  28.498  0.00  0.00     0.088 H 
ATOM     95  C17 L04 d          37.803  33.218  29.313  0.00  0.00    -0.045 A 
ATOM     96  F1  L04 d          38.331  31.168  30.402  0.00  0.00    -0.206 F 
ATOM     97  C6  L04 d          37.148  33.898  28.291  0.00  0.00    -0.069 A 
ATOM     98  H17 L04 d          38.384  33.771  30.043  0.00  0.00     0.088 H 
ATOM     99  H7  L04 d          37.212  34.978  28.239  0.00  0.00     0.085 H 
ENDBRANCH  83  89
ENDBRANCH  76  79
ENDBRANCH  73  76
ENDBRANCH   1  73
TORSDOF 20
ENDMDL
MODEL 8
REMARK VINA RESULT:      -9.6      3.372      5.653
REMARK  20 active torsions:
REMARK  status: ('A' for Active; 'I' for Inactive)
REMARK    1  A    between atoms: C1_1  and  C23_23 
REMARK    2  A    between atoms: C1_1  and  C2_2 
REMARK    3  A    between atoms: C2_2  and  C18_18 
REMARK    4  A    between atoms: C2_2  and  C3_3 
REMARK    5  A    between atoms: C21_21  and  C4_4 
REMARK    6  A    between atoms: C13_13  and  C5_5 
REMARK    7  A    between atoms: C18_18  and  C7_7 
REMARK    8  A    between atoms: C7_7  and  C16_16 
REMARK    9  A    between atoms: C7_7  and  C8_8 
REMARK   10  A    between atoms: C8_8  and  C9_9 
REMARK   11  A    between atoms: C9_9  and  C10_10 
REMARK       I    between atoms: C16_16  and  N18_45 
REMARK   12  A    between atoms: N18_45  and  C19_19 
REMARK   13  A    between atoms: C19_19  and  C27_27 
REMARK   14  A    between atoms: C19_19  and  C20_20 
REMARK   15  A    between atoms: C20_20  and  C21_21 
REMARK   16  A    between atoms: C21_21  and  C22_22 
REMARK   17  A    between atoms: C23_23  and  C24_24 
REMARK   18  A    between atoms: C24_24  and  C25_25 
REMARK   19  A    between atoms: C25_25  and  N1_44 
REMARK       I    between atoms: C27_27  and  N29_46 
REMARK   20  A    between atoms: N29_46  and  C30_30 
ROOT
ATOM      1  C7  L04 d          37.523  37.455  22.416  0.00  0.00     0.025 C 
ATOM      2  H8  L04 d          37.977  36.747  21.706  0.00  0.00     0.054 H 
ENDROOT
BRANCH   1   3
ATOM      3  C18 L04 d          37.315  38.792  21.705  0.00  0.00    -0.041 C 
ATOM      4  H18 L04 d          38.272  39.333  21.725  0.00  0.00     0.035 H 
ATOM      5  H19 L04 d          37.037  38.577  20.663  0.00  0.00     0.035 H 
BRANCH   3   6
ATOM      6  C2  L04 d          36.245  39.715  22.290  0.00  0.00     0.031 C 
ATOM      7  H3  L04 d          35.703  39.140  23.055  0.00  0.00     0.056 H 
BRANCH   6   8
ATOM      8  C1  L04 d          35.204  40.170  21.257  0.00  0.00    -0.052 C 
ATOM      9  H1  L04 d          35.673  40.917  20.601  0.00  0.00     0.034 H 
ATOM     10  H2  L04 d          34.904  39.295  20.661  0.00  0.00     0.034 H 
BRANCH   8  11
ATOM     11  C23 L04 d          33.952  40.786  21.860  0.00  0.00    -0.063 C 
ATOM     12  H27 L04 d          33.907  41.850  21.585  0.00  0.00     0.033 H 
ATOM     13  H28 L04 d          33.998  40.691  22.955  0.00  0.00     0.033 H 
BRANCH  11  14
ATOM     14  C24 L04 d          32.696  40.089  21.355  0.00  0.00    -0.050 C 
ATOM     15  H29 L04 d          32.355  39.372  22.116  0.00  0.00     0.035 H 
ATOM     16  H30 L04 d          32.936  39.552  20.426  0.00  0.00     0.035 H 
BRANCH  14  17
ATOM     17  C25 L04 d          31.576  41.080  21.076  0.00  0.00    -0.002 C 
ATOM     18  H31 L04 d          31.688  41.455  20.048  0.00  0.00     0.064 H 
ATOM     19  H32 L04 d          31.665  41.918  21.783  0.00  0.00     0.064 H 
BRANCH  17  20
ATOM     20  N1  L04 d          30.242  40.497  21.214  0.00  0.00    -0.344 N 
ATOM     21  C28 L04 d          29.517  40.173  22.449  0.00  0.00     0.023 A 
ATOM     22  C36 L04 d          28.176  39.676  21.912  0.00  0.00    -0.025 A 
ATOM     23  H33 L04 d          29.387  41.064  23.081  0.00  0.00     0.071 H 
ATOM     24  H34 L04 d          30.033  39.389  23.021  0.00  0.00     0.071 H 
ATOM     25  C29 L04 d          28.216  39.683  20.494  0.00  0.00     0.040 A 
ATOM     26  C38 L04 d          27.005  39.278  22.570  0.00  0.00    -0.074 A 
ATOM     27  C26 L04 d          29.540  40.179  20.099  0.00  0.00     0.254 A 
ATOM     28  C37 L04 d          27.085  39.291  19.763  0.00  0.00    -0.067 A 
ATOM     29  O1  L04 d          29.935  40.325  18.939  0.00  0.00    -0.267 OA
ATOM     30  C40 L04 d          25.937  38.904  20.437  0.00  0.00    -0.082 A 
ATOM     31  H40 L04 d          27.109  39.291  18.680  0.00  0.00     0.085 H 
ATOM     32  C39 L04 d          25.896  38.895  21.821  0.00  0.00    -0.082 A 
ATOM     33  H43 L04 d          25.061  38.604  19.874  0.00  0.00     0.083 H 
ATOM     34  H42 L04 d          24.989  38.587  22.327  0.00  0.00     0.083 H 
ATOM     35  H41 L04 d          26.963  39.268  23.653  0.00  0.00     0.084 H 
ENDBRANCH  17  20
ENDBRANCH  14  17
ENDBRANCH  11  14
ENDBRANCH   8  11
ENDBRANCH   6   8
BRANCH   6  36
ATOM     36  C3  L04 d          36.911  40.903  22.994  0.00  0.00     0.177 C 
ATOM     37  O5  L04 d          36.979  41.022  24.245  0.00  0.00    -0.648 OA
ATOM     38  O4  L04 d          37.363  41.800  22.278  0.00  0.00    -0.648 OA
ENDBRANCH   6  36
ENDBRANCH   3   6
ENDBRANCH   1   3
BRANCH   1  39
ATOM     39  C16 L04 d          36.194  36.894  22.900  0.00  0.00     0.222 C 
ATOM     40  O17 L04 d          35.539  36.119  22.198  0.00  0.00    -0.273 OA
ATOM     41  N18 L04 d          35.800  37.294  24.104  0.00  0.00    -0.347 N 
ATOM     42  H46 L04 d          36.387  37.906  24.634  0.00  0.00     0.163 HD
BRANCH  41  43
ATOM     43  C19 L04 d          34.530  36.857  24.666  0.00  0.00     0.090 C 
ATOM     44  H20 L04 d          34.227  37.541  25.473  0.00  0.00     0.087 H 
BRANCH  43  45
ATOM     45  C27 L04 d          34.737  35.455  25.226  0.00  0.00     0.245 C 
ATOM     46  O28 L04 d          34.084  34.506  24.782  0.00  0.00    -0.271 OA
ATOM     47  N29 L04 d          35.695  35.330  26.145  0.00  0.00    -0.325 N 
ATOM     48  H47 L04 d          36.192  36.168  26.372  0.00  0.00     0.169 HD
BRANCH  47  49
ATOM     49  C30 L04 d          36.092  34.195  26.825  0.00  0.00     0.034 A 
ATOM     50  C35 L04 d          35.769  32.899  26.422  0.00  0.00    -0.057 A 
ATOM     51  C34 L04 d          36.193  31.796  27.159  0.00  0.00    -0.081 A 
ATOM     52  H39 L04 d          35.181  32.749  25.525  0.00  0.00     0.086 H 
ATOM     53  C33 L04 d          36.952  31.983  28.314  0.00  0.00    -0.083 A 
ATOM     54  H38 L04 d          35.934  30.794  26.835  0.00  0.00     0.083 H 
ATOM     55  C32 L04 d          37.279  33.270  28.725  0.00  0.00    -0.081 A 
ATOM     56  H37 L04 d          37.286  31.127  28.890  0.00  0.00     0.083 H 
ATOM     57  C31 L04 d          36.850  34.365  27.981  0.00  0.00    -0.057 A 
ATOM     58  H36 L04 d          37.866  33.420  29.624  0.00  0.00     0.083 H 
ATOM     59  H35 L04 d          37.111  35.366  28.306  0.00  0.00     0.086 H 
ENDBRANCH  47  49
ENDBRANCH  43  45
BRANCH  43  60
ATOM     60  C20 L04 d          33.438  36.831  23.594  0.00  0.00    -0.035 C 
ATOM     61  H21 L04 d          33.276  35.778  23.320  0.00  0.00     0.037 H 
ATOM     62  H22 L04 d          33.824  37.382  22.723  0.00  0.00     0.037 H 
BRANCH  60  63
ATOM     63  C21 L04 d          32.069  37.426  23.935  0.00  0.00    -0.059 C 
ATOM     64  H23 L04 d          31.470  37.500  23.015  0.00  0.00     0.038 H 
BRANCH  63  65
ATOM     65  C4  L04 d          31.373  36.493  24.910  0.00  0.00    -0.073 C 
ATOM     66  H4  L04 d          30.705  37.075  25.562  0.00  0.00     0.028 H 
ATOM     67  H5  L04 d          32.125  35.975  25.523  0.00  0.00     0.028 H 
ATOM     68  H6  L04 d          30.784  35.751  24.350  0.00  0.00     0.028 H 
ENDBRANCH  63  65
BRANCH  63  69
ATOM     69  C22 L04 d          32.216  38.824  24.536  0.00  0.00    -0.073 C 
ATOM     70  H24 L04 d          31.322  39.063  25.130  0.00  0.00     0.028 H 
ATOM     71  H25 L04 d          32.327  39.561  23.727  0.00  0.00     0.028 H 
ATOM     72  H26 L04 d          33.106  38.853  25.183  0.00  0.00     0.028 H 
ENDBRANCH  63  69
ENDBRANCH  60  63
ENDBRANCH  43  60
ENDBRANCH  41  43
ENDBRANCH   1  39
BRANCH   1  73
ATOM     73  C8  L04 d          38.450  37.612  23.624  0.00  0.00    -0.050 C 
ATOM     74  H9  L04 d          38.365  36.709  24.246  0.00  0.00     0.034 H 
ATOM     75  H10 L04 d          38.119  38.488  24.202  0.00  0.00     0.034 H 
BRANCH  73  76
ATOM     76  C9  L04 d          39.899  37.803  23.264  0.00  0.00    -0.040 C 
ATOM     77  H11 L04 d          40.455  38.023  24.188  0.00  0.00     0.040 H 
ATOM     78  H12 L04 d          39.972  38.661  22.581  0.00  0.00     0.040 H 
BRANCH  76  79
ATOM     79  C10 L04 d          40.544  36.624  22.603  0.00  0.00    -0.058 A 
ATOM     80  C15 L04 d          41.298  35.723  23.345  0.00  0.00    -0.076 A 
ATOM     81  C14 L04 d          41.869  34.610  22.744  0.00  0.00    -0.072 A 
ATOM     82  H16 L04 d          41.442  35.891  24.406  0.00  0.00     0.084 H 
ATOM     83  C13 L04 d          41.697  34.382  21.384  0.00  0.00    -0.026 A 
ATOM     84  H15 L04 d          42.452  33.916  23.338  0.00  0.00     0.084 H 
ATOM     85  C12 L04 d          40.944  35.288  20.643  0.00  0.00    -0.072 A 
ATOM     86  C11 L04 d          40.376  36.395  21.245  0.00  0.00    -0.076 A 
ATOM     87  H14 L04 d          40.803  35.124  19.581  0.00  0.00     0.084 H 
ATOM     88  H13 L04 d          39.794  37.091  20.650  0.00  0.00     0.084 H 
BRANCH  83  89
ATOM     89  C5  L04 d          42.294  33.206  20.731  0.00  0.00    -0.026 A 
ATOM     90  C43 L04 d          43.220  33.364  19.706  0.00  0.00    -0.069 A 
ATOM     91  C42 L04 d          43.778  32.257  19.082  0.00  0.00    -0.045 A 
ATOM     92  H45 L04 d          43.509  34.361  19.392  0.00  0.00     0.085 H 
ATOM     93  C41 L04 d          43.422  30.972  19.468  0.00  0.00     0.116 A 
ATOM     94  H44 L04 d          44.499  32.397  18.286  0.00  0.00     0.088 H 
ATOM     95  C17 L04 d          42.510  30.808  20.501  0.00  0.00    -0.045 A 
ATOM     96  F1  L04 d          43.959  29.904  18.842  0.00  0.00    -0.206 F 
ATOM     97  C6  L04 d          41.945  31.917  21.123  0.00  0.00    -0.069 A 
ATOM     98  H17 L04 d          42.236  29.811  20.825  0.00  0.00     0.088 H 
ATOM     99  H7  L04 d          41.225  31.776  21.920  0.00  0.00     0.085 H 
ENDBRANCH  83  89
ENDBRANCH  76  79
ENDBRANCH  73  76
ENDBRANCH   1  73
TORSDOF 20
ENDMDL
MODEL 9
REMARK VINA RESULT:      -9.4      3.241     10.157
REMARK  20 active torsions:
REMARK  status: ('A' for Active; 'I' for Inactive)
REMARK    1  A    between atoms: C1_1  and  C23_23 
REMARK    2  A    between atoms: C1_1  and  C2_2 
REMARK    3  A    between atoms: C2_2  and  C18_18 
REMARK    4  A    between atoms: C2_2  and  C3_3 
REMARK    5  A    between atoms: C21_21  and  C4_4 
REMARK    6  A    between atoms: C13_13  and  C5_5 
REMARK    7  A    between atoms: C18_18  and  C7_7 
REMARK    8  A    between atoms: C7_7  and  C16_16 
REMARK    9  A    between atoms: C7_7  and  C8_8 
REMARK   10  A    between atoms: C8_8  and  C9_9 
REMARK   11  A    between atoms: C9_9  and  C10_10 
REMARK       I    between atoms: C16_16  and  N18_45 
REMARK   12  A    between atoms: N18_45  and  C19_19 
REMARK   13  A    between atoms: C19_19  and  C27_27 
REMARK   14  A    between atoms: C19_19  and  C20_20 
REMARK   15  A    between atoms: C20_20  and  C21_21 
REMARK   16  A    between atoms: C21_21  and  C22_22 
REMARK   17  A    between atoms: C23_23  and  C24_24 
REMARK   18  A    between atoms: C24_24  and  C25_25 
REMARK   19  A    between atoms: C25_25  and  N1_44 
REMARK       I    between atoms: C27_27  and  N29_46 
REMARK   20  A    between atoms: N29_46  and  C30_30 
ROOT
ATOM      1  C7  L04 d          34.999  39.562  21.523  0.00  0.00     0.025 C 
ATOM      2  H8  L04 d          35.449  39.689  20.528  0.00  0.00     0.054 H 
ENDROOT
BRANCH   1   3
ATOM      3  C18 L04 d          36.006  40.020  22.577  0.00  0.00    -0.041 C 
ATOM      4  H18 L04 d          35.923  41.113  22.666  0.00  0.00     0.035 H 
ATOM      5  H19 L04 d          35.727  39.553  23.533  0.00  0.00     0.035 H 
BRANCH   3   6
ATOM      6  C2  L04 d          37.474  39.685  22.307  0.00  0.00     0.031 C 
ATOM      7  H3  L04 d          37.530  39.266  21.292  0.00  0.00     0.056 H 
BRANCH   6   8
ATOM      8  C1  L04 d          38.040  38.621  23.258  0.00  0.00    -0.052 C 
ATOM      9  H1  L04 d          39.060  38.919  23.541  0.00  0.00     0.034 H 
ATOM     10  H2  L04 d          37.405  38.589  24.156  0.00  0.00     0.034 H 
BRANCH   8  11
ATOM     11  C23 L04 d          38.100  37.222  22.668  0.00  0.00    -0.063 C 
ATOM     12  H27 L04 d          38.379  37.293  21.606  0.00  0.00     0.033 H 
ATOM     13  H28 L04 d          37.109  36.754  22.756  0.00  0.00     0.033 H 
BRANCH  11  14
ATOM     14  C24 L04 d          39.123  36.360  23.394  0.00  0.00    -0.050 C 
ATOM     15  H29 L04 d          38.638  35.425  23.713  0.00  0.00     0.035 H 
ATOM     16  H30 L04 d          39.485  36.905  24.277  0.00  0.00     0.035 H 
BRANCH  14  17
ATOM     17  C25 L04 d          40.309  36.021  22.502  0.00  0.00    -0.002 C 
ATOM     18  H31 L04 d          39.951  35.404  21.665  0.00  0.00     0.064 H 
ATOM     19  H32 L04 d          41.039  35.449  23.094  0.00  0.00     0.064 H 
BRANCH  17  20
ATOM     20  N1  L04 d          40.976  37.202  21.957  0.00  0.00    -0.344 N 
ATOM     21  C28 L04 d          40.968  37.690  20.572  0.00  0.00     0.023 A 
ATOM     22  C36 L04 d          41.774  38.983  20.683  0.00  0.00    -0.025 A 
ATOM     23  H33 L04 d          39.943  37.889  20.225  0.00  0.00     0.071 H 
ATOM     24  H34 L04 d          41.453  36.974  19.893  0.00  0.00     0.071 H 
ATOM     25  C29 L04 d          42.225  39.132  22.020  0.00  0.00     0.040 A 
ATOM     26  C38 L04 d          42.079  39.969  19.736  0.00  0.00    -0.074 A 
ATOM     27  C26 L04 d          41.724  37.979  22.779  0.00  0.00     0.254 A 
ATOM     28  C37 L04 d          42.970  40.263  22.383  0.00  0.00    -0.067 A 
ATOM     29  O1  L04 d          41.916  37.771  23.979  0.00  0.00    -0.267 OA
ATOM     30  C40 L04 d          43.256  41.226  21.428  0.00  0.00    -0.082 A 
ATOM     31  H40 L04 d          43.319  40.383  23.402  0.00  0.00     0.085 H 
ATOM     32  C39 L04 d          42.818  41.082  20.122  0.00  0.00    -0.082 A 
ATOM     33  H43 L04 d          43.828  42.104  21.707  0.00  0.00     0.083 H 
ATOM     34  H42 L04 d          43.055  41.847  19.391  0.00  0.00     0.083 H 
ATOM     35  H41 L04 d          41.741  39.865  18.711  0.00  0.00     0.084 H 
ENDBRANCH  17  20
ENDBRANCH  14  17
ENDBRANCH  11  14
ENDBRANCH   8  11
ENDBRANCH   6   8
BRANCH   6  36
ATOM     36  C3  L04 d          38.313  40.969  22.320  0.00  0.00     0.177 C 
ATOM     37  O5  L04 d          39.398  41.098  21.696  0.00  0.00    -0.648 OA
ATOM     38  O4  L04 d          37.904  41.901  23.018  0.00  0.00    -0.648 OA
ENDBRANCH   6  36
ENDBRANCH   3   6
ENDBRANCH   1   3
BRANCH   1  39
ATOM     39  C16 L04 d          33.726  40.393  21.604  0.00  0.00     0.222 C 
ATOM     40  O17 L04 d          33.730  41.512  22.125  0.00  0.00    -0.273 OA
ATOM     41  N18 L04 d          32.636  39.836  21.087  0.00  0.00    -0.347 N 
ATOM     42  H46 L04 d          32.702  38.935  20.658  0.00  0.00     0.163 HD
BRANCH  41  43
ATOM     43  C19 L04 d          31.348  40.513  21.134  0.00  0.00     0.090 C 
ATOM     44  H20 L04 d          31.486  41.546  21.487  0.00  0.00     0.087 H 
BRANCH  43  45
ATOM     45  C27 L04 d          30.464  39.745  22.110  0.00  0.00     0.245 C 
ATOM     46  O28 L04 d          30.443  38.512  22.090  0.00  0.00    -0.271 OA
ATOM     47  N29 L04 d          29.800  40.484  23.000  0.00  0.00    -0.325 N 
ATOM     48  H47 L04 d          29.954  41.471  22.946  0.00  0.00     0.169 HD
BRANCH  47  49
ATOM     49  C30 L04 d          28.929  40.065  23.986  0.00  0.00     0.034 A 
ATOM     50  C35 L04 d          29.253  40.028  25.341  0.00  0.00    -0.057 A 
ATOM     51  C34 L04 d          28.330  39.585  26.285  0.00  0.00    -0.081 A 
ATOM     52  H39 L04 d          30.237  40.349  25.665  0.00  0.00     0.086 H 
ATOM     53  C33 L04 d          27.063  39.172  25.876  0.00  0.00    -0.083 A 
ATOM     54  H38 L04 d          28.597  39.561  27.336  0.00  0.00     0.083 H 
ATOM     55  C32 L04 d          26.729  39.203  24.527  0.00  0.00    -0.081 A 
ATOM     56  H37 L04 d          26.341  38.828  26.608  0.00  0.00     0.083 H 
ATOM     57  C31 L04 d          27.658  39.648  23.592  0.00  0.00    -0.057 A 
ATOM     58  H36 L04 d          25.746  38.880  24.204  0.00  0.00     0.083 H 
ATOM     59  H35 L04 d          27.390  39.672  22.542  0.00  0.00     0.086 H 
ENDBRANCH  47  49
ENDBRANCH  43  45
BRANCH  43  60
ATOM     60  C20 L04 d          30.693  40.539  19.751  0.00  0.00    -0.035 C 
ATOM     61  H21 L04 d          31.044  39.649  19.209  0.00  0.00     0.037 H 
ATOM     62  H22 L04 d          31.049  41.445  19.239  0.00  0.00     0.037 H 
BRANCH  60  63
ATOM     63  C21 L04 d          29.164  40.545  19.671  0.00  0.00    -0.059 C 
ATOM     64  H23 L04 d          28.750  40.524  20.689  0.00  0.00     0.038 H 
BRANCH  63  65
ATOM     65  C4  L04 d          28.729  41.827  18.982  0.00  0.00    -0.073 C 
ATOM     66  H4  L04 d          28.598  42.621  19.733  0.00  0.00     0.028 H 
ATOM     67  H5  L04 d          27.777  41.657  18.458  0.00  0.00     0.028 H 
ATOM     68  H6  L04 d          29.497  42.133  18.256  0.00  0.00     0.028 H 
ENDBRANCH  63  65
BRANCH  63  69
ATOM     69  C22 L04 d          28.654  39.322  18.910  0.00  0.00    -0.073 C 
ATOM     70  H24 L04 d          28.681  39.525  17.829  0.00  0.00     0.028 H 
ATOM     71  H25 L04 d          27.620  39.105  19.216  0.00  0.00     0.028 H 
ATOM     72  H26 L04 d          29.293  38.456  19.136  0.00  0.00     0.028 H 
ENDBRANCH  63  69
ENDBRANCH  60  63
ENDBRANCH  43  60
ENDBRANCH  41  43
ENDBRANCH   1  39
BRANCH   1  73
ATOM     73  C8  L04 d          34.628  38.089  21.719  0.00  0.00    -0.050 C 
ATOM     74  H9  L04 d          35.557  37.511  21.835  0.00  0.00     0.034 H 
ATOM     75  H10 L04 d          34.092  37.746  20.822  0.00  0.00     0.034 H 
BRANCH  73  76
ATOM     76  C9  L04 d          33.757  37.831  22.919  0.00  0.00    -0.040 C 
ATOM     77  H11 L04 d          32.778  37.479  22.562  0.00  0.00     0.040 H 
ATOM     78  H12 L04 d          33.629  38.780  23.460  0.00  0.00     0.040 H 
BRANCH  76  79
ATOM     79  C10 L04 d          34.294  36.816  23.880  0.00  0.00    -0.058 A 
ATOM     80  C15 L04 d          35.002  35.712  23.418  0.00  0.00    -0.076 A 
ATOM     81  C14 L04 d          35.532  34.786  24.305  0.00  0.00    -0.072 A 
ATOM     82  H16 L04 d          35.142  35.573  22.353  0.00  0.00     0.084 H 
ATOM     83  C13 L04 d          35.359  34.948  25.675  0.00  0.00    -0.026 A 
ATOM     84  H15 L04 d          36.084  33.933  23.929  0.00  0.00     0.084 H 
ATOM     85  C12 L04 d          34.647  36.052  26.133  0.00  0.00    -0.072 A 
ATOM     86  C11 L04 d          34.121  36.974  25.247  0.00  0.00    -0.076 A 
ATOM     87  H14 L04 d          34.503  36.191  27.199  0.00  0.00     0.084 H 
ATOM     88  H13 L04 d          33.568  37.827  25.625  0.00  0.00     0.084 H 
BRANCH  83  89
ATOM     89  C5  L04 d          35.916  33.977  26.630  0.00  0.00    -0.026 A 
ATOM     90  C43 L04 d          35.676  32.617  26.472  0.00  0.00    -0.069 A 
ATOM     91  C42 L04 d          36.192  31.699  27.377  0.00  0.00    -0.045 A 
ATOM     92  H45 L04 d          35.079  32.270  25.636  0.00  0.00     0.085 H 
ATOM     93  C41 L04 d          36.957  32.121  28.455  0.00  0.00     0.116 A 
ATOM     94  H44 L04 d          35.996  30.642  27.239  0.00  0.00     0.088 H 
ATOM     95  C17 L04 d          37.214  33.476  28.608  0.00  0.00    -0.045 A 
ATOM     96  F1  L04 d          37.440  31.221  29.336  0.00  0.00    -0.206 F 
ATOM     97  C6  L04 d          36.691  34.397  27.706  0.00  0.00    -0.069 A 
ATOM     98  H17 L04 d          37.825  33.819  29.435  0.00  0.00     0.088 H 
ATOM     99  H7  L04 d          36.889  35.454  27.844  0.00  0.00     0.085 H 
ENDBRANCH  83  89
ENDBRANCH  76  79
ENDBRANCH  73  76
ENDBRANCH   1  73
TORSDOF 20
ENDMDL
MODEL 10
REMARK VINA RESULT:      -9.4      1.810      2.566
REMARK  20 active torsions:
REMARK  status: ('A' for Active; 'I' for Inactive)
REMARK    1  A    between atoms: C1_1  and  C23_23 
REMARK    2  A    between atoms: C1_1  and  C2_2 
REMARK    3  A    between atoms: C2_2  and  C18_18 
REMARK    4  A    between atoms: C2_2  and  C3_3 
REMARK    5  A    between atoms: C21_21  and  C4_4 
REMARK    6  A    between atoms: C13_13  and  C5_5 
REMARK    7  A    between atoms: C18_18  and  C7_7 
REMARK    8  A    between atoms: C7_7  and  C16_16 
REMARK    9  A    between atoms: C7_7  and  C8_8 
REMARK   10  A    between atoms: C8_8  and  C9_9 
REMARK   11  A    between atoms: C9_9  and  C10_10 
REMARK       I    between atoms: C16_16  and  N18_45 
REMARK   12  A    between atoms: N18_45  and  C19_19 
REMARK   13  A    between atoms: C19_19  and  C27_27 
REMARK   14  A    between atoms: C19_19  and  C20_20 
REMARK   15  A    between atoms: C20_20  and  C21_21 
REMARK   16  A    between atoms: C21_21  and  C22_22 
REMARK   17  A    between atoms: C23_23  and  C24_24 
REMARK   18  A    between atoms: C24_24  and  C25_25 
REMARK   19  A    between atoms: C25_25  and  N1_44 
REMARK       I    between atoms: C27_27  and  N29_46 
REMARK   20  A    between atoms: N29_46  and  C30_30 
ROOT
ATOM      1  C7  L04 d          32.778  39.353  23.501  0.00  0.00     0.025 C 
ATOM      2  H8  L04 d          32.164  39.693  22.653  0.00  0.00     0.054 H 
ENDROOT
BRANCH   1   3
ATOM      3  C18 L04 d          31.923  39.390  24.767  0.00  0.00    -0.041 C 
ATOM      4  H18 L04 d          31.804  38.355  25.120  0.00  0.00     0.035 H 
ATOM      5  H19 L04 d          32.468  39.975  25.522  0.00  0.00     0.035 H 
BRANCH   3   6
ATOM      6  C2  L04 d          30.526  39.997  24.628  0.00  0.00     0.031 C 
ATOM      7  H3  L04 d          30.068  39.992  25.628  0.00  0.00     0.056 H 
BRANCH   6   8
ATOM      8  C1  L04 d          29.598  39.184  23.713  0.00  0.00    -0.052 C 
ATOM      9  H1  L04 d          30.084  39.083  22.732  0.00  0.00     0.034 H 
ATOM     10  H2  L04 d          29.461  38.188  24.158  0.00  0.00     0.034 H 
BRANCH   8  11
ATOM     11  C23 L04 d          28.227  39.804  23.503  0.00  0.00    -0.063 C 
ATOM     12  H27 L04 d          28.276  40.876  23.746  0.00  0.00     0.033 H 
ATOM     13  H28 L04 d          27.504  39.310  24.169  0.00  0.00     0.033 H 
BRANCH  11  14
ATOM     14  C24 L04 d          27.763  39.642  22.062  0.00  0.00    -0.050 C 
ATOM     15  H29 L04 d          27.472  40.628  21.668  0.00  0.00     0.035 H 
ATOM     16  H30 L04 d          26.894  38.968  22.041  0.00  0.00     0.035 H 
BRANCH  14  17
ATOM     17  C25 L04 d          28.858  39.063  21.178  0.00  0.00    -0.002 C 
ATOM     18  H31 L04 d          28.500  38.112  20.756  0.00  0.00     0.064 H 
ATOM     19  H32 L04 d          29.747  38.877  21.799  0.00  0.00     0.064 H 
BRANCH  17  20
ATOM     20  N1  L04 d          29.238  39.946  20.077  0.00  0.00    -0.344 N 
ATOM     21  C28 L04 d          28.365  40.772  19.233  0.00  0.00     0.023 A 
ATOM     22  C36 L04 d          29.372  41.499  18.344  0.00  0.00    -0.025 A 
ATOM     23  H33 L04 d          27.781  41.482  19.837  0.00  0.00     0.071 H 
ATOM     24  H34 L04 d          27.683  40.149  18.636  0.00  0.00     0.071 H 
ATOM     25  C29 L04 d          30.678  41.043  18.659  0.00  0.00     0.040 A 
ATOM     26  C38 L04 d          29.200  42.488  17.368  0.00  0.00    -0.074 A 
ATOM     27  C26 L04 d          30.545  40.051  19.733  0.00  0.00     0.254 A 
ATOM     28  C37 L04 d          31.785  41.586  17.992  0.00  0.00    -0.067 A 
ATOM     29  O1  L04 d          31.476  39.441  20.266  0.00  0.00    -0.267 OA
ATOM     30  C40 L04 d          31.590  42.566  17.031  0.00  0.00    -0.082 A 
ATOM     31  H40 L04 d          32.786  41.242  18.225  0.00  0.00     0.085 H 
ATOM     32  C39 L04 d          30.316  43.011  16.721  0.00  0.00    -0.082 A 
ATOM     33  H43 L04 d          32.445  42.989  16.516  0.00  0.00     0.083 H 
ATOM     34  H42 L04 d          30.187  43.777  15.964  0.00  0.00     0.083 H 
ATOM     35  H41 L04 d          28.207  42.843  17.117  0.00  0.00     0.084 H 
ENDBRANCH  17  20
ENDBRANCH  14  17
ENDBRANCH  11  14
ENDBRANCH   8  11
ENDBRANCH   6   8
BRANCH   6  36
ATOM     36  C3  L04 d          30.635  41.459  24.180  0.00  0.00     0.177 C 
ATOM     37  O5  L04 d          30.841  41.809  22.989  0.00  0.00    -0.648 OA
ATOM     38  O4  L04 d          30.552  42.324  25.057  0.00  0.00    -0.648 OA
ENDBRANCH   6  36
ENDBRANCH   3   6
ENDBRANCH   1   3
BRANCH   1  39
ATOM     39  C16 L04 d          33.267  37.938  23.227  0.00  0.00     0.222 C 
ATOM     40  O17 L04 d          32.789  37.268  22.308  0.00  0.00    -0.273 OA
ATOM     41  N18 L04 d          34.223  37.489  24.034  0.00  0.00    -0.347 N 
ATOM     42  H46 L04 d          34.586  38.089  24.746  0.00  0.00     0.163 HD
BRANCH  41  43
ATOM     43  C19 L04 d          34.751  36.139  23.898  0.00  0.00     0.090 C 
ATOM     44  H20 L04 d          33.991  35.489  23.439  0.00  0.00     0.087 H 
BRANCH  43  45
ATOM     45  C27 L04 d          35.084  35.637  25.299  0.00  0.00     0.245 C 
ATOM     46  O28 L04 d          34.709  36.268  26.290  0.00  0.00    -0.271 OA
ATOM     47  N29 L04 d          35.723  34.469  25.362  0.00  0.00    -0.325 N 
ATOM     48  H47 L04 d          35.915  34.030  24.484  0.00  0.00     0.169 HD
BRANCH  47  49
ATOM     49  C30 L04 d          36.155  33.785  26.482  0.00  0.00     0.034 A 
ATOM     50  C35 L04 d          36.014  32.408  26.651  0.00  0.00    -0.057 A 
ATOM     51  C34 L04 d          36.463  31.780  27.810  0.00  0.00    -0.081 A 
ATOM     52  H39 L04 d          35.548  31.818  25.870  0.00  0.00     0.086 H 
ATOM     53  C33 L04 d          37.065  32.533  28.818  0.00  0.00    -0.083 A 
ATOM     54  H38 L04 d          36.345  30.709  27.928  0.00  0.00     0.083 H 
ATOM     55  C32 L04 d          37.211  33.906  28.661  0.00  0.00    -0.081 A 
ATOM     56  H37 L04 d          37.418  32.048  29.721  0.00  0.00     0.083 H 
ATOM     57  C31 L04 d          36.759  34.523  27.498  0.00  0.00    -0.057 A 
ATOM     58  H36 L04 d          37.676  34.496  29.442  0.00  0.00     0.083 H 
ATOM     59  H35 L04 d          36.878  35.595  27.381  0.00  0.00     0.086 H 
ENDBRANCH  47  49
ENDBRANCH  43  45
BRANCH  43  60
ATOM     60  C20 L04 d          36.011  36.129  23.031  0.00  0.00    -0.035 C 
ATOM     61  H21 L04 d          35.875  36.892  22.251  0.00  0.00     0.037 H 
ATOM     62  H22 L04 d          36.077  35.135  22.565  0.00  0.00     0.037 H 
BRANCH  60  63
ATOM     63  C21 L04 d          37.359  36.404  23.703  0.00  0.00    -0.059 C 
ATOM     64  H23 L04 d          37.452  35.768  24.595  0.00  0.00     0.038 H 
BRANCH  63  65
ATOM     65  C4  L04 d          38.462  36.049  22.721  0.00  0.00    -0.073 C 
ATOM     66  H4  L04 d          38.257  36.526  21.751  0.00  0.00     0.028 H 
ATOM     67  H5  L04 d          38.501  34.958  22.591  0.00  0.00     0.028 H 
ATOM     68  H6  L04 d          39.428  36.407  23.109  0.00  0.00     0.028 H 
ENDBRANCH  63  65
BRANCH  63  69
ATOM     69  C22 L04 d          37.466  37.867  24.131  0.00  0.00    -0.073 C 
ATOM     70  H24 L04 d          36.690  38.088  24.879  0.00  0.00     0.028 H 
ATOM     71  H25 L04 d          37.327  38.517  23.255  0.00  0.00     0.028 H 
ATOM     72  H26 L04 d          38.459  38.049  24.569  0.00  0.00     0.028 H 
ENDBRANCH  63  69
ENDBRANCH  60  63
ENDBRANCH  43  60
ENDBRANCH  41  43
ENDBRANCH   1  39
BRANCH   1  73
ATOM     73  C8  L04 d          33.998  40.269  23.633  0.00  0.00    -0.050 C 
ATOM     74  H9  L04 d          34.810  39.698  24.106  0.00  0.00     0.034 H 
ATOM     75  H10 L04 d          33.724  41.119  24.275  0.00  0.00     0.034 H 
BRANCH  73  76
ATOM     76  C9  L04 d          34.502  40.811  22.322  0.00  0.00    -0.040 C 
ATOM     77  H11 L04 d          34.336  41.898  22.315  0.00  0.00     0.040 H 
ATOM     78  H12 L04 d          33.919  40.346  21.513  0.00  0.00     0.040 H 
BRANCH  76  79
ATOM     79  C10 L04 d          35.953  40.560  22.054  0.00  0.00    -0.058 A 
ATOM     80  C15 L04 d          36.348  39.522  21.217  0.00  0.00    -0.076 A 
ATOM     81  C14 L04 d          37.690  39.306  20.938  0.00  0.00    -0.072 A 
ATOM     82  H16 L04 d          35.599  38.875  20.776  0.00  0.00     0.084 H 
ATOM     83  C13 L04 d          38.663  40.124  21.497  0.00  0.00    -0.026 A 
ATOM     84  H15 L04 d          37.980  38.494  20.280  0.00  0.00     0.084 H 
ATOM     85  C12 L04 d          38.265  41.159  22.338  0.00  0.00    -0.072 A 
ATOM     86  C11 L04 d          36.928  41.374  22.613  0.00  0.00    -0.076 A 
ATOM     87  H14 L04 d          39.014  41.805  22.783  0.00  0.00     0.084 H 
ATOM     88  H13 L04 d          36.638  42.185  23.272  0.00  0.00     0.084 H 
BRANCH  83  89
ATOM     89  C5  L04 d          40.091  39.910  21.210  0.00  0.00    -0.026 A 
ATOM     90  C43 L04 d          41.049  40.781  21.716  0.00  0.00    -0.069 A 
ATOM     91  C42 L04 d          42.396  40.586  21.441  0.00  0.00    -0.045 A 
ATOM     92  H45 L04 d          40.742  41.619  22.332  0.00  0.00     0.085 H 
ATOM     93  C41 L04 d          42.811  39.521  20.654  0.00  0.00     0.116 A 
ATOM     94  H44 L04 d          43.130  41.273  21.843  0.00  0.00     0.088 H 
ATOM     95  C17 L04 d          41.860  38.639  20.159  0.00  0.00    -0.045 A 
ATOM     96  F1  L04 d          44.121  39.352  20.379  0.00  0.00    -0.206 F 
ATOM     97  C6  L04 d          40.510  38.837  20.430  0.00  0.00    -0.069 A 
ATOM     98  H17 L04 d          42.171  37.792  19.559  0.00  0.00     0.088 H 
ATOM     99  H7  L04 d          39.776  38.148  20.027  0.00  0.00     0.085 H 
ENDBRANCH  83  89
ENDBRANCH  76  79
ENDBRANCH  73  76
ENDBRANCH   1  73
TORSDOF 20
ENDMDL
