MODEL 1
REMARK VINA RESULT:     -11.1      0.000      0.000
REMARK  11 active torsions:
REMARK  status: ('A' for Active; 'I' for Inactive)
REMARK    1  A    between atoms: N10_10  and  C1_1 
REMARK    2  A    between atoms: C2_2  and  O3_3 
REMARK    3  A    between atoms: C4_4  and  O5_5 
REMARK    4  A    between atoms: C6_6  and  C14_14 
REMARK    5  A    between atoms: C35_35  and  C7_7 
REMARK    6  A    between atoms: C15_15  and  C16_16 
REMARK    7  A    between atoms: C16_16  and  N17_17 
REMARK       I    between atoms: N17_17  and  C18_18 
REMARK    8  A    between atoms: C18_18  and  C20_20 
REMARK    9  A    between atoms: C22_22  and  C24_24 
REMARK   10  A    between atoms: C31_31  and  O32_32 
REMARK   11  A    between atoms: C33_33  and  O34_34 
ROOT
ATOM      1  C14 MOL d          -2.457  18.539  14.814  0.00  0.00    -0.075 C 
ATOM      2  C15 MOL d          -3.178  18.106  13.811  0.00  0.00    -0.087 C 
ATOM      3  H11 MOL d          -1.995  17.842  15.511  0.00  0.00     0.080 H 
ATOM      4  H12 MOL d          -3.596  18.822  13.105  0.00  0.00     0.079 H 
ENDROOT
BRANCH   2   5
ATOM      5  C16 MOL d          -3.435  16.661  13.619  0.00  0.00     0.010 C 
ATOM      6  H13 MOL d          -3.757  16.445  12.590  0.00  0.00     0.070 H 
ATOM      7  H14 MOL d          -4.192  16.290  14.326  0.00  0.00     0.070 H 
BRANCH   5   8
ATOM      8  N17 MOL d          -2.119  16.089  13.898  0.00  0.00    -0.353 N 
ATOM      9  C18 MOL d          -2.131  14.732  14.052  0.00  0.00     0.254 C 
ATOM     10  O19 MOL d          -3.196  14.107  14.035  0.00  0.00    -0.268 OA
ATOM     11  H15 MOL d          -1.288  16.640  13.971  0.00  0.00     0.163 HD
BRANCH   9  12
ATOM     12  C20 MOL d          -0.868  14.091  14.424  0.00  0.00     0.068 A 
ATOM     13  C21 MOL d          -0.944  12.931  15.218  0.00  0.00    -0.054 A 
ATOM     14  C22 MOL d           0.212  12.240  15.584  0.00  0.00    -0.022 A 
ATOM     15  H16 MOL d          -1.911  12.570  15.550  0.00  0.00     0.086 H 
ATOM     16  C23 MOL d           1.492  12.680  15.191  0.00  0.00    -0.037 A 
ATOM     17  C33 MOL d           1.536  13.836  14.404  0.00  0.00     0.100 A 
ATOM     18  H17 MOL d           2.392  12.151  15.481  0.00  0.00     0.089 H 
ATOM     19  C31 MOL d           0.386  14.503  13.980  0.00  0.00     0.114 A 
BRANCH  14  20
ATOM     20  C24 MOL d           0.053  11.024  16.437  0.00  0.00    -0.026 A 
ATOM     21  C25 MOL d          -0.882  11.057  17.452  0.00  0.00    -0.069 A 
ATOM     22  C26 MOL d          -0.991   9.917  18.244  0.00  0.00    -0.045 A 
ATOM     23  H18 MOL d          -1.501  11.929  17.625  0.00  0.00     0.085 H 
ATOM     24  C29 MOL d          -0.164   8.841  17.926  0.00  0.00     0.116 A 
ATOM     25  H19 MOL d          -1.689   9.869  19.072  0.00  0.00     0.088 H 
ATOM     26  C28 MOL d           0.793   8.803  16.945  0.00  0.00    -0.045 A 
ATOM     27  F30 MOL d          -0.188   7.666  18.681  0.00  0.00    -0.206 F 
ATOM     28  C27 MOL d           0.867   9.951  16.146  0.00  0.00    -0.069 A 
ATOM     29  H21 MOL d           1.443   7.948  16.798  0.00  0.00     0.088 H 
ATOM     30  H20 MOL d           1.555   9.996  15.310  0.00  0.00     0.085 H 
ENDBRANCH  14  20
BRANCH  17  31
ATOM     31  O34 MOL d           2.797  14.290  14.002  0.00  0.00    -0.358 OA
ATOM     32  H23 MOL d           2.797  15.240  13.977  0.00  0.00     0.217 HD
ENDBRANCH  17  31
BRANCH  19  33
ATOM     33  O32 MOL d           0.569  15.627  13.237  0.00  0.00    -0.357 OA
ATOM     34  H22 MOL d           1.042  16.271  13.751  0.00  0.00     0.217 HD
ENDBRANCH  19  33
ENDBRANCH   9  12
ENDBRANCH   5   8
ENDBRANCH   2   5
BRANCH   1  35
ATOM     35  C6  MOL d          -2.282  20.023  14.980  0.00  0.00     0.084 C 
ATOM     36  C4  MOL d          -3.045  20.427  16.232  0.00  0.00     0.092 C 
ATOM     37  C2  MOL d          -4.427  20.624  15.606  0.00  0.00     0.105 C 
ATOM     38  H4  MOL d          -3.043  19.666  17.026  0.00  0.00     0.091 H 
ATOM     39  C1  MOL d          -4.079  21.304  14.273  0.00  0.00     0.140 C 
ATOM     40  H2  MOL d          -4.933  19.660  15.457  0.00  0.00     0.093 H 
ATOM     41  O13 MOL d          -2.846  20.733  13.826  0.00  0.00    -0.352 OA
ATOM     42  H1  MOL d          -3.962  22.387  14.430  0.00  0.00     0.123 H 
ATOM     43  H6  MOL d          -1.215  20.270  15.084  0.00  0.00     0.093 H 
BRANCH  36  44
ATOM     44  O5  MOL d          -2.456  21.654  16.687  0.00  0.00    -0.390 OA
ATOM     45  H5  MOL d          -2.356  21.625  17.631  0.00  0.00     0.210 HD
ENDBRANCH  36  44
BRANCH  37  46
ATOM     46  O3  MOL d          -5.274  21.502  16.364  0.00  0.00    -0.388 OA
ATOM     47  H3  MOL d          -5.296  21.215  17.269  0.00  0.00     0.210 HD
ENDBRANCH  37  46
BRANCH  39  48
ATOM     48  N10 MOL d          -5.114  21.072  13.248  0.00  0.00    -0.294 N 
ATOM     49  C9  MOL d          -5.715  19.830  12.925  0.00  0.00     0.070 A 
ATOM     50  N8  MOL d          -6.512  19.938  11.912  0.00  0.00    -0.238 NA
ATOM     51  H10 MOL d          -5.529  18.900  13.462  0.00  0.00     0.144 H 
ATOM     52  C12 MOL d          -6.444  21.227  11.506  0.00  0.00     0.128 A 
ATOM     53  C11 MOL d          -5.610  21.971  12.322  0.00  0.00     0.165 A 
ATOM     54  C35 MOL d          -7.120  21.913  10.481  0.00  0.00     0.064 A 
ATOM     55  N40 MOL d          -5.320  23.276  12.171  0.00  0.00    -0.222 NA
ATOM     56  C39 MOL d          -5.980  23.870  11.176  0.00  0.00     0.089 A 
ATOM     57  N38 MOL d          -6.855  23.219  10.342  0.00  0.00    -0.244 NA
ATOM     58  H24 MOL d          -5.816  24.929  11.017  0.00  0.00     0.146 H 
BRANCH  54  59
ATOM     59  C7  MOL d          -8.142  21.264   9.569  0.00  0.00    -0.033 C 
ATOM     60  H7  MOL d          -7.902  20.198   9.448  0.00  0.00     0.035 H 
ATOM     61  H8  MOL d          -8.123  21.758   8.586  0.00  0.00     0.035 H 
ATOM     62  H9  MOL d          -9.145  21.366  10.011  0.00  0.00     0.035 H 
ENDBRANCH  54  59
ENDBRANCH  39  48
ENDBRANCH   1  35
TORSDOF 11
ENDMDL
MODEL 2
REMARK VINA RESULT:     -10.1      1.766      2.673
REMARK  11 active torsions:
REMARK  status: ('A' for Active; 'I' for Inactive)
REMARK    1  A    between atoms: N10_10  and  C1_1 
REMARK    2  A    between atoms: C2_2  and  O3_3 
REMARK    3  A    between atoms: C4_4  and  O5_5 
REMARK    4  A    between atoms: C6_6  and  C14_14 
REMARK    5  A    between atoms: C35_35  and  C7_7 
REMARK    6  A    between atoms: C15_15  and  C16_16 
REMARK    7  A    between atoms: C16_16  and  N17_17 
REMARK       I    between atoms: N17_17  and  C18_18 
REMARK    8  A    between atoms: C18_18  and  C20_20 
REMARK    9  A    between atoms: C22_22  and  C24_24 
REMARK   10  A    between atoms: C31_31  and  O32_32 
REMARK   11  A    between atoms: C33_33  and  O34_34 
ROOT
ATOM      1  C14 MOL d          -3.265  18.135  14.419  0.00  0.00    -0.075 C 
ATOM      2  C15 MOL d          -2.482  17.338  13.737  0.00  0.00    -0.087 C 
ATOM      3  H11 MOL d          -4.208  17.774  14.828  0.00  0.00     0.080 H 
ATOM      4  H12 MOL d          -1.526  17.712  13.374  0.00  0.00     0.079 H 
ENDROOT
BRANCH   2   5
ATOM      5  C16 MOL d          -2.870  15.939  13.452  0.00  0.00     0.010 C 
ATOM      6  H13 MOL d          -2.226  15.493  12.680  0.00  0.00     0.070 H 
ATOM      7  H14 MOL d          -3.922  15.871  13.136  0.00  0.00     0.070 H 
BRANCH   5   8
ATOM      8  N17 MOL d          -2.662  15.306  14.753  0.00  0.00    -0.353 N 
ATOM      9  C18 MOL d          -2.715  13.941  14.715  0.00  0.00     0.254 C 
ATOM     10  O19 MOL d          -3.002  13.352  13.669  0.00  0.00    -0.268 OA
ATOM     11  H15 MOL d          -2.498  15.824  15.593  0.00  0.00     0.163 HD
BRANCH   9  12
ATOM     12  C20 MOL d          -2.606  13.234  15.993  0.00  0.00     0.068 A 
ATOM     13  C21 MOL d          -1.572  12.286  16.118  0.00  0.00    -0.054 A 
ATOM     14  C22 MOL d          -1.378  11.597  17.315  0.00  0.00    -0.022 A 
ATOM     15  H16 MOL d          -0.919  12.090  15.274  0.00  0.00     0.086 H 
ATOM     16  C23 MOL d          -2.210  11.806  18.433  0.00  0.00    -0.037 A 
ATOM     17  C33 MOL d          -3.230  12.752  18.278  0.00  0.00     0.100 A 
ATOM     18  H17 MOL d          -2.068  11.265  19.361  0.00  0.00     0.089 H 
ATOM     19  C31 MOL d          -3.399  13.492  17.108  0.00  0.00     0.114 A 
BRANCH  14  20
ATOM     20  C24 MOL d          -0.267  10.599  17.368  0.00  0.00    -0.026 A 
ATOM     21  C25 MOL d           0.612  10.543  16.306  0.00  0.00    -0.069 A 
ATOM     22  C26 MOL d           1.623   9.589  16.374  0.00  0.00    -0.045 A 
ATOM     23  H18 MOL d           0.520  11.212  15.458  0.00  0.00     0.085 H 
ATOM     24  C29 MOL d           1.668   8.792  17.517  0.00  0.00     0.116 A 
ATOM     25  H19 MOL d           2.344   9.470  15.574  0.00  0.00     0.088 H 
ATOM     26  C28 MOL d           0.784   8.810  18.565  0.00  0.00    -0.045 A 
ATOM     27  F30 MOL d           2.632   7.792  17.662  0.00  0.00    -0.206 F 
ATOM     28  C27 MOL d          -0.209   9.795  18.486  0.00  0.00    -0.069 A 
ATOM     29  H21 MOL d           0.849   8.114  19.394  0.00  0.00     0.088 H 
ATOM     30  H20 MOL d          -0.921   9.923  19.291  0.00  0.00     0.085 H 
ENDBRANCH  14  20
BRANCH  17  31
ATOM     31  O34 MOL d          -4.068  12.976  19.375  0.00  0.00    -0.358 OA
ATOM     32  H23 MOL d          -3.584  13.429  20.055  0.00  0.00     0.217 HD
ENDBRANCH  17  31
BRANCH  19  33
ATOM     33  O32 MOL d          -4.442  14.364  17.080  0.00  0.00    -0.357 OA
ATOM     34  H22 MOL d          -4.143  15.203  16.751  0.00  0.00     0.217 HD
ENDBRANCH  19  33
ENDBRANCH   9  12
ENDBRANCH   5   8
ENDBRANCH   2   5
BRANCH   1  35
ATOM     35  C6  MOL d          -2.833  19.559  14.625  0.00  0.00     0.084 C 
ATOM     36  C4  MOL d          -3.519  20.058  15.888  0.00  0.00     0.092 C 
ATOM     37  C2  MOL d          -4.842  20.511  15.268  0.00  0.00     0.105 C 
ATOM     38  H4  MOL d          -3.653  19.288  16.661  0.00  0.00     0.091 H 
ATOM     39  C1  MOL d          -4.375  21.155  13.954  0.00  0.00     0.140 C 
ATOM     40  H2  MOL d          -5.509  19.654  15.093  0.00  0.00     0.093 H 
ATOM     41  O13 MOL d          -3.259  20.388  13.491  0.00  0.00    -0.352 OA
ATOM     42  H1  MOL d          -4.070  22.195  14.140  0.00  0.00     0.123 H 
ATOM     43  H6  MOL d          -1.740  19.613  14.736  0.00  0.00     0.093 H 
BRANCH  36  44
ATOM     44  O5  MOL d          -2.726  21.150  16.375  0.00  0.00    -0.390 OA
ATOM     45  H5  MOL d          -2.120  21.426  15.699  0.00  0.00     0.210 HD
ENDBRANCH  36  44
BRANCH  37  46
ATOM     46  O3  MOL d          -5.525  21.503  16.049  0.00  0.00    -0.388 OA
ATOM     47  H3  MOL d          -6.104  21.074  16.668  0.00  0.00     0.210 HD
ENDBRANCH  37  46
BRANCH  39  48
ATOM     48  N10 MOL d          -5.430  21.135  12.923  0.00  0.00    -0.294 N 
ATOM     49  C9  MOL d          -6.194  20.011  12.522  0.00  0.00     0.070 A 
ATOM     50  N8  MOL d          -6.967  20.294  11.525  0.00  0.00    -0.238 NA
ATOM     51  H10 MOL d          -6.137  19.030  12.994  0.00  0.00     0.144 H 
ATOM     52  C12 MOL d          -6.723  21.586  11.205  0.00  0.00     0.128 A 
ATOM     53  C11 MOL d          -5.797  22.153  12.063  0.00  0.00     0.165 A 
ATOM     54  C35 MOL d          -7.297  22.425  10.233  0.00  0.00     0.064 A 
ATOM     55  N40 MOL d          -5.331  23.413  11.997  0.00  0.00    -0.222 NA
ATOM     56  C39 MOL d          -5.902  24.158  11.049  0.00  0.00     0.089 A 
ATOM     57  N38 MOL d          -6.856  23.689  10.179  0.00  0.00    -0.244 NA
ATOM     58  H24 MOL d          -5.595  25.193  10.960  0.00  0.00     0.146 H 
BRANCH  54  59
ATOM     59  C7  MOL d          -8.397  21.985   9.287  0.00  0.00    -0.033 C 
ATOM     60  H7  MOL d          -8.073  21.086   8.742  0.00  0.00     0.035 H 
ATOM     61  H8  MOL d          -8.609  22.792   8.571  0.00  0.00     0.035 H 
ATOM     62  H9  MOL d          -9.306  21.756   9.863  0.00  0.00     0.035 H 
ENDBRANCH  54  59
ENDBRANCH  39  48
ENDBRANCH   1  35
TORSDOF 11
ENDMDL
MODEL 3
REMARK VINA RESULT:      -9.2      4.437     10.652
REMARK  11 active torsions:
REMARK  status: ('A' for Active; 'I' for Inactive)
REMARK    1  A    between atoms: N10_10  and  C1_1 
REMARK    2  A    between atoms: C2_2  and  O3_3 
REMARK    3  A    between atoms: C4_4  and  O5_5 
REMARK    4  A    between atoms: C6_6  and  C14_14 
REMARK    5  A    between atoms: C35_35  and  C7_7 
REMARK    6  A    between atoms: C15_15  and  C16_16 
REMARK    7  A    between atoms: C16_16  and  N17_17 
REMARK       I    between atoms: N17_17  and  C18_18 
REMARK    8  A    between atoms: C18_18  and  C20_20 
REMARK    9  A    between atoms: C22_22  and  C24_24 
REMARK   10  A    between atoms: C31_31  and  O32_32 
REMARK   11  A    between atoms: C33_33  and  O34_34 
ROOT
ATOM      1  C14 MOL d          -6.194  16.116  17.639  0.00  0.00    -0.075 C 
ATOM      2  C15 MOL d          -7.052  16.969  18.137  0.00  0.00    -0.087 C 
ATOM      3  H11 MOL d          -5.137  16.367  17.563  0.00  0.00     0.080 H 
ATOM      4  H12 MOL d          -8.097  16.679  18.238  0.00  0.00     0.079 H 
ENDROOT
BRANCH   2   5
ATOM      5  C16 MOL d          -6.629  18.321  18.566  0.00  0.00     0.010 C 
ATOM      6  H13 MOL d          -6.099  18.289  19.529  0.00  0.00     0.070 H 
ATOM      7  H14 MOL d          -7.488  19.005  18.643  0.00  0.00     0.070 H 
BRANCH   5   8
ATOM      8  N17 MOL d          -5.735  18.708  17.476  0.00  0.00    -0.353 N 
ATOM      9  C18 MOL d          -6.078  19.887  16.875  0.00  0.00     0.254 C 
ATOM     10  O19 MOL d          -7.108  20.483  17.203  0.00  0.00    -0.268 OA
ATOM     11  H15 MOL d          -4.946  18.162  17.196  0.00  0.00     0.163 HD
BRANCH   9  12
ATOM     12  C20 MOL d          -5.286  20.300  15.715  0.00  0.00     0.068 A 
ATOM     13  C21 MOL d          -5.990  20.641  14.544  0.00  0.00    -0.054 A 
ATOM     14  C22 MOL d          -5.311  21.081  13.408  0.00  0.00    -0.022 A 
ATOM     15  H16 MOL d          -7.071  20.562  14.525  0.00  0.00     0.086 H 
ATOM     16  C23 MOL d          -3.906  21.185  13.379  0.00  0.00    -0.037 A 
ATOM     17  C33 MOL d          -3.234  20.837  14.556  0.00  0.00     0.100 A 
ATOM     18  H17 MOL d          -3.375  21.517  12.494  0.00  0.00     0.089 H 
ATOM     19  C31 MOL d          -3.902  20.454  15.719  0.00  0.00     0.114 A 
BRANCH  14  20
ATOM     20  C24 MOL d          -6.124  21.415  12.199  0.00  0.00    -0.026 A 
ATOM     21  C25 MOL d          -6.115  22.719  11.746  0.00  0.00    -0.069 A 
ATOM     22  C26 MOL d          -6.900  23.003  10.632  0.00  0.00    -0.045 A 
ATOM     23  H18 MOL d          -5.524  23.485  12.234  0.00  0.00     0.085 H 
ATOM     24  C29 MOL d          -7.605  21.944  10.065  0.00  0.00     0.116 A 
ATOM     25  H19 MOL d          -6.960  24.005  10.224  0.00  0.00     0.088 H 
ATOM     26  C28 MOL d          -7.654  20.651  10.521  0.00  0.00    -0.045 A 
ATOM     27  F30 MOL d          -8.437  22.140   8.960  0.00  0.00    -0.206 F 
ATOM     28  C27 MOL d          -6.837  20.384  11.627  0.00  0.00    -0.069 A 
ATOM     29  H21 MOL d          -8.278  19.894  10.061  0.00  0.00     0.088 H 
ATOM     30  H20 MOL d          -6.766  19.380  12.028  0.00  0.00     0.085 H 
ENDBRANCH  14  20
BRANCH  17  31
ATOM     31  O34 MOL d          -1.838  20.934  14.550  0.00  0.00    -0.358 OA
ATOM     32  H23 MOL d          -1.475  20.222  14.036  0.00  0.00     0.217 HD
ENDBRANCH  17  31
BRANCH  19  33
ATOM     33  O32 MOL d          -3.130  20.121  16.787  0.00  0.00    -0.357 OA
ATOM     34  H22 MOL d          -3.481  20.532  17.570  0.00  0.00     0.217 HD
ENDBRANCH  19  33
ENDBRANCH   9  12
ENDBRANCH   5   8
ENDBRANCH   2   5
BRANCH   1  35
ATOM     35  C6  MOL d          -6.702  14.780  17.173  0.00  0.00     0.084 C 
ATOM     36  C4  MOL d          -6.428  13.783  18.287  0.00  0.00     0.092 C 
ATOM     37  C2  MOL d          -4.992  13.408  17.913  0.00  0.00     0.105 C 
ATOM     38  H4  MOL d          -6.507  14.205  19.300  0.00  0.00     0.091 H 
ATOM     39  C1  MOL d          -5.070  13.337  16.380  0.00  0.00     0.140 C 
ATOM     40  H2  MOL d          -4.283  14.176  18.254  0.00  0.00     0.093 H 
ATOM     41  O13 MOL d          -5.983  14.358  15.965  0.00  0.00    -0.352 OA
ATOM     42  H1  MOL d          -5.441  12.347  16.075  0.00  0.00     0.123 H 
ATOM     43  H6  MOL d          -7.781  14.836  16.964  0.00  0.00     0.093 H 
BRANCH  36  44
ATOM     44  O5  MOL d          -7.355  12.703  18.102  0.00  0.00    -0.390 OA
ATOM     45  H5  MOL d          -8.227  12.992  18.342  0.00  0.00     0.210 HD
ENDBRANCH  36  44
BRANCH  37  46
ATOM     46  O3  MOL d          -4.592  12.123  18.413  0.00  0.00    -0.388 OA
ATOM     47  H3  MOL d          -3.740  11.898  18.059  0.00  0.00     0.210 HD
ENDBRANCH  37  46
BRANCH  39  48
ATOM     48  N10 MOL d          -3.760  13.581  15.748  0.00  0.00    -0.294 N 
ATOM     49  C9  MOL d          -3.466  14.568  14.775  0.00  0.00     0.070 A 
ATOM     50  N8  MOL d          -2.252  14.461  14.343  0.00  0.00    -0.238 NA
ATOM     51  H10 MOL d          -4.174  15.323  14.433  0.00  0.00     0.144 H 
ATOM     52  C12 MOL d          -1.713  13.392  14.974  0.00  0.00     0.128 A 
ATOM     53  C11 MOL d          -2.604  12.834  15.873  0.00  0.00     0.165 A 
ATOM     54  C35 MOL d          -0.421  12.838  14.919  0.00  0.00     0.064 A 
ATOM     55  N40 MOL d          -2.375  11.752  16.639  0.00  0.00    -0.222 NA
ATOM     56  C39 MOL d          -1.139  11.262  16.536  0.00  0.00     0.089 A 
ATOM     57  N38 MOL d          -0.179  11.776  15.699  0.00  0.00    -0.244 NA
ATOM     58  H24 MOL d          -0.877  10.407  17.149  0.00  0.00     0.146 H 
BRANCH  54  59
ATOM     59  C7  MOL d           0.697  13.398  14.064  0.00  0.00    -0.033 C 
ATOM     60  H7  MOL d           0.940  12.683  13.263  0.00  0.00     0.035 H 
ATOM     61  H8  MOL d           1.588  13.565  14.688  0.00  0.00     0.035 H 
ATOM     62  H9  MOL d           0.376  14.351  13.619  0.00  0.00     0.035 H 
ENDBRANCH  54  59
ENDBRANCH  39  48
ENDBRANCH   1  35
TORSDOF 11
ENDMDL
MODEL 4
REMARK VINA RESULT:      -8.9      5.092     10.181
REMARK  11 active torsions:
REMARK  status: ('A' for Active; 'I' for Inactive)
REMARK    1  A    between atoms: N10_10  and  C1_1 
REMARK    2  A    between atoms: C2_2  and  O3_3 
REMARK    3  A    between atoms: C4_4  and  O5_5 
REMARK    4  A    between atoms: C6_6  and  C14_14 
REMARK    5  A    between atoms: C35_35  and  C7_7 
REMARK    6  A    between atoms: C15_15  and  C16_16 
REMARK    7  A    between atoms: C16_16  and  N17_17 
REMARK       I    between atoms: N17_17  and  C18_18 
REMARK    8  A    between atoms: C18_18  and  C20_20 
REMARK    9  A    between atoms: C22_22  and  C24_24 
REMARK   10  A    between atoms: C31_31  and  O32_32 
REMARK   11  A    between atoms: C33_33  and  O34_34 
ROOT
ATOM      1  C14 MOL d          -3.923  13.626  13.135  0.00  0.00    -0.075 C 
ATOM      2  C15 MOL d          -3.085  13.972  14.079  0.00  0.00    -0.087 C 
ATOM      3  H11 MOL d          -4.086  14.269  12.271  0.00  0.00     0.080 H 
ATOM      4  H12 MOL d          -2.910  13.294  14.912  0.00  0.00     0.079 H 
ENDROOT
BRANCH   2   5
ATOM      5  C16 MOL d          -2.370  15.267  14.034  0.00  0.00     0.010 C 
ATOM      6  H13 MOL d          -1.910  15.437  13.050  0.00  0.00     0.070 H 
ATOM      7  H14 MOL d          -1.598  15.327  14.816  0.00  0.00     0.070 H 
BRANCH   5   8
ATOM      8  N17 MOL d          -3.458  16.211  14.286  0.00  0.00    -0.353 N 
ATOM      9  C18 MOL d          -3.060  17.518  14.294  0.00  0.00     0.254 C 
ATOM     10  O19 MOL d          -1.867  17.813  14.183  0.00  0.00    -0.268 OA
ATOM     11  H15 MOL d          -4.405  15.927  14.438  0.00  0.00     0.163 HD
BRANCH   9  12
ATOM     12  C20 MOL d          -4.073  18.522  14.629  0.00  0.00     0.068 A 
ATOM     13  C21 MOL d          -4.476  19.397  13.601  0.00  0.00    -0.054 A 
ATOM     14  C22 MOL d          -5.463  20.356  13.829  0.00  0.00    -0.022 A 
ATOM     15  H16 MOL d          -4.014  19.325  12.623  0.00  0.00     0.086 H 
ATOM     16  C23 MOL d          -6.081  20.498  15.087  0.00  0.00    -0.037 A 
ATOM     17  C33 MOL d          -5.659  19.616  16.089  0.00  0.00     0.100 A 
ATOM     18  H17 MOL d          -6.841  21.249  15.270  0.00  0.00     0.089 H 
ATOM     19  C31 MOL d          -4.717  18.613  15.860  0.00  0.00     0.114 A 
BRANCH  14  20
ATOM     20  C24 MOL d          -5.830  21.256  12.694  0.00  0.00    -0.026 A 
ATOM     21  C25 MOL d          -6.732  20.792  11.758  0.00  0.00    -0.069 A 
ATOM     22  C26 MOL d          -7.037  21.645  10.701  0.00  0.00    -0.045 A 
ATOM     23  H18 MOL d          -7.183  19.810  11.843  0.00  0.00     0.085 H 
ATOM     24  C29 MOL d          -6.421  22.895  10.695  0.00  0.00     0.116 A 
ATOM     25  H19 MOL d          -7.724  21.349   9.916  0.00  0.00     0.088 H 
ATOM     26  C28 MOL d          -5.497  23.359  11.595  0.00  0.00    -0.045 A 
ATOM     27  F30 MOL d          -6.648  23.806   9.661  0.00  0.00    -0.206 F 
ATOM     28  C27 MOL d          -5.225  22.494  12.663  0.00  0.00    -0.069 A 
ATOM     29  H21 MOL d          -5.013  24.323  11.489  0.00  0.00     0.088 H 
ATOM     30  H20 MOL d          -4.549  22.793  13.455  0.00  0.00     0.085 H 
ENDBRANCH  14  20
BRANCH  17  31
ATOM     31  O34 MOL d          -6.259  19.740  17.346  0.00  0.00    -0.358 OA
ATOM     32  H23 MOL d          -5.592  19.928  17.997  0.00  0.00     0.217 HD
ENDBRANCH  17  31
BRANCH  19  33
ATOM     33  O32 MOL d          -4.379  17.837  16.924  0.00  0.00    -0.357 OA
ATOM     34  H22 MOL d          -3.535  17.431  16.762  0.00  0.00     0.217 HD
ENDBRANCH  19  33
ENDBRANCH   9  12
ENDBRANCH   5   8
ENDBRANCH   2   5
BRANCH   1  35
ATOM     35  C6  MOL d          -4.656  12.321  13.271  0.00  0.00     0.084 C 
ATOM     36  C4  MOL d          -5.752  12.310  12.218  0.00  0.00     0.092 C 
ATOM     37  C2  MOL d          -6.839  13.044  13.007  0.00  0.00     0.105 C 
ATOM     38  H4  MOL d          -5.485  12.825  11.283  0.00  0.00     0.091 H 
ATOM     39  C1  MOL d          -6.670  12.446  14.412  0.00  0.00     0.140 C 
ATOM     40  H2  MOL d          -6.666  14.130  12.998  0.00  0.00     0.093 H 
ATOM     41  O13 MOL d          -5.269  12.221  14.601  0.00  0.00    -0.352 OA
ATOM     42  H1  MOL d          -7.220  11.496  14.478  0.00  0.00     0.123 H 
ATOM     43  H6  MOL d          -3.965  11.480  13.115  0.00  0.00     0.093 H 
BRANCH  36  44
ATOM     44  O5  MOL d          -6.070  10.931  11.978  0.00  0.00    -0.390 OA
ATOM     45  H5  MOL d          -5.267  10.441  11.852  0.00  0.00     0.210 HD
ENDBRANCH  36  44
BRANCH  37  46
ATOM     46  O3  MOL d          -8.167  12.761  12.543  0.00  0.00    -0.388 OA
ATOM     47  H3  MOL d          -8.619  13.577  12.362  0.00  0.00     0.210 HD
ENDBRANCH  37  46
BRANCH  39  48
ATOM     48  N10 MOL d          -7.153  13.361  15.464  0.00  0.00    -0.294 N 
ATOM     49  C9  MOL d          -8.458  13.905  15.572  0.00  0.00     0.070 A 
ATOM     50  N8  MOL d          -8.539  14.752  16.545  0.00  0.00    -0.238 NA
ATOM     51  H10 MOL d          -9.288  13.642  14.916  0.00  0.00     0.144 H 
ATOM     52  C12 MOL d          -7.303  14.832  17.089  0.00  0.00     0.128 A 
ATOM     53  C11 MOL d          -6.420  13.967  16.467  0.00  0.00     0.165 A 
ATOM     54  C35 MOL d          -6.819  15.564  18.189  0.00  0.00     0.064 A 
ATOM     55  N40 MOL d          -5.116  13.825  16.764  0.00  0.00    -0.222 NA
ATOM     56  C39 MOL d          -4.711  14.552  17.806  0.00  0.00     0.089 A 
ATOM     57  N38 MOL d          -5.527  15.407  18.506  0.00  0.00    -0.244 NA
ATOM     58  H24 MOL d          -3.678  14.463  18.119  0.00  0.00     0.146 H 
BRANCH  54  59
ATOM     59  C7  MOL d          -7.684  16.474  19.037  0.00  0.00    -0.033 C 
ATOM     60  H7  MOL d          -7.174  17.439  19.177  0.00  0.00     0.035 H 
ATOM     61  H8  MOL d          -7.858  16.005  20.017  0.00  0.00     0.035 H 
ATOM     62  H9  MOL d          -8.648  16.639  18.533  0.00  0.00     0.035 H 
ENDBRANCH  54  59
ENDBRANCH  39  48
ENDBRANCH   1  35
TORSDOF 11
ENDMDL
MODEL 5
REMARK VINA RESULT:      -8.7      4.495     11.501
REMARK  11 active torsions:
REMARK  status: ('A' for Active; 'I' for Inactive)
REMARK    1  A    between atoms: N10_10  and  C1_1 
REMARK    2  A    between atoms: C2_2  and  O3_3 
REMARK    3  A    between atoms: C4_4  and  O5_5 
REMARK    4  A    between atoms: C6_6  and  C14_14 
REMARK    5  A    between atoms: C35_35  and  C7_7 
REMARK    6  A    between atoms: C15_15  and  C16_16 
REMARK    7  A    between atoms: C16_16  and  N17_17 
REMARK       I    between atoms: N17_17  and  C18_18 
REMARK    8  A    between atoms: C18_18  and  C20_20 
REMARK    9  A    between atoms: C22_22  and  C24_24 
REMARK   10  A    between atoms: C31_31  and  O32_32 
REMARK   11  A    between atoms: C33_33  and  O34_34 
ROOT
ATOM      1  C14 MOL d          -3.969  14.320  13.307  0.00  0.00    -0.075 C 
ATOM      2  C15 MOL d          -2.690  14.391  13.574  0.00  0.00    -0.087 C 
ATOM      3  H11 MOL d          -4.595  15.211  13.329  0.00  0.00     0.080 H 
ATOM      4  H12 MOL d          -2.079  13.492  13.506  0.00  0.00     0.079 H 
ENDROOT
BRANCH   2   5
ATOM      5  C16 MOL d          -2.058  15.671  13.966  0.00  0.00     0.010 C 
ATOM      6  H13 MOL d          -1.400  16.053  13.172  0.00  0.00     0.070 H 
ATOM      7  H14 MOL d          -1.485  15.566  14.900  0.00  0.00     0.070 H 
BRANCH   5   8
ATOM      8  N17 MOL d          -3.227  16.530  14.151  0.00  0.00    -0.353 N 
ATOM      9  C18 MOL d          -2.915  17.847  14.341  0.00  0.00     0.254 C 
ATOM     10  O19 MOL d          -1.738  18.209  14.428  0.00  0.00    -0.268 OA
ATOM     11  H15 MOL d          -4.165  16.186  14.141  0.00  0.00     0.163 HD
BRANCH   9  12
ATOM     12  C20 MOL d          -4.025  18.760  14.624  0.00  0.00     0.068 A 
ATOM     13  C21 MOL d          -4.427  19.625  13.588  0.00  0.00    -0.054 A 
ATOM     14  C22 MOL d          -5.500  20.498  13.765  0.00  0.00    -0.022 A 
ATOM     15  H16 MOL d          -3.897  19.612  12.642  0.00  0.00     0.086 H 
ATOM     16  C23 MOL d          -6.209  20.563  14.981  0.00  0.00    -0.037 A 
ATOM     17  C33 MOL d          -5.785  19.694  15.993  0.00  0.00     0.100 A 
ATOM     18  H17 MOL d          -7.037  21.248  15.125  0.00  0.00     0.089 H 
ATOM     19  C31 MOL d          -4.753  18.773  15.811  0.00  0.00     0.114 A 
BRANCH  14  20
ATOM     20  C24 MOL d          -5.862  21.393  12.624  0.00  0.00    -0.026 A 
ATOM     21  C25 MOL d          -6.775  20.932  11.697  0.00  0.00    -0.069 A 
ATOM     22  C26 MOL d          -7.075  21.779  10.634  0.00  0.00    -0.045 A 
ATOM     23  H18 MOL d          -7.237  19.957  11.793  0.00  0.00     0.085 H 
ATOM     24  C29 MOL d          -6.443  23.021  10.614  0.00  0.00     0.116 A 
ATOM     25  H19 MOL d          -7.770  21.485   9.856  0.00  0.00     0.088 H 
ATOM     26  C28 MOL d          -5.508  23.482  11.505  0.00  0.00    -0.045 A 
ATOM     27  F30 MOL d          -6.664  23.926   9.573  0.00  0.00    -0.206 F 
ATOM     28  C27 MOL d          -5.242  22.622  12.579  0.00  0.00    -0.069 A 
ATOM     29  H21 MOL d          -5.012  24.438  11.387  0.00  0.00     0.088 H 
ATOM     30  H20 MOL d          -4.557  22.921  13.364  0.00  0.00     0.085 H 
ENDBRANCH  14  20
BRANCH  17  31
ATOM     31  O34 MOL d          -6.475  19.741  17.209  0.00  0.00    -0.358 OA
ATOM     32  H23 MOL d          -7.320  19.320  17.109  0.00  0.00     0.217 HD
ENDBRANCH  17  31
BRANCH  19  33
ATOM     33  O32 MOL d          -4.425  18.001  16.881  0.00  0.00    -0.357 OA
ATOM     34  H22 MOL d          -4.129  17.151  16.577  0.00  0.00     0.217 HD
ENDBRANCH  19  33
ENDBRANCH   9  12
ENDBRANCH   5   8
ENDBRANCH   2   5
BRANCH   1  35
ATOM     35  C6  MOL d          -4.556  12.978  12.969  0.00  0.00     0.084 C 
ATOM     36  C4  MOL d          -5.936  12.918  13.604  0.00  0.00     0.092 C 
ATOM     37  C2  MOL d          -5.529  12.430  14.996  0.00  0.00     0.105 C 
ATOM     38  H4  MOL d          -6.462  13.884  13.630  0.00  0.00     0.091 H 
ATOM     39  C1  MOL d          -4.435  11.403  14.666  0.00  0.00     0.140 C 
ATOM     40  H2  MOL d          -5.145  13.259  15.608  0.00  0.00     0.093 H 
ATOM     41  O13 MOL d          -3.725  11.906  13.530  0.00  0.00    -0.352 OA
ATOM     42  H1  MOL d          -4.898  10.434  14.428  0.00  0.00     0.123 H 
ATOM     43  H6  MOL d          -4.630  12.859  11.878  0.00  0.00     0.093 H 
BRANCH  36  44
ATOM     44  O5  MOL d          -6.681  11.941  12.864  0.00  0.00    -0.390 OA
ATOM     45  H5  MOL d          -7.400  12.368  12.414  0.00  0.00     0.210 HD
ENDBRANCH  36  44
BRANCH  37  46
ATOM     46  O3  MOL d          -6.590  11.764  15.697  0.00  0.00    -0.388 OA
ATOM     47  H3  MOL d          -7.399  11.859  15.209  0.00  0.00     0.210 HD
ENDBRANCH  37  46
BRANCH  39  48
ATOM     48  N10 MOL d          -3.488  11.227  15.783  0.00  0.00    -0.294 N 
ATOM     49  C9  MOL d          -2.855  12.259  16.522  0.00  0.00     0.070 A 
ATOM     50  N8  MOL d          -2.003  11.781  17.369  0.00  0.00    -0.238 NA
ATOM     51  H10 MOL d          -3.062  13.321  16.392  0.00  0.00     0.144 H 
ATOM     52  C12 MOL d          -2.008  10.438  17.202  0.00  0.00     0.128 A 
ATOM     53  C11 MOL d          -2.932  10.050  16.249  0.00  0.00     0.165 A 
ATOM     54  C35 MOL d          -1.309   9.419  17.874  0.00  0.00     0.064 A 
ATOM     55  N40 MOL d          -3.162   8.788  15.844  0.00  0.00    -0.222 NA
ATOM     56  C39 MOL d          -2.463   7.866  16.506  0.00  0.00     0.089 A 
ATOM     57  N38 MOL d          -1.554   8.158  17.493  0.00  0.00    -0.244 NA
ATOM     58  H24 MOL d          -2.623   6.825  16.251  0.00  0.00     0.146 H 
BRANCH  54  59
ATOM     59  C7  MOL d          -0.340   9.673  19.011  0.00  0.00    -0.033 C 
ATOM     60  H7  MOL d           0.692   9.594  18.639  0.00  0.00     0.035 H 
ATOM     61  H8  MOL d          -0.502   8.928  19.804  0.00  0.00     0.035 H 
ATOM     62  H9  MOL d          -0.507  10.683  19.416  0.00  0.00     0.035 H 
ENDBRANCH  54  59
ENDBRANCH  39  48
ENDBRANCH   1  35
TORSDOF 11
ENDMDL
MODEL 6
REMARK VINA RESULT:      -8.6      4.671      8.059
REMARK  11 active torsions:
REMARK  status: ('A' for Active; 'I' for Inactive)
REMARK    1  A    between atoms: N10_10  and  C1_1 
REMARK    2  A    between atoms: C2_2  and  O3_3 
REMARK    3  A    between atoms: C4_4  and  O5_5 
REMARK    4  A    between atoms: C6_6  and  C14_14 
REMARK    5  A    between atoms: C35_35  and  C7_7 
REMARK    6  A    between atoms: C15_15  and  C16_16 
REMARK    7  A    between atoms: C16_16  and  N17_17 
REMARK       I    between atoms: N17_17  and  C18_18 
REMARK    8  A    between atoms: C18_18  and  C20_20 
REMARK    9  A    between atoms: C22_22  and  C24_24 
REMARK   10  A    between atoms: C31_31  and  O32_32 
REMARK   11  A    between atoms: C33_33  and  O34_34 
ROOT
ATOM      1  C14 MOL d          -3.016  13.370  16.275  0.00  0.00    -0.075 C 
ATOM      2  C15 MOL d          -3.020  12.618  15.204  0.00  0.00    -0.087 C 
ATOM      3  H11 MOL d          -2.446  14.297  16.304  0.00  0.00     0.080 H 
ATOM      4  H12 MOL d          -3.631  11.716  15.187  0.00  0.00     0.079 H 
ENDROOT
BRANCH   2   5
ATOM      5  C16 MOL d          -2.211  12.970  14.016  0.00  0.00     0.010 C 
ATOM      6  H13 MOL d          -2.719  12.678  13.085  0.00  0.00     0.070 H 
ATOM      7  H14 MOL d          -1.217  12.501  14.054  0.00  0.00     0.070 H 
BRANCH   5   8
ATOM      8  N17 MOL d          -2.121  14.423  14.143  0.00  0.00    -0.353 N 
ATOM      9  C18 MOL d          -0.865  14.916  13.930  0.00  0.00     0.254 C 
ATOM     10  O19 MOL d           0.087  14.153  13.739  0.00  0.00    -0.268 OA
ATOM     11  H15 MOL d          -2.905  15.002  14.366  0.00  0.00     0.163 HD
BRANCH   9  12
ATOM     12  C20 MOL d          -0.670  16.355  14.127  0.00  0.00     0.068 A 
ATOM     13  C21 MOL d          -1.826  17.145  14.282  0.00  0.00    -0.054 A 
ATOM     14  C22 MOL d          -1.725  18.517  14.512  0.00  0.00    -0.022 A 
ATOM     15  H16 MOL d          -2.804  16.682  14.222  0.00  0.00     0.086 H 
ATOM     16  C23 MOL d          -0.476  19.166  14.582  0.00  0.00    -0.037 A 
ATOM     17  C33 MOL d           0.654  18.356  14.422  0.00  0.00     0.100 A 
ATOM     18  H17 MOL d          -0.395  20.234  14.750  0.00  0.00     0.089 H 
ATOM     19  C31 MOL d           0.571  16.973  14.252  0.00  0.00     0.114 A 
BRANCH  14  20
ATOM     20  C24 MOL d          -2.995  19.291  14.655  0.00  0.00    -0.026 A 
ATOM     21  C25 MOL d          -3.127  20.134  15.740  0.00  0.00    -0.069 A 
ATOM     22  C26 MOL d          -4.329  20.825  15.859  0.00  0.00    -0.045 A 
ATOM     23  H18 MOL d          -2.331  20.252  16.466  0.00  0.00     0.085 H 
ATOM     24  C29 MOL d          -5.281  20.619  14.861  0.00  0.00     0.116 A 
ATOM     25  H19 MOL d          -4.518  21.493  16.690  0.00  0.00     0.088 H 
ATOM     26  C28 MOL d          -5.182  19.760  13.796  0.00  0.00    -0.045 A 
ATOM     27  F30 MOL d          -6.526  21.251  14.910  0.00  0.00    -0.206 F 
ATOM     28  C27 MOL d          -3.953  19.096  13.685  0.00  0.00    -0.069 A 
ATOM     29  H21 MOL d          -5.993  19.607  13.094  0.00  0.00     0.088 H 
ATOM     30  H20 MOL d          -3.759  18.437  12.847  0.00  0.00     0.085 H 
ENDBRANCH  14  20
BRANCH  17  31
ATOM     31  O34 MOL d           1.905  18.979  14.488  0.00  0.00    -0.358 OA
ATOM     32  H23 MOL d           1.823  19.879  14.196  0.00  0.00     0.217 HD
ENDBRANCH  17  31
BRANCH  19  33
ATOM     33  O32 MOL d           1.743  16.305  14.087  0.00  0.00    -0.357 OA
ATOM     34  H22 MOL d           2.266  16.386  14.877  0.00  0.00     0.217 HD
ENDBRANCH  19  33
ENDBRANCH   9  12
ENDBRANCH   5   8
ENDBRANCH   2   5
BRANCH   1  35
ATOM     35  C6  MOL d          -3.818  12.924  17.466  0.00  0.00     0.084 C 
ATOM     36  C4  MOL d          -5.051  12.209  16.934  0.00  0.00     0.092 C 
ATOM     37  C2  MOL d          -5.956  13.427  16.734  0.00  0.00     0.105 C 
ATOM     38  H4  MOL d          -4.880  11.649  16.002  0.00  0.00     0.091 H 
ATOM     39  C1  MOL d          -5.635  14.269  17.978  0.00  0.00     0.140 C 
ATOM     40  H2  MOL d          -5.705  13.956  15.803  0.00  0.00     0.093 H 
ATOM     41  O13 MOL d          -4.243  14.086  18.254  0.00  0.00    -0.352 OA
ATOM     42  H1  MOL d          -6.241  13.920  18.828  0.00  0.00     0.123 H 
ATOM     43  H6  MOL d          -3.222  12.245  18.093  0.00  0.00     0.093 H 
BRANCH  36  44
ATOM     44  O5  MOL d          -5.502  11.343  17.985  0.00  0.00    -0.390 OA
ATOM     45  H5  MOL d          -5.793  11.866  18.722  0.00  0.00     0.210 HD
ENDBRANCH  36  44
BRANCH  37  46
ATOM     46  O3  MOL d          -7.354  13.103  16.746  0.00  0.00    -0.388 OA
ATOM     47  H3  MOL d          -7.499  12.349  17.305  0.00  0.00     0.210 HD
ENDBRANCH  37  46
BRANCH  39  48
ATOM     48  N10 MOL d          -5.894  15.704  17.756  0.00  0.00    -0.294 N 
ATOM     49  C9  MOL d          -5.055  16.614  17.064  0.00  0.00     0.070 A 
ATOM     50  N8  MOL d          -5.511  17.822  17.129  0.00  0.00    -0.238 NA
ATOM     51  H10 MOL d          -4.141  16.330  16.543  0.00  0.00     0.144 H 
ATOM     52  C12 MOL d          -6.632  17.769  17.886  0.00  0.00     0.128 A 
ATOM     53  C11 MOL d          -6.920  16.473  18.273  0.00  0.00     0.165 A 
ATOM     54  C35 MOL d          -7.549  18.771  18.254  0.00  0.00     0.064 A 
ATOM     55  N40 MOL d          -7.955  16.094  19.044  0.00  0.00    -0.222 NA
ATOM     56  C39 MOL d          -8.783  17.085  19.374  0.00  0.00     0.089 A 
ATOM     57  N38 MOL d          -8.596  18.394  19.002  0.00  0.00    -0.244 NA
ATOM     58  H24 MOL d          -9.655  16.845  19.970  0.00  0.00     0.146 H 
BRANCH  54  59
ATOM     59  C7  MOL d          -7.430  20.218  17.823  0.00  0.00    -0.033 C 
ATOM     60  H7  MOL d          -8.050  20.848  18.479  0.00  0.00     0.035 H 
ATOM     61  H8  MOL d          -7.775  20.321  16.783  0.00  0.00     0.035 H 
ATOM     62  H9  MOL d          -6.380  20.537  17.894  0.00  0.00     0.035 H 
ENDBRANCH  54  59
ENDBRANCH  39  48
ENDBRANCH   1  35
TORSDOF 11
ENDMDL
MODEL 7
REMARK VINA RESULT:      -8.3      4.966     10.472
REMARK  11 active torsions:
REMARK  status: ('A' for Active; 'I' for Inactive)
REMARK    1  A    between atoms: N10_10  and  C1_1 
REMARK    2  A    between atoms: C2_2  and  O3_3 
REMARK    3  A    between atoms: C4_4  and  O5_5 
REMARK    4  A    between atoms: C6_6  and  C14_14 
REMARK    5  A    between atoms: C35_35  and  C7_7 
REMARK    6  A    between atoms: C15_15  and  C16_16 
REMARK    7  A    between atoms: C16_16  and  N17_17 
REMARK       I    between atoms: N17_17  and  C18_18 
REMARK    8  A    between atoms: C18_18  and  C20_20 
REMARK    9  A    between atoms: C22_22  and  C24_24 
REMARK   10  A    between atoms: C31_31  and  O32_32 
REMARK   11  A    between atoms: C33_33  and  O34_34 
ROOT
ATOM      1  C14 MOL d          -2.554  12.949  15.660  0.00  0.00    -0.075 C 
ATOM      2  C15 MOL d          -3.177  14.096  15.570  0.00  0.00    -0.087 C 
ATOM      3  H11 MOL d          -1.729  12.708  14.991  0.00  0.00     0.080 H 
ATOM      4  H12 MOL d          -3.972  14.329  16.276  0.00  0.00     0.079 H 
ENDROOT
BRANCH   2   5
ATOM      5  C16 MOL d          -2.821  15.083  14.526  0.00  0.00     0.010 C 
ATOM      6  H13 MOL d          -2.940  14.661  13.517  0.00  0.00     0.070 H 
ATOM      7  H14 MOL d          -1.791  15.447  14.651  0.00  0.00     0.070 H 
BRANCH   5   8
ATOM      8  N17 MOL d          -3.796  16.143  14.780  0.00  0.00    -0.353 N 
ATOM      9  C18 MOL d          -3.333  17.395  14.492  0.00  0.00     0.254 C 
ATOM     10  O19 MOL d          -2.164  17.568  14.137  0.00  0.00    -0.268 OA
ATOM     11  H15 MOL d          -4.715  15.967  15.132  0.00  0.00     0.163 HD
BRANCH   9  12
ATOM     12  C20 MOL d          -4.217  18.521  14.804  0.00  0.00     0.068 A 
ATOM     13  C21 MOL d          -4.584  19.365  13.738  0.00  0.00    -0.054 A 
ATOM     14  C22 MOL d          -5.453  20.437  13.945  0.00  0.00    -0.022 A 
ATOM     15  H16 MOL d          -4.187  19.181  12.746  0.00  0.00     0.086 H 
ATOM     16  C23 MOL d          -5.981  20.726  15.219  0.00  0.00    -0.037 A 
ATOM     17  C33 MOL d          -5.597  19.871  16.259  0.00  0.00     0.100 A 
ATOM     18  H17 MOL d          -6.648  21.564  15.385  0.00  0.00     0.089 H 
ATOM     19  C31 MOL d          -4.778  18.760  16.056  0.00  0.00     0.114 A 
BRANCH  14  20
ATOM     20  C24 MOL d          -5.787  21.296  12.769  0.00  0.00    -0.026 A 
ATOM     21  C25 MOL d          -6.657  20.795  11.822  0.00  0.00    -0.069 A 
ATOM     22  C26 MOL d          -6.932  21.609  10.727  0.00  0.00    -0.045 A 
ATOM     23  H18 MOL d          -7.105  19.813  11.926  0.00  0.00     0.085 H 
ATOM     24  C29 MOL d          -6.322  22.862  10.697  0.00  0.00     0.116 A 
ATOM     25  H19 MOL d          -7.592  21.283   9.931  0.00  0.00     0.088 H 
ATOM     26  C28 MOL d          -5.429  23.362  11.610  0.00  0.00    -0.045 A 
ATOM     27  F30 MOL d          -6.520  23.736   9.626  0.00  0.00    -0.206 F 
ATOM     28  C27 MOL d          -5.188  22.535  12.716  0.00  0.00    -0.069 A 
ATOM     29  H21 MOL d          -4.947  24.324  11.486  0.00  0.00     0.088 H 
ATOM     30  H20 MOL d          -4.539  22.866  13.518  0.00  0.00     0.085 H 
ENDBRANCH  14  20
BRANCH  17  31
ATOM     31  O34 MOL d          -6.110  20.139  17.532  0.00  0.00    -0.358 OA
ATOM     32  H23 MOL d          -6.698  20.884  17.485  0.00  0.00     0.217 HD
ENDBRANCH  17  31
BRANCH  19  33
ATOM     33  O32 MOL d          -4.463  18.023  17.153  0.00  0.00    -0.357 OA
ATOM     34  H22 MOL d          -4.721  17.119  17.011  0.00  0.00     0.217 HD
ENDBRANCH  19  33
ENDBRANCH   9  12
ENDBRANCH   5   8
ENDBRANCH   2   5
BRANCH   1  35
ATOM     35  C6  MOL d          -3.003  11.971  16.710  0.00  0.00     0.084 C 
ATOM     36  C4  MOL d          -2.685  10.578  16.190  0.00  0.00     0.092 C 
ATOM     37  C2  MOL d          -3.957  10.340  15.373  0.00  0.00     0.105 C 
ATOM     38  H4  MOL d          -1.771  10.522  15.580  0.00  0.00     0.091 H 
ATOM     39  C1  MOL d          -5.037  10.946  16.282  0.00  0.00     0.140 C 
ATOM     40  H2  MOL d          -3.902  10.853  14.401  0.00  0.00     0.093 H 
ATOM     41  O13 MOL d          -4.451  12.084  16.920  0.00  0.00    -0.352 OA
ATOM     42  H1  MOL d          -5.345  10.204  17.034  0.00  0.00     0.123 H 
ATOM     43  H6  MOL d          -2.473  12.159  17.655  0.00  0.00     0.093 H 
BRANCH  36  44
ATOM     44  O5  MOL d          -2.592   9.727  17.342  0.00  0.00    -0.390 OA
ATOM     45  H5  MOL d          -2.046  10.143  17.998  0.00  0.00     0.210 HD
ENDBRANCH  36  44
BRANCH  37  46
ATOM     46  O3  MOL d          -4.250   8.950  15.171  0.00  0.00    -0.388 OA
ATOM     47  H3  MOL d          -4.920   8.863  14.503  0.00  0.00     0.210 HD
ENDBRANCH  37  46
BRANCH  39  48
ATOM     48  N10 MOL d          -6.221  11.382  15.518  0.00  0.00    -0.294 N 
ATOM     49  C9  MOL d          -7.577  11.215  15.899  0.00  0.00     0.070 A 
ATOM     50  N8  MOL d          -8.383  11.612  14.969  0.00  0.00    -0.238 NA
ATOM     51  H10 MOL d          -7.899  10.803  16.855  0.00  0.00     0.144 H 
ATOM     52  C12 MOL d          -7.607  12.017  13.937  0.00  0.00     0.128 A 
ATOM     53  C11 MOL d          -6.262  11.916  14.245  0.00  0.00     0.165 A 
ATOM     54  C35 MOL d          -7.942  12.574  12.689  0.00  0.00     0.064 A 
ATOM     55  N40 MOL d          -5.241  12.223  13.423  0.00  0.00    -0.222 NA
ATOM     56  C39 MOL d          -5.618  12.734  12.251  0.00  0.00     0.089 A 
ATOM     57  N38 MOL d          -6.928  12.906  11.877  0.00  0.00    -0.244 NA
ATOM     58  H24 MOL d          -4.846  13.032  11.552  0.00  0.00     0.146 H 
BRANCH  54  59
ATOM     59  C7  MOL d          -9.365  12.845  12.245  0.00  0.00    -0.033 C 
ATOM     60  H7  MOL d         -10.013  12.016  12.565  0.00  0.00     0.035 H 
ATOM     61  H8  MOL d          -9.397  12.932  11.148  0.00  0.00     0.035 H 
ATOM     62  H9  MOL d          -9.718  13.783  12.698  0.00  0.00     0.035 H 
ENDBRANCH  54  59
ENDBRANCH  39  48
ENDBRANCH   1  35
TORSDOF 11
ENDMDL
