MODEL 1
REMARK VINA RESULT:      -7.8      0.000      0.000
REMARK  11 active torsions:
REMARK  status: ('A' for Active; 'I' for Inactive)
REMARK    1  A    between atoms: C2_1  and  C1_2 
REMARK    2  A    between atoms: C1_2  and  C3_3 
REMARK    3  A    between atoms: C3_3  and  C4_4 
REMARK       I    between atoms: C4_4  and  N1_6 
REMARK    4  A    between atoms: N1_6  and  C5_7 
REMARK    5  A    between atoms: C6_8  and  O2_9 
REMARK    6  A    between atoms: C7_10  and  O3_11 
REMARK    7  A    between atoms: C8_12  and  C9_13 
REMARK    8  A    between atoms: C9_13  and  O4_14 
REMARK    9  A    between atoms: N2_17  and  O6_18 
REMARK   10  A    between atoms: O6_18  and  C11_19 
REMARK       I    between atoms: C11_19  and  N3_21 
REMARK   11  A    between atoms: N3_21  and  C12_22 
ROOT
ATOM      1  C5  NP6 d          -8.109 -12.236   8.030  0.00  0.00     0.105 C 
ATOM      2  C6  NP6 d          -8.935 -11.832   9.263  0.00  0.00     0.089 C 
ATOM      3  C7  NP6 d          -8.091 -11.038  10.247  0.00  0.00     0.090 C 
ATOM      4  C8  NP6 d          -7.647  -9.750   9.557  0.00  0.00     0.094 C 
ATOM      5  O5  NP6 d          -6.843 -10.043   8.423  0.00  0.00    -0.324 OA
ATOM      6  C10 NP6 d          -6.912 -11.280   7.830  0.00  0.00     0.194 C 
ATOM      7  N2  NP6 d          -5.872 -11.645   7.081  0.00  0.00    -0.100 NA
ATOM      8  H9  NP6 d          -7.694 -13.236   8.225  0.00  0.00     0.090 H 
ATOM      9  H10 NP6 d          -9.778 -11.206   8.936  0.00  0.00     0.090 H 
ATOM     10  H12 NP6 d          -7.218 -11.630  10.557  0.00  0.00     0.091 H 
ATOM     11  H14 NP6 d          -8.561  -9.240   9.220  0.00  0.00     0.091 H 
ENDROOT
BRANCH   1  12
ATOM     12  N1  NP6 d          -8.967 -12.351   6.812  0.00  0.00    -0.346 N 
ATOM     13  C4  NP6 d          -9.856 -13.322   6.567  0.00  0.00     0.218 C 
ATOM     14  O1  NP6 d         -10.089 -14.268   7.327  0.00  0.00    -0.274 OA
ATOM     15  H8  NP6 d          -8.869 -11.638   6.118  0.00  0.00     0.163 HD
BRANCH  13  16
ATOM     16  C3  NP6 d         -10.593 -13.198   5.215  0.00  0.00     0.009 C 
ATOM     17  H6  NP6 d         -10.020 -13.718   4.433  0.00  0.00     0.047 H 
ATOM     18  H7  NP6 d         -11.593 -13.648   5.296  0.00  0.00     0.047 H 
BRANCH  16  19
ATOM     19  C1  NP6 d         -10.725 -11.726   4.858  0.00  0.00    -0.061 C 
ATOM     20  H4  NP6 d         -11.073 -11.178   5.745  0.00  0.00     0.033 H 
ATOM     21  H5  NP6 d          -9.737 -11.347   4.556  0.00  0.00     0.033 H 
BRANCH  19  22
ATOM     22  C2  NP6 d         -11.709 -11.486   3.719  0.00  0.00    -0.076 C 
ATOM     23  H1  NP6 d         -11.652 -12.321   3.004  0.00  0.00     0.027 H 
ATOM     24  H2  NP6 d         -11.456 -10.546   3.208  0.00  0.00     0.027 H 
ATOM     25  H3  NP6 d         -12.729 -11.421   4.124  0.00  0.00     0.027 H 
ENDBRANCH  19  22
ENDBRANCH  16  19
ENDBRANCH  13  16
ENDBRANCH   1  12
BRANCH   7  26
ATOM     26  O6  NP6 d          -4.800 -10.792   6.963  0.00  0.00    -0.153 OA
BRANCH  26  27
ATOM     27  C11 NP6 d          -3.831 -10.968   7.935  0.00  0.00     0.389 C 
ATOM     28  O7  NP6 d          -3.155 -12.004   7.946  0.00  0.00    -0.236 OA
ATOM     29  N3  NP6 d          -3.660  -9.965   8.830  0.00  0.00    -0.301 N 
ATOM     30  H18 NP6 d          -4.207  -9.146   8.658  0.00  0.00     0.171 HD
BRANCH  29  31
ATOM     31  C12 NP6 d          -2.860  -9.902   9.923  0.00  0.00     0.036 A 
ATOM     32  C13 NP6 d          -3.459 -10.028  11.182  0.00  0.00    -0.057 A 
ATOM     33  C14 NP6 d          -2.701  -9.997  12.358  0.00  0.00    -0.081 A 
ATOM     34  H19 NP6 d          -4.534 -10.153  11.247  0.00  0.00     0.086 H 
ATOM     35  C15 NP6 d          -1.312  -9.846  12.287  0.00  0.00    -0.083 A 
ATOM     36  H20 NP6 d          -3.189 -10.089  13.322  0.00  0.00     0.083 H 
ATOM     37  C16 NP6 d          -0.698  -9.741  11.037  0.00  0.00    -0.081 A 
ATOM     38  H21 NP6 d          -0.718  -9.809  13.193  0.00  0.00     0.083 H 
ATOM     39  C17 NP6 d          -1.465  -9.770   9.865  0.00  0.00    -0.057 A 
ATOM     40  H22 NP6 d           0.379  -9.638  10.974  0.00  0.00     0.083 H 
ATOM     41  H23 NP6 d          -0.974  -9.691   8.901  0.00  0.00     0.086 H 
ENDBRANCH  29  31
ENDBRANCH  26  27
ENDBRANCH   7  26
BRANCH   2  42
ATOM     42  O2  NP6 d          -9.442 -12.997   9.894  0.00  0.00    -0.390 OA
ATOM     43  H11 NP6 d          -8.934 -13.751   9.619  0.00  0.00     0.210 HD
ENDBRANCH   2  42
BRANCH   4  44
ATOM     44  C9  NP6 d          -6.842  -8.747  10.418  0.00  0.00     0.044 C 
ATOM     45  H15 NP6 d          -6.430  -7.962   9.767  0.00  0.00     0.078 H 
ATOM     46  H16 NP6 d          -6.018  -9.279  10.916  0.00  0.00     0.078 H 
BRANCH  44  47
ATOM     47  O4  NP6 d          -7.671  -8.145  11.405  0.00  0.00    -0.398 OA
ATOM     48  H17 NP6 d          -8.049  -8.822  11.954  0.00  0.00     0.209 HD
ENDBRANCH  44  47
ENDBRANCH   4  44
BRANCH   3  49
ATOM     49  O3  NP6 d          -8.869 -10.674  11.397  0.00  0.00    -0.390 OA
ATOM     50  H13 NP6 d          -9.552 -10.067  11.136  0.00  0.00     0.210 HD
ENDBRANCH   3  49
TORSDOF 11
ENDMDL
MODEL 2
REMARK VINA RESULT:      -7.1      1.798      7.462
REMARK  11 active torsions:
REMARK  status: ('A' for Active; 'I' for Inactive)
REMARK    1  A    between atoms: C2_1  and  C1_2 
REMARK    2  A    between atoms: C1_2  and  C3_3 
REMARK    3  A    between atoms: C3_3  and  C4_4 
REMARK       I    between atoms: C4_4  and  N1_6 
REMARK    4  A    between atoms: N1_6  and  C5_7 
REMARK    5  A    between atoms: C6_8  and  O2_9 
REMARK    6  A    between atoms: C7_10  and  O3_11 
REMARK    7  A    between atoms: C8_12  and  C9_13 
REMARK    8  A    between atoms: C9_13  and  O4_14 
REMARK    9  A    between atoms: N2_17  and  O6_18 
REMARK   10  A    between atoms: O6_18  and  C11_19 
REMARK       I    between atoms: C11_19  and  N3_21 
REMARK   11  A    between atoms: N3_21  and  C12_22 
ROOT
ATOM      1  C5  NP6 d          -4.786 -10.180   9.742  0.00  0.00     0.105 C 
ATOM      2  C6  NP6 d          -5.659  -9.052  10.321  0.00  0.00     0.089 C 
ATOM      3  C7  NP6 d          -7.133  -9.317  10.058  0.00  0.00     0.090 C 
ATOM      4  C8  NP6 d          -7.518 -10.606  10.779  0.00  0.00     0.094 C 
ATOM      5  O5  NP6 d          -6.775 -11.705  10.270  0.00  0.00    -0.324 OA
ATOM      6  C10 NP6 d          -5.593 -11.488   9.605  0.00  0.00     0.194 C 
ATOM      7  N2  NP6 d          -5.173 -12.461   8.797  0.00  0.00    -0.100 NA
ATOM      8  H9  NP6 d          -4.488  -9.876   8.728  0.00  0.00     0.090 H 
ATOM      9  H10 NP6 d          -5.499  -9.002  11.408  0.00  0.00     0.090 H 
ATOM     10  H12 NP6 d          -7.310  -9.413   8.977  0.00  0.00     0.091 H 
ATOM     11  H14 NP6 d          -7.259 -10.466  11.839  0.00  0.00     0.091 H 
ENDROOT
BRANCH   1  12
ATOM     12  N1  NP6 d          -3.529 -10.355  10.531  0.00  0.00    -0.346 N 
ATOM     13  C4  NP6 d          -2.283 -10.315  10.041  0.00  0.00     0.218 C 
ATOM     14  O1  NP6 d          -2.001 -10.124   8.854  0.00  0.00    -0.274 OA
ATOM     15  H8  NP6 d          -3.627 -10.517  11.512  0.00  0.00     0.163 HD
BRANCH  13  16
ATOM     16  C3  NP6 d          -1.170 -10.548  11.087  0.00  0.00     0.009 C 
ATOM     17  H6  NP6 d          -1.385 -11.463  11.658  0.00  0.00     0.047 H 
ATOM     18  H7  NP6 d          -0.201 -10.655  10.578  0.00  0.00     0.047 H 
BRANCH  16  19
ATOM     19  C1  NP6 d          -1.121  -9.357  12.031  0.00  0.00    -0.061 C 
ATOM     20  H4  NP6 d          -2.151  -9.057  12.273  0.00  0.00     0.033 H 
ATOM     21  H5  NP6 d          -0.601  -9.658  12.952  0.00  0.00     0.033 H 
BRANCH  19  22
ATOM     22  C2  NP6 d          -0.393  -8.162  11.427  0.00  0.00    -0.076 C 
ATOM     23  H1  NP6 d           0.025  -7.542  12.234  0.00  0.00     0.027 H 
ATOM     24  H2  NP6 d          -1.099  -7.564  10.833  0.00  0.00     0.027 H 
ATOM     25  H3  NP6 d           0.422  -8.518  10.779  0.00  0.00     0.027 H 
ENDBRANCH  19  22
ENDBRANCH  16  19
ENDBRANCH  13  16
ENDBRANCH   1  12
BRANCH   7  26
ATOM     26  O6  NP6 d          -5.940 -13.594   8.658  0.00  0.00    -0.153 OA
BRANCH  26  27
ATOM     27  C11 NP6 d          -6.793 -13.567   7.567  0.00  0.00     0.389 C 
ATOM     28  O7  NP6 d          -6.488 -14.177   6.535  0.00  0.00    -0.236 OA
ATOM     29  N3  NP6 d          -7.949 -12.872   7.701  0.00  0.00    -0.301 N 
ATOM     30  H18 NP6 d          -8.116 -12.499   8.614  0.00  0.00     0.171 HD
BRANCH  29  31
ATOM     31  C12 NP6 d          -8.914 -12.605   6.786  0.00  0.00     0.036 A 
ATOM     32  C13 NP6 d          -9.728 -13.663   6.366  0.00  0.00    -0.057 A 
ATOM     33  C14 NP6 d         -10.761 -13.468   5.442  0.00  0.00    -0.081 A 
ATOM     34  H19 NP6 d          -9.556 -14.656   6.765  0.00  0.00     0.086 H 
ATOM     35  C15 NP6 d         -11.000 -12.189   4.926  0.00  0.00    -0.083 A 
ATOM     36  H20 NP6 d         -11.374 -14.304   5.126  0.00  0.00     0.083 H 
ATOM     37  C16 NP6 d         -10.210 -11.120   5.353  0.00  0.00    -0.081 A 
ATOM     38  H21 NP6 d         -11.791 -12.030   4.202  0.00  0.00     0.083 H 
ATOM     39  C17 NP6 d          -9.176 -11.326   6.277  0.00  0.00    -0.057 A 
ATOM     40  H22 NP6 d         -10.398 -10.124   4.969  0.00  0.00     0.083 H 
ATOM     41  H23 NP6 d          -8.572 -10.486   6.601  0.00  0.00     0.086 H 
ENDBRANCH  29  31
ENDBRANCH  26  27
ENDBRANCH   7  26
BRANCH   2  42
ATOM     42  O2  NP6 d          -5.280  -7.815   9.740  0.00  0.00    -0.390 OA
ATOM     43  H11 NP6 d          -4.907  -7.254  10.409  0.00  0.00     0.210 HD
ENDBRANCH   2  42
BRANCH   4  44
ATOM     44  C9  NP6 d          -9.010 -11.016  10.713  0.00  0.00     0.044 C 
ATOM     45  H15 NP6 d          -9.540 -10.592  11.578  0.00  0.00     0.078 H 
ATOM     46  H16 NP6 d          -9.083 -12.113  10.740  0.00  0.00     0.078 H 
BRANCH  44  47
ATOM     47  O4  NP6 d          -9.614 -10.539   9.517  0.00  0.00    -0.398 OA
ATOM     48  H17 NP6 d         -10.545 -10.417   9.661  0.00  0.00     0.209 HD
ENDBRANCH  44  47
ENDBRANCH   4  44
BRANCH   3  49
ATOM     49  O3  NP6 d          -7.937  -8.257  10.595  0.00  0.00    -0.390 OA
ATOM     50  H13 NP6 d          -7.393  -7.493  10.744  0.00  0.00     0.210 HD
ENDBRANCH   3  49
TORSDOF 11
ENDMDL
MODEL 3
REMARK VINA RESULT:      -6.8      2.356      7.479
REMARK  11 active torsions:
REMARK  status: ('A' for Active; 'I' for Inactive)
REMARK    1  A    between atoms: C2_1  and  C1_2 
REMARK    2  A    between atoms: C1_2  and  C3_3 
REMARK    3  A    between atoms: C3_3  and  C4_4 
REMARK       I    between atoms: C4_4  and  N1_6 
REMARK    4  A    between atoms: N1_6  and  C5_7 
REMARK    5  A    between atoms: C6_8  and  O2_9 
REMARK    6  A    between atoms: C7_10  and  O3_11 
REMARK    7  A    between atoms: C8_12  and  C9_13 
REMARK    8  A    between atoms: C9_13  and  O4_14 
REMARK    9  A    between atoms: N2_17  and  O6_18 
REMARK   10  A    between atoms: O6_18  and  C11_19 
REMARK       I    between atoms: C11_19  and  N3_21 
REMARK   11  A    between atoms: N3_21  and  C12_22 
ROOT
ATOM      1  C5  NP6 d          -4.552 -11.656   9.009  0.00  0.00     0.105 C 
ATOM      2  C6  NP6 d          -4.487 -10.149   9.314  0.00  0.00     0.089 C 
ATOM      3  C7  NP6 d          -5.882  -9.552   9.405  0.00  0.00     0.090 C 
ATOM      4  C8  NP6 d          -6.606 -10.220  10.572  0.00  0.00     0.094 C 
ATOM      5  O5  NP6 d          -6.738 -11.617  10.345  0.00  0.00    -0.324 OA
ATOM      6  C10 NP6 d          -5.904 -12.252   9.458  0.00  0.00     0.194 C 
ATOM      7  N2  NP6 d          -6.328 -13.416   8.966  0.00  0.00    -0.100 NA
ATOM      8  H9  NP6 d          -4.494 -11.774   7.917  0.00  0.00     0.090 H 
ATOM      9  H10 NP6 d          -3.977 -10.003  10.277  0.00  0.00     0.090 H 
ATOM     10  H12 NP6 d          -6.427  -9.723   8.466  0.00  0.00     0.091 H 
ATOM     11  H14 NP6 d          -5.981 -10.065  11.464  0.00  0.00     0.091 H 
ENDROOT
BRANCH   1  12
ATOM     12  N1  NP6 d          -3.380 -12.380   9.589  0.00  0.00    -0.346 N 
ATOM     13  C4  NP6 d          -3.075 -12.465  10.891  0.00  0.00     0.218 C 
ATOM     14  O1  NP6 d          -3.732 -11.948  11.800  0.00  0.00    -0.274 OA
ATOM     15  H8  NP6 d          -2.769 -12.843   8.947  0.00  0.00     0.163 HD
BRANCH  13  16
ATOM     16  C3  NP6 d          -1.790 -13.264  11.203  0.00  0.00     0.009 C 
ATOM     17  H6  NP6 d          -0.992 -12.966  10.508  0.00  0.00     0.047 H 
ATOM     18  H7  NP6 d          -1.471 -13.063  12.235  0.00  0.00     0.047 H 
BRANCH  16  19
ATOM     19  C1  NP6 d          -2.080 -14.748  11.039  0.00  0.00    -0.061 C 
ATOM     20  H4  NP6 d          -2.920 -14.869  10.339  0.00  0.00     0.033 H 
ATOM     21  H5  NP6 d          -1.186 -15.239  10.628  0.00  0.00     0.033 H 
BRANCH  19  22
ATOM     22  C2  NP6 d          -2.444 -15.421  12.357  0.00  0.00    -0.076 C 
ATOM     23  H1  NP6 d          -2.776 -14.659  13.079  0.00  0.00     0.027 H 
ATOM     24  H2  NP6 d          -1.564 -15.946  12.757  0.00  0.00     0.027 H 
ATOM     25  H3  NP6 d          -3.256 -16.144  12.188  0.00  0.00     0.027 H 
ENDBRANCH  19  22
ENDBRANCH  16  19
ENDBRANCH  13  16
ENDBRANCH   1  12
BRANCH   7  26
ATOM     26  O6  NP6 d          -7.559 -13.896   9.346  0.00  0.00    -0.153 OA
BRANCH  26  27
ATOM     27  C11 NP6 d          -8.616 -13.366   8.628  0.00  0.00     0.389 C 
ATOM     28  O7  NP6 d          -9.707 -13.189   9.184  0.00  0.00    -0.236 OA
ATOM     29  N3  NP6 d          -8.387 -13.046   7.331  0.00  0.00    -0.301 N 
ATOM     30  H18 NP6 d          -7.440 -13.155   7.029  0.00  0.00     0.171 HD
BRANCH  29  31
ATOM     31  C12 NP6 d          -9.245 -12.599   6.381  0.00  0.00     0.036 A 
ATOM     32  C13 NP6 d          -9.886 -13.550   5.578  0.00  0.00    -0.057 A 
ATOM     33  C14 NP6 d         -10.803 -13.174   4.589  0.00  0.00    -0.081 A 
ATOM     34  H19 NP6 d          -9.667 -14.602   5.724  0.00  0.00     0.086 H 
ATOM     35  C15 NP6 d         -11.101 -11.821   4.397  0.00  0.00    -0.083 A 
ATOM     36  H20 NP6 d         -11.280 -13.929   3.975  0.00  0.00     0.083 H 
ATOM     37  C16 NP6 d         -10.487 -10.863   5.205  0.00  0.00    -0.081 A 
ATOM     38  H21 NP6 d         -11.802 -11.519   3.626  0.00  0.00     0.083 H 
ATOM     39  C17 NP6 d          -9.567 -11.248   6.190  0.00  0.00    -0.057 A 
ATOM     40  H22 NP6 d         -10.723  -9.813   5.071  0.00  0.00     0.083 H 
ATOM     41  H23 NP6 d          -9.100 -10.493   6.812  0.00  0.00     0.086 H 
ENDBRANCH  29  31
ENDBRANCH  26  27
ENDBRANCH   7  26
BRANCH   2  42
ATOM     42  O2  NP6 d          -3.749  -9.493   8.296  0.00  0.00    -0.390 OA
ATOM     43  H11 NP6 d          -2.869  -9.849   8.265  0.00  0.00     0.210 HD
ENDBRANCH   2  42
BRANCH   4  44
ATOM     44  C9  NP6 d          -8.025  -9.693  10.899  0.00  0.00     0.044 C 
ATOM     45  H15 NP6 d          -8.534  -9.424   9.962  0.00  0.00     0.078 H 
ATOM     46  H16 NP6 d          -7.940  -8.803  11.539  0.00  0.00     0.078 H 
BRANCH  44  47
ATOM     47  O4  NP6 d          -8.790 -10.682  11.576  0.00  0.00    -0.398 OA
ATOM     48  H17 NP6 d          -9.527 -10.269  12.010  0.00  0.00     0.209 HD
ENDBRANCH  44  47
ENDBRANCH   4  44
BRANCH   3  49
ATOM     49  O3  NP6 d          -5.810  -8.146   9.681  0.00  0.00    -0.390 OA
ATOM     50  H13 NP6 d          -6.462  -7.689   9.163  0.00  0.00     0.210 HD
ENDBRANCH   3  49
TORSDOF 11
ENDMDL
MODEL 4
REMARK VINA RESULT:      -6.8      3.191      4.640
REMARK  11 active torsions:
REMARK  status: ('A' for Active; 'I' for Inactive)
REMARK    1  A    between atoms: C2_1  and  C1_2 
REMARK    2  A    between atoms: C1_2  and  C3_3 
REMARK    3  A    between atoms: C3_3  and  C4_4 
REMARK       I    between atoms: C4_4  and  N1_6 
REMARK    4  A    between atoms: N1_6  and  C5_7 
REMARK    5  A    between atoms: C6_8  and  O2_9 
REMARK    6  A    between atoms: C7_10  and  O3_11 
REMARK    7  A    between atoms: C8_12  and  C9_13 
REMARK    8  A    between atoms: C9_13  and  O4_14 
REMARK    9  A    between atoms: N2_17  and  O6_18 
REMARK   10  A    between atoms: O6_18  and  C11_19 
REMARK       I    between atoms: C11_19  and  N3_21 
REMARK   11  A    between atoms: N3_21  and  C12_22 
ROOT
ATOM      1  C5  NP6 d          -8.106 -12.504   8.807  0.00  0.00     0.105 C 
ATOM      2  C6  NP6 d          -8.504 -11.206   9.532  0.00  0.00     0.089 C 
ATOM      3  C7  NP6 d          -7.479 -10.841  10.595  0.00  0.00     0.090 C 
ATOM      4  C8  NP6 d          -6.146 -10.582   9.897  0.00  0.00     0.094 C 
ATOM      5  O5  NP6 d          -5.694 -11.753   9.232  0.00  0.00    -0.324 OA
ATOM      6  C10 NP6 d          -6.584 -12.746   8.903  0.00  0.00     0.194 C 
ATOM      7  N2  NP6 d          -6.077 -13.959   8.690  0.00  0.00    -0.100 NA
ATOM      8  H9  NP6 d          -8.599 -13.336   9.331  0.00  0.00     0.090 H 
ATOM      9  H10 NP6 d          -8.554 -10.390   8.797  0.00  0.00     0.090 H 
ATOM     10  H12 NP6 d          -7.381 -11.662  11.320  0.00  0.00     0.091 H 
ATOM     11  H14 NP6 d          -6.328  -9.798   9.147  0.00  0.00     0.091 H 
ENDROOT
BRANCH   1  12
ATOM     12  N1  NP6 d          -8.607 -12.517   7.400  0.00  0.00    -0.346 N 
ATOM     13  C4  NP6 d          -9.567 -13.316   6.915  0.00  0.00     0.218 C 
ATOM     14  O1  NP6 d         -10.176 -14.163   7.578  0.00  0.00    -0.274 OA
ATOM     15  H8  NP6 d          -8.189 -11.871   6.762  0.00  0.00     0.163 HD
BRANCH  13  16
ATOM     16  C3  NP6 d          -9.871 -13.125   5.413  0.00  0.00     0.009 C 
ATOM     17  H6  NP6 d          -8.934 -13.172   4.838  0.00  0.00     0.047 H 
ATOM     18  H7  NP6 d         -10.552 -13.917   5.069  0.00  0.00     0.047 H 
BRANCH  16  19
ATOM     19  C1  NP6 d         -10.525 -11.767   5.210  0.00  0.00    -0.061 C 
ATOM     20  H4  NP6 d         -11.104 -11.517   6.111  0.00  0.00     0.033 H 
ATOM     21  H5  NP6 d          -9.736 -11.015   5.061  0.00  0.00     0.033 H 
BRANCH  19  22
ATOM     22  C2  NP6 d         -11.458 -11.742   4.006  0.00  0.00    -0.076 C 
ATOM     23  H1  NP6 d         -10.983 -11.185   3.185  0.00  0.00     0.027 H 
ATOM     24  H2  NP6 d         -12.403 -11.251   4.284  0.00  0.00     0.027 H 
ATOM     25  H3  NP6 d         -11.664 -12.772   3.679  0.00  0.00     0.027 H 
ENDBRANCH  19  22
ENDBRANCH  16  19
ENDBRANCH  13  16
ENDBRANCH   1  12
BRANCH   7  26
ATOM     26  O6  NP6 d          -4.723 -14.154   8.831  0.00  0.00    -0.153 OA
BRANCH  26  27
ATOM     27  C11 NP6 d          -4.000 -13.944   7.670  0.00  0.00     0.389 C 
ATOM     28  O7  NP6 d          -3.387 -12.882   7.513  0.00  0.00    -0.236 OA
ATOM     29  N3  NP6 d          -3.990 -14.946   6.757  0.00  0.00    -0.301 N 
ATOM     30  H18 NP6 d          -4.452 -15.785   7.043  0.00  0.00     0.171 HD
BRANCH  29  31
ATOM     31  C12 NP6 d          -3.448 -14.983   5.514  0.00  0.00     0.036 A 
ATOM     32  C13 NP6 d          -2.062 -14.831   5.398  0.00  0.00    -0.057 A 
ATOM     33  C14 NP6 d          -1.422 -14.880   4.154  0.00  0.00    -0.081 A 
ATOM     34  H19 NP6 d          -1.470 -14.672   6.292  0.00  0.00     0.086 H 
ATOM     35  C15 NP6 d          -2.174 -15.095   2.994  0.00  0.00    -0.083 A 
ATOM     36  H20 NP6 d          -0.348 -14.752   4.090  0.00  0.00     0.083 H 
ATOM     37  C16 NP6 d          -3.555 -15.271   3.096  0.00  0.00    -0.081 A 
ATOM     38  H21 NP6 d          -1.689 -15.123   2.025  0.00  0.00     0.083 H 
ATOM     39  C17 NP6 d          -4.187 -15.217   4.346  0.00  0.00    -0.057 A 
ATOM     40  H22 NP6 d          -4.143 -15.451   2.203  0.00  0.00     0.083 H 
ATOM     41  H23 NP6 d          -5.261 -15.358   4.409  0.00  0.00     0.086 H 
ENDBRANCH  29  31
ENDBRANCH  26  27
ENDBRANCH   7  26
BRANCH   2  42
ATOM     42  O2  NP6 d          -9.780 -11.370  10.129  0.00  0.00    -0.390 OA
ATOM     43  H11 NP6 d         -10.338 -11.871   9.548  0.00  0.00     0.210 HD
ENDBRANCH   2  42
BRANCH   4  44
ATOM     44  C9  NP6 d          -4.977 -10.107  10.794  0.00  0.00     0.044 C 
ATOM     45  H15 NP6 d          -4.961  -9.008  10.815  0.00  0.00     0.078 H 
ATOM     46  H16 NP6 d          -4.030 -10.479  10.378  0.00  0.00     0.078 H 
BRANCH  44  47
ATOM     47  O4  NP6 d          -5.126 -10.596  12.121  0.00  0.00    -0.398 OA
ATOM     48  H17 NP6 d          -4.275 -10.631  12.542  0.00  0.00     0.209 HD
ENDBRANCH  44  47
ENDBRANCH   4  44
BRANCH   3  49
ATOM     49  O3  NP6 d          -7.863  -9.635  11.270  0.00  0.00    -0.390 OA
ATOM     50  H13 NP6 d          -7.090  -9.112  11.446  0.00  0.00     0.210 HD
ENDBRANCH   3  49
TORSDOF 11
ENDMDL
MODEL 5
REMARK VINA RESULT:      -6.6      2.243      2.886
REMARK  11 active torsions:
REMARK  status: ('A' for Active; 'I' for Inactive)
REMARK    1  A    between atoms: C2_1  and  C1_2 
REMARK    2  A    between atoms: C1_2  and  C3_3 
REMARK    3  A    between atoms: C3_3  and  C4_4 
REMARK       I    between atoms: C4_4  and  N1_6 
REMARK    4  A    between atoms: N1_6  and  C5_7 
REMARK    5  A    between atoms: C6_8  and  O2_9 
REMARK    6  A    between atoms: C7_10  and  O3_11 
REMARK    7  A    between atoms: C8_12  and  C9_13 
REMARK    8  A    between atoms: C9_13  and  O4_14 
REMARK    9  A    between atoms: N2_17  and  O6_18 
REMARK   10  A    between atoms: O6_18  and  C11_19 
REMARK       I    between atoms: C11_19  and  N3_21 
REMARK   11  A    between atoms: N3_21  and  C12_22 
ROOT
ATOM      1  C5  NP6 d          -8.095 -12.454   8.797  0.00  0.00     0.105 C 
ATOM      2  C6  NP6 d          -8.509 -11.176   9.548  0.00  0.00     0.089 C 
ATOM      3  C7  NP6 d          -7.501 -10.833  10.634  0.00  0.00     0.090 C 
ATOM      4  C8  NP6 d          -6.159 -10.551   9.962  0.00  0.00     0.094 C 
ATOM      5  O5  NP6 d          -5.693 -11.705   9.275  0.00  0.00    -0.324 OA
ATOM      6  C10 NP6 d          -6.574 -12.692   8.909  0.00  0.00     0.194 C 
ATOM      7  N2  NP6 d          -6.058 -13.898   8.674  0.00  0.00    -0.100 NA
ATOM      8  H9  NP6 d          -8.592 -13.301   9.294  0.00  0.00     0.090 H 
ATOM      9  H10 NP6 d          -8.552 -10.342   8.832  0.00  0.00     0.090 H 
ATOM     10  H12 NP6 d          -7.410 -11.671  11.340  0.00  0.00     0.091 H 
ATOM     11  H14 NP6 d          -6.334  -9.750   9.228  0.00  0.00     0.091 H 
ENDROOT
BRANCH   1  12
ATOM     12  N1  NP6 d          -8.576 -12.435   7.383  0.00  0.00    -0.346 N 
ATOM     13  C4  NP6 d          -9.565 -13.185   6.879  0.00  0.00     0.218 C 
ATOM     14  O1  NP6 d         -10.222 -14.007   7.527  0.00  0.00    -0.274 OA
ATOM     15  H8  NP6 d          -8.119 -11.805   6.756  0.00  0.00     0.163 HD
BRANCH  13  16
ATOM     16  C3  NP6 d          -9.837 -12.970   5.374  0.00  0.00     0.009 C 
ATOM     17  H6  NP6 d          -8.883 -12.927   4.828  0.00  0.00     0.047 H 
ATOM     18  H7  NP6 d         -10.444 -13.801   4.986  0.00  0.00     0.047 H 
BRANCH  16  19
ATOM     19  C1  NP6 d         -10.589 -11.661   5.190  0.00  0.00    -0.061 C 
ATOM     20  H4  NP6 d         -11.179 -11.463   6.097  0.00  0.00     0.033 H 
ATOM     21  H5  NP6 d          -9.858 -10.852   5.045  0.00  0.00     0.033 H 
BRANCH  19  22
ATOM     22  C2  NP6 d         -11.530 -11.690   3.992  0.00  0.00    -0.076 C 
ATOM     23  H1  NP6 d         -12.507 -11.275   4.283  0.00  0.00     0.027 H 
ATOM     24  H2  NP6 d         -11.659 -12.728   3.652  0.00  0.00     0.027 H 
ATOM     25  H3  NP6 d         -11.104 -11.087   3.177  0.00  0.00     0.027 H 
ENDBRANCH  19  22
ENDBRANCH  16  19
ENDBRANCH  13  16
ENDBRANCH   1  12
BRANCH   7  26
ATOM     26  O6  NP6 d          -4.706 -14.091   8.830  0.00  0.00    -0.153 OA
BRANCH  26  27
ATOM     27  C11 NP6 d          -3.933 -13.464   7.867  0.00  0.00     0.389 C 
ATOM     28  O7  NP6 d          -4.216 -13.599   6.671  0.00  0.00    -0.236 OA
ATOM     29  N3  NP6 d          -2.897 -12.705   8.301  0.00  0.00    -0.301 N 
ATOM     30  H18 NP6 d          -2.830 -12.607   9.293  0.00  0.00     0.171 HD
BRANCH  29  31
ATOM     31  C12 NP6 d          -1.938 -12.058   7.593  0.00  0.00     0.036 A 
ATOM     32  C13 NP6 d          -1.930 -10.659   7.626  0.00  0.00    -0.057 A 
ATOM     33  C14 NP6 d          -0.961  -9.917   6.941  0.00  0.00    -0.081 A 
ATOM     34  H19 NP6 d          -2.693 -10.138   8.194  0.00  0.00     0.086 H 
ATOM     35  C15 NP6 d           0.034 -10.578   6.212  0.00  0.00    -0.083 A 
ATOM     36  H20 NP6 d          -0.981  -8.834   6.976  0.00  0.00     0.083 H 
ATOM     37  C16 NP6 d           0.053 -11.974   6.189  0.00  0.00    -0.081 A 
ATOM     38  H21 NP6 d           0.783 -10.011   5.670  0.00  0.00     0.083 H 
ATOM     39  C17 NP6 d          -0.924 -12.708   6.875  0.00  0.00    -0.057 A 
ATOM     40  H22 NP6 d           0.828 -12.492   5.638  0.00  0.00     0.083 H 
ATOM     41  H23 NP6 d          -0.895 -13.792   6.849  0.00  0.00     0.086 H 
ENDBRANCH  29  31
ENDBRANCH  26  27
ENDBRANCH   7  26
BRANCH   2  42
ATOM     42  O2  NP6 d          -9.792 -11.359  10.123  0.00  0.00    -0.390 OA
ATOM     43  H11 NP6 d         -10.426 -11.519   9.434  0.00  0.00     0.210 HD
ENDBRANCH   2  42
BRANCH   4  44
ATOM     44  C9  NP6 d          -5.005 -10.095  10.887  0.00  0.00     0.044 C 
ATOM     45  H15 NP6 d          -5.008  -8.997  10.953  0.00  0.00     0.078 H 
ATOM     46  H16 NP6 d          -4.048 -10.433  10.463  0.00  0.00     0.078 H 
BRANCH  44  47
ATOM     47  O4  NP6 d          -5.155 -10.640  12.192  0.00  0.00    -0.398 OA
ATOM     48  H17 NP6 d          -4.383 -10.439  12.709  0.00  0.00     0.209 HD
ENDBRANCH  44  47
ENDBRANCH   4  44
BRANCH   3  49
ATOM     49  O3  NP6 d          -7.900  -9.645  11.332  0.00  0.00    -0.390 OA
ATOM     50  H13 NP6 d          -8.186  -9.875  12.208  0.00  0.00     0.210 HD
ENDBRANCH   3  49
TORSDOF 11
ENDMDL
MODEL 6
REMARK VINA RESULT:      -6.3      2.592      7.089
REMARK  11 active torsions:
REMARK  status: ('A' for Active; 'I' for Inactive)
REMARK    1  A    between atoms: C2_1  and  C1_2 
REMARK    2  A    between atoms: C1_2  and  C3_3 
REMARK    3  A    between atoms: C3_3  and  C4_4 
REMARK       I    between atoms: C4_4  and  N1_6 
REMARK    4  A    between atoms: N1_6  and  C5_7 
REMARK    5  A    between atoms: C6_8  and  O2_9 
REMARK    6  A    between atoms: C7_10  and  O3_11 
REMARK    7  A    between atoms: C8_12  and  C9_13 
REMARK    8  A    between atoms: C9_13  and  O4_14 
REMARK    9  A    between atoms: N2_17  and  O6_18 
REMARK   10  A    between atoms: O6_18  and  C11_19 
REMARK       I    between atoms: C11_19  and  N3_21 
REMARK   11  A    between atoms: N3_21  and  C12_22 
ROOT
ATOM      1  C5  NP6 d          -3.215 -11.957   8.100  0.00  0.00     0.105 C 
ATOM      2  C6  NP6 d          -1.985 -11.940   9.026  0.00  0.00     0.089 C 
ATOM      3  C7  NP6 d          -2.108 -10.844  10.072  0.00  0.00     0.090 C 
ATOM      4  C8  NP6 d          -3.326 -11.154  10.940  0.00  0.00     0.094 C 
ATOM      5  O5  NP6 d          -4.511 -11.150  10.157  0.00  0.00    -0.324 OA
ATOM      6  C10 NP6 d          -4.439 -11.325   8.797  0.00  0.00     0.194 C 
ATOM      7  N2  NP6 d          -5.477 -10.894   8.081  0.00  0.00    -0.100 NA
ATOM      8  H9  NP6 d          -2.978 -11.329   7.229  0.00  0.00     0.090 H 
ATOM      9  H10 NP6 d          -1.913 -12.910   9.539  0.00  0.00     0.090 H 
ATOM     10  H12 NP6 d          -2.224  -9.866   9.582  0.00  0.00     0.091 H 
ATOM     11  H14 NP6 d          -3.176 -12.164  11.349  0.00  0.00     0.091 H 
ENDROOT
BRANCH   1  12
ATOM     12  N1  NP6 d          -3.488 -13.332   7.584  0.00  0.00    -0.346 N 
ATOM     13  C4  NP6 d          -2.826 -13.946   6.594  0.00  0.00     0.218 C 
ATOM     14  O1  NP6 d          -1.886 -13.448   5.965  0.00  0.00    -0.274 OA
ATOM     15  H8  NP6 d          -4.232 -13.841   8.017  0.00  0.00     0.163 HD
BRANCH  13  16
ATOM     16  C3  NP6 d          -3.338 -15.363   6.255  0.00  0.00     0.009 C 
ATOM     17  H6  NP6 d          -2.514 -15.965   5.843  0.00  0.00     0.047 H 
ATOM     18  H7  NP6 d          -3.722 -15.845   7.166  0.00  0.00     0.047 H 
BRANCH  16  19
ATOM     19  C1  NP6 d          -4.453 -15.253   5.228  0.00  0.00    -0.061 C 
ATOM     20  H4  NP6 d          -5.139 -16.103   5.359  0.00  0.00     0.033 H 
ATOM     21  H5  NP6 d          -4.998 -14.313   5.398  0.00  0.00     0.033 H 
BRANCH  19  22
ATOM     22  C2  NP6 d          -3.932 -15.263   3.796  0.00  0.00    -0.076 C 
ATOM     23  H1  NP6 d          -3.632 -16.286   3.522  0.00  0.00     0.027 H 
ATOM     24  H2  NP6 d          -3.064 -14.593   3.716  0.00  0.00     0.027 H 
ATOM     25  H3  NP6 d          -4.724 -14.919   3.115  0.00  0.00     0.027 H 
ENDBRANCH  19  22
ENDBRANCH  16  19
ENDBRANCH  13  16
ENDBRANCH   1  12
BRANCH   7  26
ATOM     26  O6  NP6 d          -6.531 -10.291   8.726  0.00  0.00    -0.153 OA
BRANCH  26  27
ATOM     27  C11 NP6 d          -7.774 -10.669   8.249  0.00  0.00     0.389 C 
ATOM     28  O7  NP6 d          -8.785 -10.440   8.924  0.00  0.00    -0.236 OA
ATOM     29  N3  NP6 d          -7.817 -11.268   7.034  0.00  0.00    -0.301 N 
ATOM     30  H18 NP6 d          -6.941 -11.314   6.554  0.00  0.00     0.171 HD
BRANCH  29  31
ATOM     31  C12 NP6 d          -8.866 -11.813   6.369  0.00  0.00     0.036 A 
ATOM     32  C13 NP6 d          -9.728 -10.948   5.684  0.00  0.00    -0.057 A 
ATOM     33  C14 NP6 d         -10.821 -11.432   4.955  0.00  0.00    -0.081 A 
ATOM     34  H19 NP6 d          -9.545  -9.880   5.718  0.00  0.00     0.086 H 
ATOM     35  C15 NP6 d         -11.062 -12.809   4.896  0.00  0.00    -0.083 A 
ATOM     36  H20 NP6 d         -11.478 -10.742   4.439  0.00  0.00     0.083 H 
ATOM     37  C16 NP6 d         -10.198 -13.685   5.556  0.00  0.00    -0.081 A 
ATOM     38  H21 NP6 d         -11.912 -13.192   4.343  0.00  0.00     0.083 H 
ATOM     39  C17 NP6 d          -9.108 -13.191   6.286  0.00  0.00    -0.057 A 
ATOM     40  H22 NP6 d         -10.370 -14.754   5.503  0.00  0.00     0.083 H 
ATOM     41  H23 NP6 d          -8.444 -13.883   6.791  0.00  0.00     0.086 H 
ENDBRANCH  29  31
ENDBRANCH  26  27
ENDBRANCH   7  26
BRANCH   2  42
ATOM     42  O2  NP6 d          -0.814 -11.738   8.252  0.00  0.00    -0.390 OA
ATOM     43  H11 NP6 d          -0.871 -10.901   7.806  0.00  0.00     0.210 HD
ENDBRANCH   2  42
BRANCH   4  44
ATOM     44  C9  NP6 d          -3.586 -10.201  12.133  0.00  0.00     0.044 C 
ATOM     45  H15 NP6 d          -2.622  -9.842  12.525  0.00  0.00     0.078 H 
ATOM     46  H16 NP6 d          -4.121 -10.748  12.922  0.00  0.00     0.078 H 
BRANCH  44  47
ATOM     47  O4  NP6 d          -4.368  -9.084  11.728  0.00  0.00    -0.398 OA
ATOM     48  H17 NP6 d          -4.080  -8.310  12.198  0.00  0.00     0.209 HD
ENDBRANCH  44  47
ENDBRANCH   4  44
BRANCH   3  49
ATOM     49  O3  NP6 d          -0.954 -10.831  10.925  0.00  0.00    -0.390 OA
ATOM     50  H13 NP6 d          -0.738  -9.934  11.150  0.00  0.00     0.210 HD
ENDBRANCH   3  49
TORSDOF 11
ENDMDL
MODEL 7
REMARK VINA RESULT:      -5.9      2.847      7.816
REMARK  11 active torsions:
REMARK  status: ('A' for Active; 'I' for Inactive)
REMARK    1  A    between atoms: C2_1  and  C1_2 
REMARK    2  A    between atoms: C1_2  and  C3_3 
REMARK    3  A    between atoms: C3_3  and  C4_4 
REMARK       I    between atoms: C4_4  and  N1_6 
REMARK    4  A    between atoms: N1_6  and  C5_7 
REMARK    5  A    between atoms: C6_8  and  O2_9 
REMARK    6  A    between atoms: C7_10  and  O3_11 
REMARK    7  A    between atoms: C8_12  and  C9_13 
REMARK    8  A    between atoms: C9_13  and  O4_14 
REMARK    9  A    between atoms: N2_17  and  O6_18 
REMARK   10  A    between atoms: O6_18  and  C11_19 
REMARK       I    between atoms: C11_19  and  N3_21 
REMARK   11  A    between atoms: N3_21  and  C12_22 
ROOT
ATOM      1  C5  NP6 d          -2.115 -10.772   8.279  0.00  0.00     0.105 C 
ATOM      2  C6  NP6 d          -1.234 -10.128   9.364  0.00  0.00     0.089 C 
ATOM      3  C7  NP6 d          -2.087  -9.533  10.474  0.00  0.00     0.090 C 
ATOM      4  C8  NP6 d          -2.862 -10.670  11.135  0.00  0.00     0.094 C 
ATOM      5  O5  NP6 d          -3.730 -11.293  10.198  0.00  0.00    -0.324 OA
ATOM      6  C10 NP6 d          -3.493 -11.170   8.851  0.00  0.00     0.194 C 
ATOM      7  N2  NP6 d          -4.527 -11.386   8.038  0.00  0.00    -0.100 NA
ATOM      8  H9  NP6 d          -2.294 -10.010   7.506  0.00  0.00     0.090 H 
ATOM      9  H10 NP6 d          -0.582 -10.900   9.796  0.00  0.00     0.090 H 
ATOM     10  H12 NP6 d          -2.778  -8.786  10.057  0.00  0.00     0.091 H 
ATOM     11  H14 NP6 d          -2.119 -11.407  11.472  0.00  0.00     0.091 H 
ENDROOT
BRANCH   1  12
ATOM     12  N1  NP6 d          -1.414 -11.911   7.614  0.00  0.00    -0.346 N 
ATOM     13  C4  NP6 d          -0.506 -11.810   6.633  0.00  0.00     0.218 C 
ATOM     14  O1  NP6 d          -0.123 -10.745   6.140  0.00  0.00    -0.274 OA
ATOM     15  H8  NP6 d          -1.642 -12.832   7.929  0.00  0.00     0.163 HD
BRANCH  13  16
ATOM     16  C3  NP6 d           0.043 -13.159   6.118  0.00  0.00     0.009 C 
ATOM     17  H6  NP6 d           1.067 -13.021   5.741  0.00  0.00     0.047 H 
ATOM     18  H7  NP6 d           0.050 -13.892   6.939  0.00  0.00     0.047 H 
BRANCH  16  19
ATOM     19  C1  NP6 d          -0.851 -13.661   4.996  0.00  0.00    -0.061 C 
ATOM     20  H4  NP6 d          -0.967 -14.750   5.096  0.00  0.00     0.033 H 
ATOM     21  H5  NP6 d          -1.835 -13.177   5.087  0.00  0.00     0.033 H 
BRANCH  19  22
ATOM     22  C2  NP6 d          -0.283 -13.355   3.615  0.00  0.00    -0.076 C 
ATOM     23  H1  NP6 d          -0.727 -14.040   2.877  0.00  0.00     0.027 H 
ATOM     24  H2  NP6 d           0.809 -13.489   3.630  0.00  0.00     0.027 H 
ATOM     25  H3  NP6 d          -0.522 -12.317   3.341  0.00  0.00     0.027 H 
ENDBRANCH  19  22
ENDBRANCH  16  19
ENDBRANCH  13  16
ENDBRANCH   1  12
BRANCH   7  26
ATOM     26  O6  NP6 d          -5.753 -11.690   8.580  0.00  0.00    -0.153 OA
BRANCH  26  27
ATOM     27  C11 NP6 d          -6.630 -12.286   7.690  0.00  0.00     0.389 C 
ATOM     28  O7  NP6 d          -6.301 -13.327   7.110  0.00  0.00    -0.236 OA
ATOM     29  N3  NP6 d          -7.835 -11.691   7.515  0.00  0.00    -0.301 N 
ATOM     30  H18 NP6 d          -8.011 -10.905   8.108  0.00  0.00     0.171 HD
BRANCH  29  31
ATOM     31  C12 NP6 d          -8.839 -11.998   6.656  0.00  0.00     0.036 A 
ATOM     32  C13 NP6 d          -9.544 -10.941   6.067  0.00  0.00    -0.057 A 
ATOM     33  C14 NP6 d         -10.579 -11.173   5.153  0.00  0.00    -0.081 A 
ATOM     34  H19 NP6 d          -9.282  -9.921   6.324  0.00  0.00     0.086 H 
ATOM     35  C15 NP6 d         -10.920 -12.485   4.807  0.00  0.00    -0.083 A 
ATOM     36  H20 NP6 d         -11.115 -10.338   4.716  0.00  0.00     0.083 H 
ATOM     37  C16 NP6 d         -10.211 -13.548   5.370  0.00  0.00    -0.081 A 
ATOM     38  H21 NP6 d         -11.727 -12.674   4.109  0.00  0.00     0.083 H 
ATOM     39  C17 NP6 d          -9.178 -13.307   6.286  0.00  0.00    -0.057 A 
ATOM     40  H22 NP6 d         -10.461 -14.566   5.096  0.00  0.00     0.083 H 
ATOM     41  H23 NP6 d          -8.635 -14.142   6.713  0.00  0.00     0.086 H 
ENDBRANCH  29  31
ENDBRANCH  26  27
ENDBRANCH   7  26
BRANCH   2  42
ATOM     42  O2  NP6 d          -0.430  -9.116   8.780  0.00  0.00    -0.390 OA
ATOM     43  H11 NP6 d           0.391  -9.495   8.488  0.00  0.00     0.210 HD
ENDBRANCH   2  42
BRANCH   4  44
ATOM     44  C9  NP6 d          -3.735 -10.292  12.357  0.00  0.00     0.044 C 
ATOM     45  H15 NP6 d          -3.778  -9.197  12.445  0.00  0.00     0.078 H 
ATOM     46  H16 NP6 d          -3.283 -10.715  13.266  0.00  0.00     0.078 H 
BRANCH  44  47
ATOM     47  O4  NP6 d          -5.055 -10.800  12.213  0.00  0.00    -0.398 OA
ATOM     48  H17 NP6 d          -5.459 -10.878  13.071  0.00  0.00     0.209 HD
ENDBRANCH  44  47
ENDBRANCH   4  44
BRANCH   3  49
ATOM     49  O3  NP6 d          -1.257  -8.928  11.475  0.00  0.00    -0.390 OA
ATOM     50  H13 NP6 d          -0.680  -8.293  11.066  0.00  0.00     0.210 HD
ENDBRANCH   3  49
TORSDOF 11
ENDMDL
MODEL 8
REMARK VINA RESULT:      -5.9      2.080      7.993
REMARK  11 active torsions:
REMARK  status: ('A' for Active; 'I' for Inactive)
REMARK    1  A    between atoms: C2_1  and  C1_2 
REMARK    2  A    between atoms: C1_2  and  C3_3 
REMARK    3  A    between atoms: C3_3  and  C4_4 
REMARK       I    between atoms: C4_4  and  N1_6 
REMARK    4  A    between atoms: N1_6  and  C5_7 
REMARK    5  A    between atoms: C6_8  and  O2_9 
REMARK    6  A    between atoms: C7_10  and  O3_11 
REMARK    7  A    between atoms: C8_12  and  C9_13 
REMARK    8  A    between atoms: C9_13  and  O4_14 
REMARK    9  A    between atoms: N2_17  and  O6_18 
REMARK   10  A    between atoms: O6_18  and  C11_19 
REMARK       I    between atoms: C11_19  and  N3_21 
REMARK   11  A    between atoms: N3_21  and  C12_22 
ROOT
ATOM      1  C5  NP6 d          -4.178 -11.289  11.308  0.00  0.00     0.105 C 
ATOM      2  C6  NP6 d          -3.456 -12.537  10.768  0.00  0.00     0.089 C 
ATOM      3  C7  NP6 d          -4.194 -13.118   9.573  0.00  0.00     0.090 C 
ATOM      4  C8  NP6 d          -4.188 -12.073   8.460  0.00  0.00     0.094 C 
ATOM      5  O5  NP6 d          -4.874 -10.899   8.873  0.00  0.00    -0.324 OA
ATOM      6  C10 NP6 d          -5.045 -10.636  10.210  0.00  0.00     0.194 C 
ATOM      7  N2  NP6 d          -6.029  -9.797  10.535  0.00  0.00    -0.100 NA
ATOM      8  H9  NP6 d          -4.861 -11.624  12.103  0.00  0.00     0.090 H 
ATOM      9  H10 NP6 d          -2.442 -12.251  10.451  0.00  0.00     0.090 H 
ATOM     10  H12 NP6 d          -5.226 -13.373   9.856  0.00  0.00     0.091 H 
ATOM     11  H14 NP6 d          -3.135 -11.819   8.269  0.00  0.00     0.091 H 
ENDROOT
BRANCH   1  12
ATOM     12  N1  NP6 d          -3.217 -10.331  11.933  0.00  0.00    -0.346 N 
ATOM     13  C4  NP6 d          -2.186  -9.738  11.315  0.00  0.00     0.218 C 
ATOM     14  O1  NP6 d          -1.888  -9.906  10.129  0.00  0.00    -0.274 OA
ATOM     15  H8  NP6 d          -3.355 -10.114  12.898  0.00  0.00     0.163 HD
BRANCH  13  16
ATOM     16  C3  NP6 d          -1.344  -8.805  12.214  0.00  0.00     0.009 C 
ATOM     17  H6  NP6 d          -1.807  -7.808  12.249  0.00  0.00     0.047 H 
ATOM     18  H7  NP6 d          -1.292  -9.221  13.231  0.00  0.00     0.047 H 
BRANCH  16  19
ATOM     19  C1  NP6 d           0.058  -8.697  11.637  0.00  0.00    -0.061 C 
ATOM     20  H4  NP6 d           0.786  -8.908  12.435  0.00  0.00     0.033 H 
ATOM     21  H5  NP6 d           0.168  -9.442  10.835  0.00  0.00     0.033 H 
BRANCH  19  22
ATOM     22  C2  NP6 d           0.349  -7.315  11.064  0.00  0.00    -0.076 C 
ATOM     23  H1  NP6 d           0.285  -6.565  11.866  0.00  0.00     0.027 H 
ATOM     24  H2  NP6 d          -0.387  -7.080  10.281  0.00  0.00     0.027 H 
ATOM     25  H3  NP6 d           1.360  -7.303  10.631  0.00  0.00     0.027 H 
ENDBRANCH  19  22
ENDBRANCH  16  19
ENDBRANCH  13  16
ENDBRANCH   1  12
BRANCH   7  26
ATOM     26  O6  NP6 d          -6.816  -9.270   9.538  0.00  0.00    -0.153 OA
BRANCH  26  27
ATOM     27  C11 NP6 d          -7.832 -10.112   9.118  0.00  0.00     0.389 C 
ATOM     28  O7  NP6 d          -8.651 -10.540   9.940  0.00  0.00    -0.236 OA
ATOM     29  N3  NP6 d          -7.883 -10.411   7.797  0.00  0.00    -0.301 N 
ATOM     30  H18 NP6 d          -7.217  -9.931   7.227  0.00  0.00     0.171 HD
BRANCH  29  31
ATOM     31  C12 NP6 d          -8.701 -11.264   7.131  0.00  0.00     0.036 A 
ATOM     32  C13 NP6 d          -9.547 -10.729   6.152  0.00  0.00    -0.057 A 
ATOM     33  C14 NP6 d         -10.405 -11.543   5.403  0.00  0.00    -0.081 A 
ATOM     34  H19 NP6 d          -9.537  -9.660   5.969  0.00  0.00     0.086 H 
ATOM     35  C15 NP6 d         -10.420 -12.925   5.623  0.00  0.00    -0.083 A 
ATOM     36  H20 NP6 d         -11.056 -11.105   4.656  0.00  0.00     0.083 H 
ATOM     37  C16 NP6 d          -9.565 -13.475   6.581  0.00  0.00    -0.081 A 
ATOM     38  H21 NP6 d         -11.089 -13.562   5.056  0.00  0.00     0.083 H 
ATOM     39  C17 NP6 d          -8.712 -12.651   7.328  0.00  0.00    -0.057 A 
ATOM     40  H22 NP6 d          -9.562 -14.546   6.747  0.00  0.00     0.083 H 
ATOM     41  H23 NP6 d          -8.053 -13.093   8.067  0.00  0.00     0.086 H 
ENDBRANCH  29  31
ENDBRANCH  26  27
ENDBRANCH   7  26
BRANCH   2  42
ATOM     42  O2  NP6 d          -3.361 -13.510  11.796  0.00  0.00    -0.390 OA
ATOM     43  H11 NP6 d          -4.162 -13.507  12.307  0.00  0.00     0.210 HD
ENDBRANCH   2  42
BRANCH   4  44
ATOM     44  C9  NP6 d          -4.818 -12.497   7.110  0.00  0.00     0.044 C 
ATOM     45  H15 NP6 d          -5.014 -11.599   6.506  0.00  0.00     0.078 H 
ATOM     46  H16 NP6 d          -5.765 -13.021   7.304  0.00  0.00     0.078 H 
BRANCH  44  47
ATOM     47  O4  NP6 d          -3.946 -13.360   6.393  0.00  0.00    -0.398 OA
ATOM     48  H17 NP6 d          -4.037 -14.247   6.723  0.00  0.00     0.209 HD
ENDBRANCH  44  47
ENDBRANCH   4  44
BRANCH   3  49
ATOM     49  O3  NP6 d          -3.517 -14.284   9.083  0.00  0.00    -0.390 OA
ATOM     50  H13 NP6 d          -3.568 -14.304   8.135  0.00  0.00     0.210 HD
ENDBRANCH   3  49
TORSDOF 11
ENDMDL
MODEL 9
REMARK VINA RESULT:      -5.5      2.344      4.160
REMARK  11 active torsions:
REMARK  status: ('A' for Active; 'I' for Inactive)
REMARK    1  A    between atoms: C2_1  and  C1_2 
REMARK    2  A    between atoms: C1_2  and  C3_3 
REMARK    3  A    between atoms: C3_3  and  C4_4 
REMARK       I    between atoms: C4_4  and  N1_6 
REMARK    4  A    between atoms: N1_6  and  C5_7 
REMARK    5  A    between atoms: C6_8  and  O2_9 
REMARK    6  A    between atoms: C7_10  and  O3_11 
REMARK    7  A    between atoms: C8_12  and  C9_13 
REMARK    8  A    between atoms: C9_13  and  O4_14 
REMARK    9  A    between atoms: N2_17  and  O6_18 
REMARK   10  A    between atoms: O6_18  and  C11_19 
REMARK       I    between atoms: C11_19  and  N3_21 
REMARK   11  A    between atoms: N3_21  and  C12_22 
ROOT
ATOM      1  C5  NP6 d          -5.789 -12.959   7.591  0.00  0.00     0.105 C 
ATOM      2  C6  NP6 d          -4.832 -14.111   7.236  0.00  0.00     0.089 C 
ATOM      3  C7  NP6 d          -3.571 -14.051   8.083  0.00  0.00     0.090 C 
ATOM      4  C8  NP6 d          -3.976 -14.230   9.545  0.00  0.00     0.094 C 
ATOM      5  O5  NP6 d          -4.834 -13.176   9.958  0.00  0.00    -0.324 OA
ATOM      6  C10 NP6 d          -5.529 -12.447   9.024  0.00  0.00     0.194 C 
ATOM      7  N2  NP6 d          -5.958 -11.243   9.402  0.00  0.00    -0.100 NA
ATOM      8  H9  NP6 d          -5.568 -12.127   6.906  0.00  0.00     0.090 H 
ATOM      9  H10 NP6 d          -5.342 -15.067   7.429  0.00  0.00     0.090 H 
ATOM     10  H12 NP6 d          -3.066 -13.085   7.938  0.00  0.00     0.091 H 
ATOM     11  H14 NP6 d          -4.526 -15.180   9.608  0.00  0.00     0.091 H 
ENDROOT
BRANCH   1  12
ATOM     12  N1  NP6 d          -7.214 -13.344   7.363  0.00  0.00    -0.346 N 
ATOM     13  C4  NP6 d          -8.175 -12.546   6.878  0.00  0.00     0.218 C 
ATOM     14  O1  NP6 d          -8.009 -11.367   6.550  0.00  0.00    -0.274 OA
ATOM     15  H8  NP6 d          -7.474 -14.281   7.592  0.00  0.00     0.163 HD
BRANCH  13  16
ATOM     16  C3  NP6 d          -9.568 -13.207   6.765  0.00  0.00     0.009 C 
ATOM     17  H6  NP6 d          -9.534 -14.216   7.200  0.00  0.00     0.047 H 
ATOM     18  H7  NP6 d         -10.309 -12.600   7.305  0.00  0.00     0.047 H 
BRANCH  16  19
ATOM     19  C1  NP6 d          -9.954 -13.296   5.297  0.00  0.00    -0.061 C 
ATOM     20  H4  NP6 d          -9.044 -13.198   4.687  0.00  0.00     0.033 H 
ATOM     21  H5  NP6 d         -10.414 -14.278   5.114  0.00  0.00     0.033 H 
BRANCH  19  22
ATOM     22  C2  NP6 d         -10.939 -12.209   4.884  0.00  0.00    -0.076 C 
ATOM     23  H1  NP6 d         -10.812 -11.333   5.537  0.00  0.00     0.027 H 
ATOM     24  H2  NP6 d         -11.966 -12.591   4.977  0.00  0.00     0.027 H 
ATOM     25  H3  NP6 d         -10.749 -11.919   3.841  0.00  0.00     0.027 H 
ENDBRANCH  19  22
ENDBRANCH  16  19
ENDBRANCH  13  16
ENDBRANCH   1  12
BRANCH   7  26
ATOM     26  O6  NP6 d          -5.668 -10.796  10.669  0.00  0.00    -0.153 OA
BRANCH  26  27
ATOM     27  C11 NP6 d          -4.584  -9.938  10.729  0.00  0.00     0.389 C 
ATOM     28  O7  NP6 d          -4.771  -8.718  10.807  0.00  0.00    -0.236 OA
ATOM     29  N3  NP6 d          -3.349 -10.497  10.717  0.00  0.00    -0.301 N 
ATOM     30  H18 NP6 d          -3.336 -11.496  10.741  0.00  0.00     0.171 HD
BRANCH  29  31
ATOM     31  C12 NP6 d          -2.128  -9.907  10.678  0.00  0.00     0.036 A 
ATOM     32  C13 NP6 d          -1.444  -9.899   9.457  0.00  0.00    -0.057 A 
ATOM     33  C14 NP6 d          -0.189  -9.291   9.326  0.00  0.00    -0.081 A 
ATOM     34  H19 NP6 d          -1.895 -10.374   8.593  0.00  0.00     0.086 H 
ATOM     35  C15 NP6 d           0.399  -8.667  10.431  0.00  0.00    -0.083 A 
ATOM     36  H20 NP6 d           0.324  -9.305   8.372  0.00  0.00     0.083 H 
ATOM     37  C16 NP6 d          -0.282  -8.647  11.650  0.00  0.00    -0.081 A 
ATOM     38  H21 NP6 d           1.375  -8.203  10.343  0.00  0.00     0.083 H 
ATOM     39  C17 NP6 d          -1.536  -9.261  11.772  0.00  0.00    -0.057 A 
ATOM     40  H22 NP6 d           0.162  -8.154  12.507  0.00  0.00     0.083 H 
ATOM     41  H23 NP6 d          -2.054  -9.236  12.724  0.00  0.00     0.086 H 
ENDBRANCH  29  31
ENDBRANCH  26  27
ENDBRANCH   7  26
BRANCH   2  42
ATOM     42  O2  NP6 d          -4.493 -14.037   5.861  0.00  0.00    -0.390 OA
ATOM     43  H11 NP6 d          -4.082 -14.851   5.593  0.00  0.00     0.210 HD
ENDBRANCH   2  42
BRANCH   4  44
ATOM     44  C9  NP6 d          -2.824 -14.288  10.578  0.00  0.00     0.044 C 
ATOM     45  H15 NP6 d          -2.409 -15.306  10.600  0.00  0.00     0.078 H 
ATOM     46  H16 NP6 d          -3.218 -14.032  11.572  0.00  0.00     0.078 H 
BRANCH  44  47
ATOM     47  O4  NP6 d          -1.791 -13.372  10.238  0.00  0.00    -0.398 OA
ATOM     48  H17 NP6 d          -2.130 -12.725   9.630  0.00  0.00     0.209 HD
ENDBRANCH  44  47
ENDBRANCH   4  44
BRANCH   3  49
ATOM     49  O3  NP6 d          -2.684 -15.125   7.739  0.00  0.00    -0.390 OA
ATOM     50  H13 NP6 d          -2.585 -15.162   6.795  0.00  0.00     0.210 HD
ENDBRANCH   3  49
TORSDOF 11
ENDMDL
MODEL 10
REMARK VINA RESULT:      -5.3      2.513      8.081
REMARK  11 active torsions:
REMARK  status: ('A' for Active; 'I' for Inactive)
REMARK    1  A    between atoms: C2_1  and  C1_2 
REMARK    2  A    between atoms: C1_2  and  C3_3 
REMARK    3  A    between atoms: C3_3  and  C4_4 
REMARK       I    between atoms: C4_4  and  N1_6 
REMARK    4  A    between atoms: N1_6  and  C5_7 
REMARK    5  A    between atoms: C6_8  and  O2_9 
REMARK    6  A    between atoms: C7_10  and  O3_11 
REMARK    7  A    between atoms: C8_12  and  C9_13 
REMARK    8  A    between atoms: C9_13  and  O4_14 
REMARK    9  A    between atoms: N2_17  and  O6_18 
REMARK   10  A    between atoms: O6_18  and  C11_19 
REMARK       I    between atoms: C11_19  and  N3_21 
REMARK   11  A    between atoms: N3_21  and  C12_22 
ROOT
ATOM      1  C5  NP6 d          -3.961 -11.827   9.643  0.00  0.00     0.105 C 
ATOM      2  C6  NP6 d          -3.317 -13.221   9.749  0.00  0.00     0.089 C 
ATOM      3  C7  NP6 d          -3.995 -14.206   8.810  0.00  0.00     0.090 C 
ATOM      4  C8  NP6 d          -3.784 -13.716   7.379  0.00  0.00     0.094 C 
ATOM      5  O5  NP6 d          -4.388 -12.443   7.193  0.00  0.00    -0.324 OA
ATOM      6  C10 NP6 d          -4.656 -11.642   8.277  0.00  0.00     0.194 C 
ATOM      7  N2  NP6 d          -5.578 -10.696   8.109  0.00  0.00    -0.100 NA
ATOM      8  H9  NP6 d          -4.743 -11.768  10.414  0.00  0.00     0.090 H 
ATOM      9  H10 NP6 d          -2.255 -13.143   9.472  0.00  0.00     0.090 H 
ATOM     10  H12 NP6 d          -5.068 -14.268   9.042  0.00  0.00     0.091 H 
ATOM     11  H14 NP6 d          -2.699 -13.617   7.234  0.00  0.00     0.091 H 
ENDROOT
BRANCH   1  12
ATOM     12  N1  NP6 d          -2.973 -10.746   9.940  0.00  0.00    -0.346 N 
ATOM     13  C4  NP6 d          -2.650 -10.291  11.159  0.00  0.00     0.218 C 
ATOM     14  O1  NP6 d          -3.133 -10.711  12.215  0.00  0.00    -0.274 OA
ATOM     15  H8  NP6 d          -2.511 -10.325   9.160  0.00  0.00     0.163 HD
BRANCH  13  16
ATOM     16  C3  NP6 d          -1.607  -9.151  11.167  0.00  0.00     0.009 C 
ATOM     17  H6  NP6 d          -1.363  -8.866  10.133  0.00  0.00     0.047 H 
ATOM     18  H7  NP6 d          -2.017  -8.280  11.699  0.00  0.00     0.047 H 
BRANCH  16  19
ATOM     19  C1  NP6 d          -0.351  -9.635  11.874  0.00  0.00    -0.061 C 
ATOM     20  H4  NP6 d           0.422  -8.857  11.791  0.00  0.00     0.033 H 
ATOM     21  H5  NP6 d          -0.587  -9.806  12.934  0.00  0.00     0.033 H 
BRANCH  19  22
ATOM     22  C2  NP6 d           0.192 -10.929  11.280  0.00  0.00    -0.076 C 
ATOM     23  H1  NP6 d          -0.593 -11.415  10.681  0.00  0.00     0.027 H 
ATOM     24  H2  NP6 d           0.505 -11.602  12.091  0.00  0.00     0.027 H 
ATOM     25  H3  NP6 d           1.055 -10.704  10.637  0.00  0.00     0.027 H 
ENDBRANCH  19  22
ENDBRANCH  16  19
ENDBRANCH  13  16
ENDBRANCH   1  12
BRANCH   7  26
ATOM     26  O6  NP6 d          -6.215 -10.589   6.894  0.00  0.00    -0.153 OA
BRANCH  26  27
ATOM     27  C11 NP6 d          -7.506 -11.089   6.890  0.00  0.00     0.389 C 
ATOM     28  O7  NP6 d          -8.466 -10.310   6.912  0.00  0.00    -0.236 OA
ATOM     29  N3  NP6 d          -7.649 -12.436   6.841  0.00  0.00    -0.301 N 
ATOM     30  H18 NP6 d          -6.797 -12.950   6.738  0.00  0.00     0.171 HD
BRANCH  29  31
ATOM     31  C12 NP6 d          -8.771 -13.195   6.912  0.00  0.00     0.036 A 
ATOM     32  C13 NP6 d          -9.572 -13.289   5.768  0.00  0.00    -0.057 A 
ATOM     33  C14 NP6 d         -10.734 -14.068   5.751  0.00  0.00    -0.081 A 
ATOM     34  H19 NP6 d          -9.285 -12.745   4.875  0.00  0.00     0.086 H 
ATOM     35  C15 NP6 d         -11.109 -14.782   6.895  0.00  0.00    -0.083 A 
ATOM     36  H20 NP6 d         -11.341 -14.119   4.855  0.00  0.00     0.083 H 
ATOM     37  C16 NP6 d         -10.308 -14.716   8.036  0.00  0.00    -0.081 A 
ATOM     38  H21 NP6 d         -12.013 -15.380   6.894  0.00  0.00     0.083 H 
ATOM     39  C17 NP6 d          -9.148 -13.930   8.045  0.00  0.00    -0.057 A 
ATOM     40  H22 NP6 d         -10.585 -15.276   8.922  0.00  0.00     0.083 H 
ATOM     41  H23 NP6 d          -8.535 -13.890   8.938  0.00  0.00     0.086 H 
ENDBRANCH  29  31
ENDBRANCH  26  27
ENDBRANCH   7  26
BRANCH   2  42
ATOM     42  O2  NP6 d          -3.413 -13.685  11.086  0.00  0.00    -0.390 OA
ATOM     43  H11 NP6 d          -2.542 -13.859  11.422  0.00  0.00     0.210 HD
ENDBRANCH   2  42
BRANCH   4  44
ATOM     44  C9  NP6 d          -4.326 -14.627   6.250  0.00  0.00     0.044 C 
ATOM     45  H15 NP6 d          -3.852 -15.617   6.327  0.00  0.00     0.078 H 
ATOM     46  H16 NP6 d          -4.081 -14.178   5.277  0.00  0.00     0.078 H 
BRANCH  44  47
ATOM     47  O4  NP6 d          -5.736 -14.777   6.352  0.00  0.00    -0.398 OA
ATOM     48  H17 NP6 d          -6.101 -14.931   5.488  0.00  0.00     0.209 HD
ENDBRANCH  44  47
ENDBRANCH   4  44
BRANCH   3  49
ATOM     49  O3  NP6 d          -3.392 -15.503   8.923  0.00  0.00    -0.390 OA
ATOM     50  H13 NP6 d          -2.519 -15.479   8.550  0.00  0.00     0.210 HD
ENDBRANCH   3  49
TORSDOF 11
ENDMDL
