MODEL 1
REMARK VINA RESULT:      -7.3      0.000      0.000
REMARK  5 active torsions:
REMARK  status: ('A' for Active; 'I' for Inactive)
REMARK    1  A    between atoms: C1_1  and  O4_4 
REMARK    2  A    between atoms: C2_2  and  O5_5 
REMARK    3  A    between atoms: C3_3  and  O7_7 
REMARK    4  A    between atoms: C8_8  and  C9_9 
REMARK    5  A    between atoms: C9_9  and  O11_11 
ROOT
ATOM      1  C1  MNM d          27.788  47.338   0.062  0.00  0.00     0.110 C 
ATOM      2  C2  MNM d          27.528  45.929  -0.496  0.00  0.00     0.217 C 
ATOM      3  C3  MNM d          27.327  48.426  -0.931  0.00  0.00     0.071 C 
ATOM      4  N6  MNM d          27.801  45.840  -1.926  0.00  0.00    -0.046 N 
ATOM      5  C8  MNM d          26.409  47.890  -2.064  0.00  0.00     0.017 C 
ATOM      6  C10 MNM d          27.199  46.824  -2.838  0.00  0.00     0.092 C 
ATOM      7  H1  MNM d          27.216  47.450   0.995  0.00  0.00     0.093 H 
ATOM      8  H2  MNM d          26.469  45.694  -0.314  0.00  0.00     0.133 H 
ATOM      9  H3  MNM d          28.231  48.821  -1.417  0.00  0.00     0.087 H 
ATOM     10  H6  MNM d          27.490  44.931  -2.229  0.00  0.00     0.280 HD
ATOM     11  H7  MNM d          28.800  45.908  -2.038  0.00  0.00     0.280 HD
ATOM     12  H9  MNM d          25.539  47.404  -1.598  0.00  0.00     0.049 H 
ATOM     13  H12 MNM d          26.518  46.304  -3.528  0.00  0.00     0.076 H 
ATOM     14  H13 MNM d          27.997  47.316  -3.412  0.00  0.00     0.076 H 
ENDROOT
BRANCH   5  15
ATOM     15  C9  MNM d          25.867  49.005  -2.997  0.00  0.00     0.024 C 
ATOM     16  H10 MNM d          25.027  49.514  -2.501  0.00  0.00     0.074 H 
ATOM     17  H11 MNM d          25.517  48.552  -3.936  0.00  0.00     0.074 H 
BRANCH  15  18
ATOM     18  O11 MNM d          26.887  49.956  -3.286  0.00  0.00    -0.400 OA
ATOM     19  H14 MNM d          27.722  49.627  -2.975  0.00  0.00     0.209 HD
ENDBRANCH  15  18
ENDBRANCH   5  15
BRANCH   3  20
ATOM     20  O7  MNM d          26.710  49.515  -0.223  0.00  0.00    -0.392 OA
ATOM     21  H8  MNM d          25.793  49.316  -0.075  0.00  0.00     0.210 HD
ENDBRANCH   3  20
BRANCH   1  22
ATOM     22  O4  MNM d          29.182  47.519   0.354  0.00  0.00    -0.389 OA
ATOM     23  H4  MNM d          29.468  46.839   0.954  0.00  0.00     0.210 HD
ENDBRANCH   1  22
BRANCH   2  24
ATOM     24  O5  MNM d          28.332  44.912   0.089  0.00  0.00    -0.368 OA
ATOM     25  H5  MNM d          29.167  44.873  -0.361  0.00  0.00     0.212 HD
ENDBRANCH   2  24
TORSDOF 5
ENDMDL
MODEL 2
REMARK VINA RESULT:      -5.9      1.769      2.553
REMARK  5 active torsions:
REMARK  status: ('A' for Active; 'I' for Inactive)
REMARK    1  A    between atoms: C1_1  and  O4_4 
REMARK    2  A    between atoms: C2_2  and  O5_5 
REMARK    3  A    between atoms: C3_3  and  O7_7 
REMARK    4  A    between atoms: C8_8  and  C9_9 
REMARK    5  A    between atoms: C9_9  and  O11_11 
ROOT
ATOM      1  C1  MNM d          28.526  46.124  -1.214  0.00  0.00     0.110 C 
ATOM      2  C2  MNM d          28.941  47.233  -0.233  0.00  0.00     0.217 C 
ATOM      3  C3  MNM d          27.442  46.620  -2.194  0.00  0.00     0.071 C 
ATOM      4  N6  MNM d          27.806  48.034   0.209  0.00  0.00    -0.046 N 
ATOM      5  C8  MNM d          27.277  48.166  -2.212  0.00  0.00     0.017 C 
ATOM      6  C10 MNM d          26.895  48.610  -0.793  0.00  0.00     0.092 C 
ATOM      7  H1  MNM d          29.413  45.828  -1.795  0.00  0.00     0.093 H 
ATOM      8  H2  MNM d          29.660  47.881  -0.755  0.00  0.00     0.133 H 
ATOM      9  H3  MNM d          26.483  46.204  -1.850  0.00  0.00     0.087 H 
ATOM     10  H6  MNM d          28.178  48.803   0.743  0.00  0.00     0.280 HD
ATOM     11  H7  MNM d          27.248  47.447   0.809  0.00  0.00     0.280 HD
ATOM     12  H9  MNM d          28.251  48.610  -2.464  0.00  0.00     0.049 H 
ATOM     13  H12 MNM d          26.947  49.707  -0.734  0.00  0.00     0.076 H 
ATOM     14  H13 MNM d          25.869  48.279  -0.577  0.00  0.00     0.076 H 
ENDROOT
BRANCH   5  15
ATOM     15  C9  MNM d          26.259  48.663  -3.272  0.00  0.00     0.024 C 
ATOM     16  H10 MNM d          25.888  47.803  -3.849  0.00  0.00     0.074 H 
ATOM     17  H11 MNM d          26.759  49.371  -3.949  0.00  0.00     0.074 H 
BRANCH  15  18
ATOM     18  O11 MNM d          25.158  49.314  -2.643  0.00  0.00    -0.400 OA
ATOM     19  H14 MNM d          24.353  48.864  -2.871  0.00  0.00     0.209 HD
ENDBRANCH  15  18
ENDBRANCH   5  15
BRANCH   3  20
ATOM     20  O7  MNM d          27.687  46.100  -3.511  0.00  0.00    -0.392 OA
ATOM     21  H8  MNM d          27.142  46.561  -4.139  0.00  0.00     0.210 HD
ENDBRANCH   3  20
BRANCH   1  22
ATOM     22  O4  MNM d          28.039  44.975  -0.506  0.00  0.00    -0.389 OA
ATOM     23  H4  MNM d          28.622  44.780   0.219  0.00  0.00     0.210 HD
ENDBRANCH   1  22
BRANCH   2  24
ATOM     24  O5  MNM d          29.536  46.757   0.968  0.00  0.00    -0.368 OA
ATOM     25  H5  MNM d          28.939  46.159   1.401  0.00  0.00     0.212 HD
ENDBRANCH   2  24
TORSDOF 5
ENDMDL
MODEL 3
REMARK VINA RESULT:      -5.7      1.779      4.251
REMARK  5 active torsions:
REMARK  status: ('A' for Active; 'I' for Inactive)
REMARK    1  A    between atoms: C1_1  and  O4_4 
REMARK    2  A    between atoms: C2_2  and  O5_5 
REMARK    3  A    between atoms: C3_3  and  O7_7 
REMARK    4  A    between atoms: C8_8  and  C9_9 
REMARK    5  A    between atoms: C9_9  and  O11_11 
ROOT
ATOM      1  C1  MNM d          27.456  47.950  -3.255  0.00  0.00     0.110 C 
ATOM      2  C2  MNM d          26.490  48.979  -2.645  0.00  0.00     0.217 C 
ATOM      3  C3  MNM d          27.962  46.957  -2.188  0.00  0.00     0.071 C 
ATOM      4  N6  MNM d          26.910  49.415  -1.319  0.00  0.00    -0.046 N 
ATOM      5  C8  MNM d          27.141  46.985  -0.868  0.00  0.00     0.017 C 
ATOM      6  C10 MNM d          27.229  48.407  -0.296  0.00  0.00     0.092 C 
ATOM      7  H1  MNM d          26.914  47.385  -4.029  0.00  0.00     0.093 H 
ATOM      8  H2  MNM d          25.502  48.500  -2.574  0.00  0.00     0.133 H 
ATOM      9  H3  MNM d          28.988  47.259  -1.929  0.00  0.00     0.087 H 
ATOM     10  H6  MNM d          26.167  49.985  -0.947  0.00  0.00     0.280 HD
ATOM     11  H7  MNM d          27.736  49.979  -1.444  0.00  0.00     0.280 HD
ATOM     12  H9  MNM d          26.090  46.777  -1.116  0.00  0.00     0.049 H 
ATOM     13  H12 MNM d          26.517  48.504   0.536  0.00  0.00     0.076 H 
ATOM     14  H13 MNM d          28.250  48.583   0.073  0.00  0.00     0.076 H 
ENDROOT
BRANCH   5  15
ATOM     15  C9  MNM d          27.591  45.914   0.160  0.00  0.00     0.024 C 
ATOM     16  H10 MNM d          27.319  44.917  -0.215  0.00  0.00     0.074 H 
ATOM     17  H11 MNM d          27.083  46.097   1.118  0.00  0.00     0.074 H 
BRANCH  15  18
ATOM     18  O11 MNM d          29.001  45.972   0.359  0.00  0.00    -0.400 OA
ATOM     19  H14 MNM d          29.277  45.223   0.875  0.00  0.00     0.209 HD
ENDBRANCH  15  18
ENDBRANCH   5  15
BRANCH   3  20
ATOM     20  O7  MNM d          28.032  45.630  -2.736  0.00  0.00    -0.392 OA
ATOM     21  H8  MNM d          28.814  45.196  -2.415  0.00  0.00     0.210 HD
ENDBRANCH   3  20
BRANCH   1  22
ATOM     22  O4  MNM d          28.577  48.605  -3.867  0.00  0.00    -0.389 OA
ATOM     23  H4  MNM d          28.564  48.444  -4.803  0.00  0.00     0.210 HD
ENDBRANCH   1  22
BRANCH   2  24
ATOM     24  O5  MNM d          26.365  50.180  -3.397  0.00  0.00    -0.368 OA
ATOM     25  H5  MNM d          26.093  50.885  -2.822  0.00  0.00     0.212 HD
ENDBRANCH   2  24
TORSDOF 5
ENDMDL
MODEL 4
REMARK VINA RESULT:      -4.3      1.367      3.806
REMARK  5 active torsions:
REMARK  status: ('A' for Active; 'I' for Inactive)
REMARK    1  A    between atoms: C1_1  and  O4_4 
REMARK    2  A    between atoms: C2_2  and  O5_5 
REMARK    3  A    between atoms: C3_3  and  O7_7 
REMARK    4  A    between atoms: C8_8  and  C9_9 
REMARK    5  A    between atoms: C9_9  and  O11_11 
ROOT
ATOM      1  C1  MNM d          26.655  49.271  -1.463  0.00  0.00     0.110 C 
ATOM      2  C2  MNM d          27.024  48.855  -2.897  0.00  0.00     0.217 C 
ATOM      3  C3  MNM d          27.194  48.257  -0.431  0.00  0.00     0.071 C 
ATOM      4  N6  MNM d          26.922  47.415  -3.099  0.00  0.00    -0.046 N 
ATOM      5  C8  MNM d          28.255  47.280  -1.010  0.00  0.00     0.017 C 
ATOM      6  C10 MNM d          27.595  46.505  -2.160  0.00  0.00     0.092 C 
ATOM      7  H1  MNM d          27.110  50.252  -1.260  0.00  0.00     0.093 H 
ATOM      8  H2  MNM d          28.061  49.174  -3.075  0.00  0.00     0.133 H 
ATOM      9  H3  MNM d          26.340  47.643  -0.109  0.00  0.00     0.087 H 
ATOM     10  H6  MNM d          27.296  47.220  -4.015  0.00  0.00     0.280 HD
ATOM     11  H7  MNM d          25.942  47.185  -3.080  0.00  0.00     0.280 HD
ATOM     12  H9  MNM d          29.079  47.879  -1.425  0.00  0.00     0.049 H 
ATOM     13  H12 MNM d          28.368  45.939  -2.701  0.00  0.00     0.076 H 
ATOM     14  H13 MNM d          26.854  45.808  -1.743  0.00  0.00     0.076 H 
ENDROOT
BRANCH   5  15
ATOM     15  C9  MNM d          28.866  46.333   0.056  0.00  0.00     0.024 C 
ATOM     16  H10 MNM d          28.929  46.864   1.018  0.00  0.00     0.074 H 
ATOM     17  H11 MNM d          29.874  46.032  -0.263  0.00  0.00     0.074 H 
BRANCH  15  18
ATOM     18  O11 MNM d          28.058  45.170   0.216  0.00  0.00    -0.400 OA
ATOM     19  H14 MNM d          28.129  44.628  -0.561  0.00  0.00     0.209 HD
ENDBRANCH  15  18
ENDBRANCH   5  15
BRANCH   3  20
ATOM     20  O7  MNM d          27.688  48.946   0.730  0.00  0.00    -0.392 OA
ATOM     21  H8  MNM d          28.092  48.320   1.320  0.00  0.00     0.210 HD
ENDBRANCH   3  20
BRANCH   1  22
ATOM     22  O4  MNM d          25.232  49.388  -1.318  0.00  0.00    -0.389 OA
ATOM     23  H4  MNM d          24.903  50.025  -1.942  0.00  0.00     0.210 HD
ENDBRANCH   1  22
BRANCH   2  24
ATOM     24  O5  MNM d          26.190  49.421  -3.901  0.00  0.00    -0.368 OA
ATOM     25  H5  MNM d          25.622  50.073  -3.508  0.00  0.00     0.212 HD
ENDBRANCH   2  24
TORSDOF 5
ENDMDL
