MODEL 1
REMARK VINA RESULT:      -7.4      0.000      0.000
REMARK  2 active torsions:
REMARK  status: ('A' for Active; 'I' for Inactive)
REMARK    1  A    between atoms: C6_1  and  N4_2 
REMARK    2  A    between atoms: C8_7  and  N2_8 
ROOT
ATOM      1  C6  DQU d          18.264  16.763  19.164  0.00  0.00     0.026 C 
ATOM      2  C1  DQU d          16.954  16.464  18.775  0.00  0.00    -0.056 C 
ATOM      3  C2  DQU d          15.972  16.260  19.720  0.00  0.00    -0.051 C 
ATOM      4  C3  DQU d          16.267  16.488  21.083  0.00  0.00     0.091 A 
ATOM      5  N3  DQU d          15.278  16.406  22.041  0.00  0.00    -0.064 NA
ATOM      6  C8  DQU d          15.522  16.579  23.312  0.00  0.00     0.701 A 
ATOM      7  N1  DQU d          16.796  16.959  23.794  0.00  0.00    -0.154 N 
ATOM      8  C7  DQU d          17.838  17.138  22.861  0.00  0.00     0.272 A 
ATOM      9  O1  DQU d          18.999  17.359  23.238  0.00  0.00    -0.267 OA
ATOM     10  C4  DQU d          17.564  16.903  21.450  0.00  0.00     0.064 A 
ATOM     11  C5  DQU d          18.535  17.087  20.472  0.00  0.00    -0.040 C 
ATOM     12  H3  DQU d          16.709  16.392  17.722  0.00  0.00     0.087 H 
ATOM     13  H4  DQU d          14.984  15.928  19.422  0.00  0.00     0.087 H 
ATOM     14  H7  DQU d          16.954  17.096  24.772  0.00  0.00     0.187 HD
ATOM     15  H8  DQU d          19.506  17.486  20.742  0.00  0.00     0.088 H 
ENDROOT
BRANCH   1  16
ATOM     16  N4  DQU d          19.282  17.050  18.105  0.00  0.00    -0.399 N 
ATOM     17  H1  DQU d          20.259  17.239  18.368  0.00  0.00     0.156 HD
ATOM     18  H2  DQU d          19.005  17.058  17.113  0.00  0.00     0.156 HD
ENDBRANCH   1  16
BRANCH   6  19
ATOM     19  N2  DQU d          14.534  16.466  24.287  0.00  0.00    -0.233 N 
ATOM     20  H5  DQU d          14.049  17.307  24.628  0.00  0.00     0.174 HD
ATOM     21  H6  DQU d          14.289  15.540  24.666  0.00  0.00     0.174 HD
ENDBRANCH   6  19
TORSDOF 2
ENDMDL
MODEL 2
REMARK VINA RESULT:      -6.8      1.933      4.972
REMARK  2 active torsions:
REMARK  status: ('A' for Active; 'I' for Inactive)
REMARK    1  A    between atoms: C6_1  and  N4_2 
REMARK    2  A    between atoms: C8_7  and  N2_8 
ROOT
ATOM      1  C6  DQU d          16.135  16.494  22.985  0.00  0.00     0.026 C 
ATOM      2  C1  DQU d          17.451  16.891  23.244  0.00  0.00    -0.056 C 
ATOM      3  C2  DQU d          18.363  17.011  22.217  0.00  0.00    -0.051 C 
ATOM      4  C3  DQU d          17.923  16.861  20.883  0.00  0.00     0.091 A 
ATOM      5  N3  DQU d          18.782  17.089  19.828  0.00  0.00    -0.064 NA
ATOM      6  C8  DQU d          18.419  16.929  18.584  0.00  0.00     0.701 A 
ATOM      7  N1  DQU d          17.092  16.604  18.219  0.00  0.00    -0.154 N 
ATOM      8  C7  DQU d          16.138  16.434  19.245  0.00  0.00     0.272 A 
ATOM      9  O1  DQU d          14.991  16.039  18.987  0.00  0.00    -0.267 OA
ATOM     10  C4  DQU d          16.565  16.576  20.630  0.00  0.00     0.064 A 
ATOM     11  C5  DQU d          15.675  16.449  21.690  0.00  0.00    -0.040 C 
ATOM     12  H3  DQU d          17.757  17.106  24.261  0.00  0.00     0.087 H 
ATOM     13  H4  DQU d          19.405  17.217  22.431  0.00  0.00     0.087 H 
ATOM     14  H7  DQU d          16.835  16.498  17.258  0.00  0.00     0.187 HD
ATOM     15  H8  DQU d          14.617  16.313  21.495  0.00  0.00     0.088 H 
ENDROOT
BRANCH   1  16
ATOM     16  N4  DQU d          15.160  16.450  24.118  0.00  0.00    -0.399 N 
ATOM     17  H1  DQU d          15.491  16.267  25.076  0.00  0.00     0.156 HD
ATOM     18  H2  DQU d          14.157  16.602  23.941  0.00  0.00     0.156 HD
ENDBRANCH   1  16
BRANCH   6  19
ATOM     19  N2  DQU d          19.291  17.125  17.517  0.00  0.00    -0.233 N 
ATOM     20  H5  DQU d          19.028  16.810  16.573  0.00  0.00     0.174 HD
ATOM     21  H6  DQU d          20.199  17.586  17.673  0.00  0.00     0.174 HD
ENDBRANCH   6  19
TORSDOF 2
ENDMDL
MODEL 3
REMARK VINA RESULT:      -5.3      1.863      2.661
REMARK  2 active torsions:
REMARK  status: ('A' for Active; 'I' for Inactive)
REMARK    1  A    between atoms: C6_1  and  N4_2 
REMARK    2  A    between atoms: C8_7  and  N2_8 
ROOT
ATOM      1  C6  DQU d          18.777  17.102  18.600  0.00  0.00     0.026 C 
ATOM      2  C1  DQU d          19.625  17.291  19.696  0.00  0.00    -0.056 C 
ATOM      3  C2  DQU d          19.124  17.280  20.980  0.00  0.00    -0.051 C 
ATOM      4  C3  DQU d          17.768  16.940  21.189  0.00  0.00     0.091 A 
ATOM      5  N3  DQU d          17.265  16.806  22.466  0.00  0.00    -0.064 NA
ATOM      6  C8  DQU d          16.010  16.526  22.696  0.00  0.00     0.701 A 
ATOM      7  N1  DQU d          15.095  16.243  21.656  0.00  0.00    -0.154 N 
ATOM      8  C7  DQU d          15.561  16.284  20.325  0.00  0.00     0.272 A 
ATOM      9  O1  DQU d          14.776  16.156  19.372  0.00  0.00    -0.267 OA
ATOM     10  C4  DQU d          16.952  16.637  20.080  0.00  0.00     0.064 A 
ATOM     11  C5  DQU d          17.486  16.671  18.797  0.00  0.00    -0.040 C 
ATOM     12  H3  DQU d          20.685  17.448  19.535  0.00  0.00     0.087 H 
ATOM     13  H4  DQU d          19.762  17.528  21.820  0.00  0.00     0.087 H 
ATOM     14  H7  DQU d          14.141  16.020  21.859  0.00  0.00     0.187 HD
ATOM     15  H8  DQU d          16.885  16.357  17.951  0.00  0.00     0.088 H 
ENDROOT
BRANCH   1  16
ATOM     16  N4  DQU d          19.374  17.047  17.229  0.00  0.00    -0.399 N 
ATOM     17  H1  DQU d          19.575  17.919  16.719  0.00  0.00     0.156 HD
ATOM     18  H2  DQU d          19.584  16.137  16.794  0.00  0.00     0.156 HD
ENDBRANCH   1  16
BRANCH   6  19
ATOM     19  N2  DQU d          15.489  16.422  23.982  0.00  0.00    -0.233 N 
ATOM     20  H5  DQU d          15.300  17.271  24.532  0.00  0.00     0.174 HD
ATOM     21  H6  DQU d          15.293  15.493  24.385  0.00  0.00     0.174 HD
ENDBRANCH   6  19
TORSDOF 2
ENDMDL
