MODEL 1
REMARK VINA RESULT:      -6.2      0.000      0.000
REMARK  10 active torsions:
REMARK  status: ('A' for Active; 'I' for Inactive)
REMARK    1  A    between atoms: C2_4  and  C1_1 
REMARK    2  A    between atoms: C4_6  and  N4_7 
REMARK    3  A    between atoms: C5_8  and  N5_9 
REMARK       I    between atoms: N5_9  and  C10_10 
REMARK    4  A    between atoms: C10_10  and  C11_12 
REMARK    5  A    between atoms: C6_13  and  C7_15 
REMARK    6  A    between atoms: C7_15  and  C8_17 
REMARK    7  A    between atoms: C7_15  and  O7_16 
REMARK    8  A    between atoms: C8_17  and  C9_19 
REMARK    9  A    between atoms: C8_17  and  O8_18 
REMARK   10  A    between atoms: C9_19  and  O9_20 
ROOT
ATOM      1  C2  MOL d          24.314  18.701  63.970  0.00  0.00     0.144 C 
ATOM      2  C3  MOL d          23.576  17.586  63.596  0.00  0.00    -0.033 C 
ATOM      3  C4  MOL d          24.075  16.562  62.535  0.00  0.00     0.141 C 
ATOM      4  C5  MOL d          25.606  16.577  62.453  0.00  0.00     0.070 C 
ATOM      5  C6  MOL d          26.108  18.054  62.354  0.00  0.00     0.094 C 
ATOM      6  O6  MOL d          25.647  18.823  63.529  0.00  0.00    -0.335 OA
ATOM      7  H1  MOL d          22.608  17.420  64.066  0.00  0.00     0.084 H 
ATOM      8  H2  MOL d          23.651  16.802  61.548  0.00  0.00     0.093 H 
ATOM      9  H6  MOL d          26.031  16.105  63.351  0.00  0.00     0.080 H 
ATOM     10  H11 MOL d          25.693  18.498  61.437  0.00  0.00     0.091 H 
ENDROOT
BRANCH   5  11
ATOM     11  C7  MOL d          27.684  18.177  62.316  0.00  0.00     0.089 C 
ATOM     12  H12 MOL d          28.058  17.926  61.312  0.00  0.00     0.091 H 
BRANCH  11  13
ATOM     13  C8  MOL d          28.085  19.618  62.674  0.00  0.00     0.083 C 
ATOM     14  H14 MOL d          27.696  19.841  63.679  0.00  0.00     0.090 H 
BRANCH  13  15
ATOM     15  C9  MOL d          29.609  19.832  62.693  0.00  0.00     0.043 C 
ATOM     16  H16 MOL d          29.978  19.637  63.711  0.00  0.00     0.078 H 
ATOM     17  H17 MOL d          29.820  20.876  62.421  0.00  0.00     0.078 H 
BRANCH  15  18
ATOM     18  O9  MOL d          30.292  18.987  61.798  0.00  0.00    -0.398 OA
ATOM     19  H18 MOL d          30.655  19.506  61.090  0.00  0.00     0.209 HD
ENDBRANCH  15  18
ENDBRANCH  13  15
BRANCH  13  20
ATOM     20  O8  MOL d          27.512  20.503  61.762  0.00  0.00    -0.391 OA
ATOM     21  H15 MOL d          28.169  20.776  61.132  0.00  0.00     0.210 HD
ENDBRANCH  13  20
ENDBRANCH  11  13
BRANCH  11  22
ATOM     22  O7  MOL d          28.233  17.258  63.293  0.00  0.00    -0.390 OA
ATOM     23  H13 MOL d          27.836  17.423  64.140  0.00  0.00     0.210 HD
ENDBRANCH  11  22
ENDBRANCH   5  11
BRANCH   4  24
ATOM     24  N5  MOL d          26.017  15.824  61.254  0.00  0.00    -0.352 N 
ATOM     25  C10 MOL d          26.842  14.787  61.338  0.00  0.00     0.214 C 
ATOM     26  O10 MOL d          27.328  14.402  62.401  0.00  0.00    -0.274 OA
ATOM     27  H7  MOL d          25.667  16.101  60.359  0.00  0.00     0.163 HD
BRANCH  25  28
ATOM     28  C11 MOL d          27.177  14.088  60.042  0.00  0.00    -0.003 C 
ATOM     29  H8  MOL d          27.672  13.130  60.259  0.00  0.00     0.040 H 
ATOM     30  H9  MOL d          27.849  14.721  59.446  0.00  0.00     0.040 H 
ATOM     31  H10 MOL d          26.252  13.902  59.475  0.00  0.00     0.040 H 
ENDBRANCH  25  28
ENDBRANCH   4  24
BRANCH   3  32
ATOM     32  N4  MOL d          23.622  15.242  62.977  0.00  0.00    -0.070 N 
ATOM     33  H3  MOL d          22.947  14.881  62.321  0.00  0.00     0.275 HD
ATOM     34  H4  MOL d          23.196  15.320  63.888  0.00  0.00     0.275 HD
ATOM     35  H5  MOL d          24.410  14.615  63.028  0.00  0.00     0.275 HD
ENDBRANCH   3  32
BRANCH   1  36
ATOM     36  C1  MOL d          23.832  19.703  64.809  0.00  0.00     0.233 C 
ATOM     37  O1B MOL d          22.599  19.857  64.959  0.00  0.00    -0.642 OA
ATOM     38  O1A MOL d          24.669  20.433  65.397  0.00  0.00    -0.642 OA
ENDBRANCH   1  36
TORSDOF 10
ENDMDL
MODEL 2
REMARK VINA RESULT:      -5.5      2.502      4.428
REMARK  10 active torsions:
REMARK  status: ('A' for Active; 'I' for Inactive)
REMARK    1  A    between atoms: C2_4  and  C1_1 
REMARK    2  A    between atoms: C4_6  and  N4_7 
REMARK    3  A    between atoms: C5_8  and  N5_9 
REMARK       I    between atoms: N5_9  and  C10_10 
REMARK    4  A    between atoms: C10_10  and  C11_12 
REMARK    5  A    between atoms: C6_13  and  C7_15 
REMARK    6  A    between atoms: C7_15  and  C8_17 
REMARK    7  A    between atoms: C7_15  and  O7_16 
REMARK    8  A    between atoms: C8_17  and  C9_19 
REMARK    9  A    between atoms: C8_17  and  O8_18 
REMARK   10  A    between atoms: C9_19  and  O9_20 
ROOT
ATOM      1  C2  MOL d          24.617  15.541  62.299  0.00  0.00     0.144 C 
ATOM      2  C3  MOL d          24.183  16.511  63.192  0.00  0.00    -0.033 C 
ATOM      3  C4  MOL d          25.148  17.538  63.855  0.00  0.00     0.141 C 
ATOM      4  C5  MOL d          26.391  17.747  62.981  0.00  0.00     0.070 C 
ATOM      5  C6  MOL d          26.966  16.358  62.552  0.00  0.00     0.094 C 
ATOM      6  O6  MOL d          25.938  15.594  61.813  0.00  0.00    -0.335 OA
ATOM      7  H1  MOL d          23.124  16.557  63.440  0.00  0.00     0.084 H 
ATOM      8  H2  MOL d          25.453  17.184  64.850  0.00  0.00     0.093 H 
ATOM      9  H6  MOL d          26.123  18.326  62.085  0.00  0.00     0.080 H 
ATOM     10  H11 MOL d          27.251  15.807  63.460  0.00  0.00     0.091 H 
ENDROOT
BRANCH   5  11
ATOM     11  C7  MOL d          28.225  16.469  61.603  0.00  0.00     0.089 C 
ATOM     12  H12 MOL d          28.266  17.468  61.146  0.00  0.00     0.091 H 
BRANCH  11  13
ATOM     13  C8  MOL d          29.500  16.221  62.427  0.00  0.00     0.083 C 
ATOM     14  H14 MOL d          29.973  15.299  62.055  0.00  0.00     0.090 H 
BRANCH  13  15
ATOM     15  C9  MOL d          30.523  17.364  62.311  0.00  0.00     0.043 C 
ATOM     16  H16 MOL d          31.429  16.976  61.823  0.00  0.00     0.078 H 
ATOM     17  H17 MOL d          30.775  17.713  63.324  0.00  0.00     0.078 H 
BRANCH  15  18
ATOM     18  O9  MOL d          30.043  18.456  61.565  0.00  0.00    -0.398 OA
ATOM     19  H18 MOL d          30.503  18.498  60.735  0.00  0.00     0.209 HD
ENDBRANCH  15  18
ENDBRANCH  13  15
BRANCH  13  20
ATOM     20  O8  MOL d          29.162  16.045  63.767  0.00  0.00    -0.391 OA
ATOM     21  H15 MOL d          28.325  15.601  63.826  0.00  0.00     0.210 HD
ENDBRANCH  13  20
ENDBRANCH  11  13
BRANCH  11  22
ATOM     22  O7  MOL d          28.104  15.458  60.572  0.00  0.00    -0.390 OA
ATOM     23  H13 MOL d          27.556  15.787  59.869  0.00  0.00     0.210 HD
ENDBRANCH  11  22
ENDBRANCH   5  11
BRANCH   4  24
ATOM     24  N5  MOL d          27.396  18.486  63.767  0.00  0.00    -0.352 N 
ATOM     25  C10 MOL d          27.855  19.666  63.369  0.00  0.00     0.214 C 
ATOM     26  O10 MOL d          27.496  20.205  62.322  0.00  0.00    -0.274 OA
ATOM     27  H7  MOL d          27.738  18.089  64.620  0.00  0.00     0.163 HD
BRANCH  25  28
ATOM     28  C11 MOL d          28.870  20.332  64.267  0.00  0.00    -0.003 C 
ATOM     29  H8  MOL d          28.384  21.138  64.836  0.00  0.00     0.040 H 
ATOM     30  H9  MOL d          29.681  20.752  63.655  0.00  0.00     0.040 H 
ATOM     31  H10 MOL d          29.284  19.589  64.965  0.00  0.00     0.040 H 
ENDBRANCH  25  28
ENDBRANCH   4  24
BRANCH   3  32
ATOM     32  N4  MOL d          24.410  18.798  63.965  0.00  0.00    -0.070 N 
ATOM     33  H3  MOL d          24.922  19.436  64.555  0.00  0.00     0.275 HD
ATOM     34  H4  MOL d          23.503  18.623  64.368  0.00  0.00     0.275 HD
ATOM     35  H5  MOL d          24.297  19.203  63.049  0.00  0.00     0.275 HD
ENDBRANCH   3  32
BRANCH   1  36
ATOM     36  C1  MOL d          23.802  14.525  61.803  0.00  0.00     0.233 C 
ATOM     37  O1B MOL d          23.424  13.600  62.557  0.00  0.00    -0.642 OA
ATOM     38  O1A MOL d          23.470  14.574  60.592  0.00  0.00    -0.642 OA
ENDBRANCH   1  36
TORSDOF 10
ENDMDL
MODEL 3
REMARK VINA RESULT:      -5.5      2.265      4.550
REMARK  10 active torsions:
REMARK  status: ('A' for Active; 'I' for Inactive)
REMARK    1  A    between atoms: C2_4  and  C1_1 
REMARK    2  A    between atoms: C4_6  and  N4_7 
REMARK    3  A    between atoms: C5_8  and  N5_9 
REMARK       I    between atoms: N5_9  and  C10_10 
REMARK    4  A    between atoms: C10_10  and  C11_12 
REMARK    5  A    between atoms: C6_13  and  C7_15 
REMARK    6  A    between atoms: C7_15  and  C8_17 
REMARK    7  A    between atoms: C7_15  and  O7_16 
REMARK    8  A    between atoms: C8_17  and  C9_19 
REMARK    9  A    between atoms: C8_17  and  O8_18 
REMARK   10  A    between atoms: C9_19  and  O9_20 
ROOT
ATOM      1  C2  MOL d          28.978  19.590  64.411  0.00  0.00     0.144 C 
ATOM      2  C3  MOL d          29.897  18.616  64.040  0.00  0.00    -0.033 C 
ATOM      3  C4  MOL d          29.472  17.212  63.520  0.00  0.00     0.141 C 
ATOM      4  C5  MOL d          28.069  17.269  62.904  0.00  0.00     0.070 C 
ATOM      5  C6  MOL d          27.105  18.024  63.875  0.00  0.00     0.094 C 
ATOM      6  O6  MOL d          27.612  19.389  64.131  0.00  0.00    -0.335 OA
ATOM      7  H1  MOL d          30.959  18.845  64.116  0.00  0.00     0.084 H 
ATOM      8  H2  MOL d          29.484  16.483  64.344  0.00  0.00     0.093 H 
ATOM      9  H6  MOL d          28.107  17.798  61.941  0.00  0.00     0.080 H 
ATOM     10  H11 MOL d          27.061  17.465  64.822  0.00  0.00     0.091 H 
ENDROOT
BRANCH   5  11
ATOM     11  C7  MOL d          25.639  18.180  63.304  0.00  0.00     0.089 C 
ATOM     12  H12 MOL d          25.362  17.286  62.727  0.00  0.00     0.091 H 
BRANCH  11  13
ATOM     13  C8  MOL d          24.659  18.367  64.475  0.00  0.00     0.083 C 
ATOM     14  H14 MOL d          24.898  17.617  65.244  0.00  0.00     0.090 H 
BRANCH  13  15
ATOM     15  C9  MOL d          24.750  19.760  65.120  0.00  0.00     0.043 C 
ATOM     16  H16 MOL d          25.811  20.001  65.287  0.00  0.00     0.078 H 
ATOM     17  H17 MOL d          24.224  19.735  66.086  0.00  0.00     0.078 H 
BRANCH  15  18
ATOM     18  O9  MOL d          24.180  20.771  64.324  0.00  0.00    -0.398 OA
ATOM     19  H18 MOL d          24.358  20.590  63.409  0.00  0.00     0.209 HD
ENDBRANCH  15  18
ENDBRANCH  13  15
BRANCH  13  20
ATOM     20  O8  MOL d          23.355  18.155  64.030  0.00  0.00    -0.391 OA
ATOM     21  H15 MOL d          23.351  18.094  63.082  0.00  0.00     0.210 HD
ENDBRANCH  13  20
ENDBRANCH  11  13
BRANCH  11  22
ATOM     22  O7  MOL d          25.609  19.350  62.449  0.00  0.00    -0.390 OA
ATOM     23  H13 MOL d          26.120  20.045  62.847  0.00  0.00     0.210 HD
ENDBRANCH  11  22
ENDBRANCH   5  11
BRANCH   4  24
ATOM     24  N5  MOL d          27.594  15.889  62.695  0.00  0.00    -0.352 N 
ATOM     25  C10 MOL d          27.321  15.429  61.480  0.00  0.00     0.214 C 
ATOM     26  O10 MOL d          27.422  16.117  60.465  0.00  0.00    -0.274 OA
ATOM     27  H7  MOL d          27.476  15.287  63.485  0.00  0.00     0.163 HD
BRANCH  25  28
ATOM     28  C11 MOL d          26.857  13.995  61.393  0.00  0.00    -0.003 C 
ATOM     29  H8  MOL d          27.539  13.427  60.744  0.00  0.00     0.040 H 
ATOM     30  H9  MOL d          25.841  13.963  60.973  0.00  0.00     0.040 H 
ATOM     31  H10 MOL d          26.851  13.549  62.398  0.00  0.00     0.040 H 
ENDBRANCH  25  28
ENDBRANCH   4  24
BRANCH   3  32
ATOM     32  N4  MOL d          30.443  16.833  62.491  0.00  0.00    -0.070 N 
ATOM     33  H3  MOL d          30.168  17.232  61.607  0.00  0.00     0.275 HD
ATOM     34  H4  MOL d          30.474  15.829  62.411  0.00  0.00     0.275 HD
ATOM     35  H5  MOL d          31.356  17.177  62.746  0.00  0.00     0.275 HD
ENDBRANCH   3  32
BRANCH   1  36
ATOM     36  C1  MOL d          29.329  20.797  65.011  0.00  0.00     0.233 C 
ATOM     37  O1B MOL d          28.464  21.685  65.185  0.00  0.00    -0.642 OA
ATOM     38  O1A MOL d          30.525  20.956  65.361  0.00  0.00    -0.642 OA
ENDBRANCH   1  36
TORSDOF 10
ENDMDL
MODEL 4
REMARK VINA RESULT:      -5.5      1.898      4.711
REMARK  10 active torsions:
REMARK  status: ('A' for Active; 'I' for Inactive)
REMARK    1  A    between atoms: C2_4  and  C1_1 
REMARK    2  A    between atoms: C4_6  and  N4_7 
REMARK    3  A    between atoms: C5_8  and  N5_9 
REMARK       I    between atoms: N5_9  and  C10_10 
REMARK    4  A    between atoms: C10_10  and  C11_12 
REMARK    5  A    between atoms: C6_13  and  C7_15 
REMARK    6  A    between atoms: C7_15  and  C8_17 
REMARK    7  A    between atoms: C7_15  and  O7_16 
REMARK    8  A    between atoms: C8_17  and  C9_19 
REMARK    9  A    between atoms: C8_17  and  O8_18 
REMARK   10  A    between atoms: C9_19  and  O9_20 
ROOT
ATOM      1  C2  MOL d          28.921  17.328  62.585  0.00  0.00     0.144 C 
ATOM      2  C3  MOL d          29.018  16.052  62.046  0.00  0.00    -0.033 C 
ATOM      3  C4  MOL d          27.846  15.029  62.085  0.00  0.00     0.141 C 
ATOM      4  C5  MOL d          26.500  15.758  62.186  0.00  0.00     0.070 C 
ATOM      5  C6  MOL d          26.578  16.841  63.310  0.00  0.00     0.094 C 
ATOM      6  O6  MOL d          27.664  17.800  63.012  0.00  0.00    -0.335 OA
ATOM      7  H1  MOL d          29.955  15.754  61.576  0.00  0.00     0.084 H 
ATOM      8  H2  MOL d          27.962  14.351  62.944  0.00  0.00     0.093 H 
ATOM      9  H6  MOL d          26.267  16.241  61.226  0.00  0.00     0.080 H 
ATOM     10  H11 MOL d          26.786  16.335  64.264  0.00  0.00     0.091 H 
ENDROOT
BRANCH   5  11
ATOM     11  C7  MOL d          25.250  17.685  63.457  0.00  0.00     0.089 C 
ATOM     12  H12 MOL d          24.374  17.045  63.280  0.00  0.00     0.091 H 
BRANCH  11  13
ATOM     13  C8  MOL d          25.183  18.277  64.876  0.00  0.00     0.083 C 
ATOM     14  H14 MOL d          25.910  17.741  65.504  0.00  0.00     0.090 H 
BRANCH  13  15
ATOM     15  C9  MOL d          25.526  19.776  64.920  0.00  0.00     0.043 C 
ATOM     16  H16 MOL d          26.438  19.945  64.328  0.00  0.00     0.078 H 
ATOM     17  H17 MOL d          25.710  20.064  65.966  0.00  0.00     0.078 H 
BRANCH  15  18
ATOM     18  O9  MOL d          24.499  20.589  64.404  0.00  0.00    -0.398 OA
ATOM     19  H18 MOL d          24.549  20.596  63.455  0.00  0.00     0.209 HD
ENDBRANCH  15  18
ENDBRANCH  13  15
BRANCH  13  20
ATOM     20  O8  MOL d          23.906  18.086  65.401  0.00  0.00    -0.391 OA
ATOM     21  H15 MOL d          23.626  18.877  65.844  0.00  0.00     0.210 HD
ENDBRANCH  13  20
ENDBRANCH  11  13
BRANCH  11  22
ATOM     22  O7  MOL d          25.284  18.757  62.481  0.00  0.00    -0.390 OA
ATOM     23  H13 MOL d          25.981  18.593  61.857  0.00  0.00     0.210 HD
ENDBRANCH  11  22
ENDBRANCH   5  11
BRANCH   4  24
ATOM     24  N5  MOL d          25.456  14.770  62.511  0.00  0.00    -0.352 N 
ATOM     25  C10 MOL d          24.336  14.688  61.803  0.00  0.00     0.214 C 
ATOM     26  O10 MOL d          24.087  15.433  60.857  0.00  0.00    -0.274 OA
ATOM     27  H7  MOL d          25.595  14.147  63.282  0.00  0.00     0.163 HD
BRANCH  25  28
ATOM     28  C11 MOL d          23.350  13.625  62.225  0.00  0.00    -0.003 C 
ATOM     29  H8  MOL d          22.696  14.024  63.014  0.00  0.00     0.040 H 
ATOM     30  H9  MOL d          23.895  12.750  62.607  0.00  0.00     0.040 H 
ATOM     31  H10 MOL d          22.740  13.327  61.359  0.00  0.00     0.040 H 
ENDBRANCH  25  28
ENDBRANCH   4  24
BRANCH   3  32
ATOM     32  N4  MOL d          27.901  14.276  60.830  0.00  0.00    -0.070 N 
ATOM     33  H3  MOL d          28.470  14.776  60.164  0.00  0.00     0.275 HD
ATOM     34  H4  MOL d          26.969  14.168  60.461  0.00  0.00     0.275 HD
ATOM     35  H5  MOL d          28.302  13.367  61.000  0.00  0.00     0.275 HD
ENDBRANCH   3  32
BRANCH   1  36
ATOM     36  C1  MOL d          29.995  18.209  62.689  0.00  0.00     0.233 C 
ATOM     37  O1B MOL d          30.405  18.567  63.816  0.00  0.00    -0.642 OA
ATOM     38  O1A MOL d          30.524  18.622  61.627  0.00  0.00    -0.642 OA
ENDBRANCH   1  36
TORSDOF 10
ENDMDL
MODEL 5
REMARK VINA RESULT:      -5.3      2.361      4.030
REMARK  10 active torsions:
REMARK  status: ('A' for Active; 'I' for Inactive)
REMARK    1  A    between atoms: C2_4  and  C1_1 
REMARK    2  A    between atoms: C4_6  and  N4_7 
REMARK    3  A    between atoms: C5_8  and  N5_9 
REMARK       I    between atoms: N5_9  and  C10_10 
REMARK    4  A    between atoms: C10_10  and  C11_12 
REMARK    5  A    between atoms: C6_13  and  C7_15 
REMARK    6  A    between atoms: C7_15  and  C8_17 
REMARK    7  A    between atoms: C7_15  and  O7_16 
REMARK    8  A    between atoms: C8_17  and  C9_19 
REMARK    9  A    between atoms: C8_17  and  O8_18 
REMARK   10  A    between atoms: C9_19  and  O9_20 
ROOT
ATOM      1  C2  MOL d          28.114  19.773  64.304  0.00  0.00     0.144 C 
ATOM      2  C3  MOL d          26.823  19.672  64.805  0.00  0.00    -0.033 C 
ATOM      3  C4  MOL d          25.647  19.064  63.986  0.00  0.00     0.141 C 
ATOM      4  C5  MOL d          26.178  18.088  62.928  0.00  0.00     0.070 C 
ATOM      5  C6  MOL d          27.357  18.755  62.150  0.00  0.00     0.094 C 
ATOM      6  O6  MOL d          28.433  19.132  63.090  0.00  0.00    -0.335 OA
ATOM      7  H1  MOL d          26.625  20.033  65.813  0.00  0.00     0.084 H 
ATOM      8  H2  MOL d          25.073  19.863  63.495  0.00  0.00     0.093 H 
ATOM      9  H6  MOL d          26.533  17.169  63.415  0.00  0.00     0.080 H 
ATOM     10  H11 MOL d          26.974  19.657  61.649  0.00  0.00     0.091 H 
ENDROOT
BRANCH   5  11
ATOM     11  C7  MOL d          28.007  17.806  61.066  0.00  0.00     0.089 C 
ATOM     12  H12 MOL d          28.946  18.243  60.696  0.00  0.00     0.091 H 
BRANCH  11  13
ATOM     13  C8  MOL d          28.288  16.433  61.702  0.00  0.00     0.083 C 
ATOM     14  H14 MOL d          27.668  16.342  62.606  0.00  0.00     0.090 H 
BRANCH  13  15
ATOM     15  C9  MOL d          27.950  15.257  60.769  0.00  0.00     0.043 C 
ATOM     16  H16 MOL d          28.887  14.868  60.343  0.00  0.00     0.078 H 
ATOM     17  H17 MOL d          27.305  15.627  59.958  0.00  0.00     0.078 H 
BRANCH  15  18
ATOM     18  O9  MOL d          27.286  14.207  61.429  0.00  0.00    -0.398 OA
ATOM     19  H18 MOL d          26.589  14.564  61.967  0.00  0.00     0.209 HD
ENDBRANCH  15  18
ENDBRANCH  13  15
BRANCH  13  20
ATOM     20  O8  MOL d          29.631  16.354  62.067  0.00  0.00    -0.391 OA
ATOM     21  H15 MOL d          29.710  16.476  63.005  0.00  0.00     0.210 HD
ENDBRANCH  13  20
ENDBRANCH  11  13
BRANCH  11  22
ATOM     22  O7  MOL d          27.067  17.656  59.974  0.00  0.00    -0.390 OA
ATOM     23  H13 MOL d          26.201  17.481  60.324  0.00  0.00     0.210 HD
ENDBRANCH  11  22
ENDBRANCH   5  11
BRANCH   4  24
ATOM     24  N5  MOL d          25.080  17.765  61.999  0.00  0.00    -0.352 N 
ATOM     25  C10 MOL d          24.564  16.543  61.935  0.00  0.00     0.214 C 
ATOM     26  O10 MOL d          24.975  15.607  62.621  0.00  0.00    -0.274 OA
ATOM     27  H7  MOL d          24.716  18.482  61.403  0.00  0.00     0.163 HD
BRANCH  25  28
ATOM     28  C11 MOL d          23.434  16.340  60.955  0.00  0.00    -0.003 C 
ATOM     29  H8  MOL d          23.039  15.318  61.057  0.00  0.00     0.040 H 
ATOM     30  H9  MOL d          23.806  16.489  59.931  0.00  0.00     0.040 H 
ATOM     31  H10 MOL d          22.633  17.065  61.163  0.00  0.00     0.040 H 
ENDBRANCH  25  28
ENDBRANCH   4  24
BRANCH   3  32
ATOM     32  N4  MOL d          24.801  18.340  64.938  0.00  0.00    -0.070 N 
ATOM     33  H3  MOL d          24.754  18.855  65.804  0.00  0.00     0.275 HD
ATOM     34  H4  MOL d          25.193  17.427  65.110  0.00  0.00     0.275 HD
ATOM     35  H5  MOL d          23.874  18.240  64.555  0.00  0.00     0.275 HD
ENDBRANCH   3  32
BRANCH   1  36
ATOM     36  C1  MOL d          29.149  20.438  64.958  0.00  0.00     0.233 C 
ATOM     37  O1B MOL d          30.130  19.796  65.394  0.00  0.00    -0.642 OA
ATOM     38  O1A MOL d          29.059  21.685  65.089  0.00  0.00    -0.642 OA
ENDBRANCH   1  36
TORSDOF 10
ENDMDL
MODEL 6
REMARK VINA RESULT:      -5.2      2.564      5.481
REMARK  10 active torsions:
REMARK  status: ('A' for Active; 'I' for Inactive)
REMARK    1  A    between atoms: C2_4  and  C1_1 
REMARK    2  A    between atoms: C4_6  and  N4_7 
REMARK    3  A    between atoms: C5_8  and  N5_9 
REMARK       I    between atoms: N5_9  and  C10_10 
REMARK    4  A    between atoms: C10_10  and  C11_12 
REMARK    5  A    between atoms: C6_13  and  C7_15 
REMARK    6  A    between atoms: C7_15  and  C8_17 
REMARK    7  A    between atoms: C7_15  and  O7_16 
REMARK    8  A    between atoms: C8_17  and  C9_19 
REMARK    9  A    between atoms: C8_17  and  O8_18 
REMARK   10  A    between atoms: C9_19  and  O9_20 
ROOT
ATOM      1  C2  MOL d          27.076  15.252  61.546  0.00  0.00     0.144 C 
ATOM      2  C3  MOL d          28.423  15.326  61.873  0.00  0.00    -0.033 C 
ATOM      3  C4  MOL d          29.101  16.640  62.359  0.00  0.00     0.141 C 
ATOM      4  C5  MOL d          28.066  17.573  62.999  0.00  0.00     0.070 C 
ATOM      5  C6  MOL d          26.817  17.683  62.067  0.00  0.00     0.094 C 
ATOM      6  O6  MOL d          26.235  16.343  61.843  0.00  0.00    -0.335 OA
ATOM      7  H1  MOL d          29.031  14.427  61.786  0.00  0.00     0.084 H 
ATOM      8  H2  MOL d          29.586  17.152  61.514  0.00  0.00     0.093 H 
ATOM      9  H6  MOL d          27.760  17.173  63.977  0.00  0.00     0.080 H 
ATOM     10  H11 MOL d          27.140  18.109  61.106  0.00  0.00     0.091 H 
ENDROOT
BRANCH   5  11
ATOM     11  C7  MOL d          25.667  18.587  62.667  0.00  0.00     0.089 C 
ATOM     12  H12 MOL d          24.722  18.396  62.138  0.00  0.00     0.091 H 
BRANCH  11  13
ATOM     13  C8  MOL d          25.501  18.266  64.162  0.00  0.00     0.083 C 
ATOM     14  H14 MOL d          26.442  17.825  64.523  0.00  0.00     0.090 H 
BRANCH  13  15
ATOM     15  C9  MOL d          25.196  19.509  65.015  0.00  0.00     0.043 C 
ATOM     16  H16 MOL d          24.845  19.179  66.004  0.00  0.00     0.078 H 
ATOM     17  H17 MOL d          24.403  20.088  64.519  0.00  0.00     0.078 H 
BRANCH  15  18
ATOM     18  O9  MOL d          26.317  20.342  65.191  0.00  0.00    -0.398 OA
ATOM     19  H18 MOL d          26.053  21.133  65.647  0.00  0.00     0.209 HD
ENDBRANCH  15  18
ENDBRANCH  13  15
BRANCH  13  20
ATOM     20  O8  MOL d          24.476  17.337  64.328  0.00  0.00    -0.391 OA
ATOM     21  H15 MOL d          24.583  16.633  63.699  0.00  0.00     0.210 HD
ENDBRANCH  13  20
ENDBRANCH  11  13
BRANCH  11  22
ATOM     22  O7  MOL d          26.053  19.975  62.504  0.00  0.00    -0.390 OA
ATOM     23  H13 MOL d          25.706  20.486  63.226  0.00  0.00     0.210 HD
ENDBRANCH  11  22
ENDBRANCH   5  11
BRANCH   4  24
ATOM     24  N5  MOL d          28.681  18.901  63.177  0.00  0.00    -0.352 N 
ATOM     25  C10 MOL d          29.112  19.311  64.364  0.00  0.00     0.214 C 
ATOM     26  O10 MOL d          29.010  18.631  65.384  0.00  0.00    -0.274 OA
ATOM     27  H7  MOL d          28.776  19.506  62.385  0.00  0.00     0.163 HD
BRANCH  25  28
ATOM     28  C11 MOL d          29.736  20.685  64.415  0.00  0.00    -0.003 C 
ATOM     29  H8  MOL d          28.957  21.435  64.615  0.00  0.00     0.040 H 
ATOM     30  H9  MOL d          30.218  20.905  63.451  0.00  0.00     0.040 H 
ATOM     31  H10 MOL d          30.489  20.716  65.216  0.00  0.00     0.040 H 
ENDBRANCH  25  28
ENDBRANCH   4  24
BRANCH   3  32
ATOM     32  N4  MOL d          30.098  16.254  63.360  0.00  0.00    -0.070 N 
ATOM     33  H3  MOL d          30.173  16.980  64.056  0.00  0.00     0.275 HD
ATOM     34  H4  MOL d          30.992  16.125  62.912  0.00  0.00     0.275 HD
ATOM     35  H5  MOL d          29.816  15.393  63.801  0.00  0.00     0.275 HD
ENDBRANCH   3  32
BRANCH   1  36
ATOM     36  C1  MOL d          26.477  14.130  60.976  0.00  0.00     0.233 C 
ATOM     37  O1B MOL d          26.700  13.841  59.779  0.00  0.00    -0.642 OA
ATOM     38  O1A MOL d          25.720  13.435  61.699  0.00  0.00    -0.642 OA
ENDBRANCH   1  36
TORSDOF 10
ENDMDL
MODEL 7
REMARK VINA RESULT:      -4.6      1.762      4.809
REMARK  10 active torsions:
REMARK  status: ('A' for Active; 'I' for Inactive)
REMARK    1  A    between atoms: C2_4  and  C1_1 
REMARK    2  A    between atoms: C4_6  and  N4_7 
REMARK    3  A    between atoms: C5_8  and  N5_9 
REMARK       I    between atoms: N5_9  and  C10_10 
REMARK    4  A    between atoms: C10_10  and  C11_12 
REMARK    5  A    between atoms: C6_13  and  C7_15 
REMARK    6  A    between atoms: C7_15  and  C8_17 
REMARK    7  A    between atoms: C7_15  and  O7_16 
REMARK    8  A    between atoms: C8_17  and  C9_19 
REMARK    9  A    between atoms: C8_17  and  O8_18 
REMARK   10  A    between atoms: C9_19  and  O9_20 
ROOT
ATOM      1  C2  MOL d          26.412  15.155  61.176  0.00  0.00     0.144 C 
ATOM      2  C3  MOL d          25.103  15.529  61.448  0.00  0.00    -0.033 C 
ATOM      3  C4  MOL d          24.733  16.550  62.564  0.00  0.00     0.141 C 
ATOM      4  C5  MOL d          25.913  17.489  62.844  0.00  0.00     0.070 C 
ATOM      5  C6  MOL d          27.220  16.649  63.010  0.00  0.00     0.094 C 
ATOM      6  O6  MOL d          27.470  15.857  61.787  0.00  0.00    -0.335 OA
ATOM      7  H1  MOL d          24.301  15.090  60.856  0.00  0.00     0.084 H 
ATOM      8  H2  MOL d          24.457  16.019  63.487  0.00  0.00     0.093 H 
ATOM      9  H6  MOL d          26.034  18.194  62.008  0.00  0.00     0.080 H 
ATOM     10  H11 MOL d          27.087  15.971  63.866  0.00  0.00     0.091 H 
ENDROOT
BRANCH   5  11
ATOM     11  C7  MOL d          28.506  17.535  63.253  0.00  0.00     0.089 C 
ATOM     12  H12 MOL d          29.411  16.963  63.001  0.00  0.00     0.091 H 
BRANCH  11  13
ATOM     13  C8  MOL d          28.424  18.794  62.373  0.00  0.00     0.083 C 
ATOM     14  H14 MOL d          27.393  18.884  62.001  0.00  0.00     0.090 H 
BRANCH  13  15
ATOM     15  C9  MOL d          28.774  20.084  63.135  0.00  0.00     0.043 C 
ATOM     16  H16 MOL d          28.865  19.846  64.205  0.00  0.00     0.078 H 
ATOM     17  H17 MOL d          27.958  20.809  62.989  0.00  0.00     0.078 H 
BRANCH  15  18
ATOM     18  O9  MOL d          29.977  20.669  62.699  0.00  0.00    -0.398 OA
ATOM     19  H18 MOL d          30.003  21.579  62.972  0.00  0.00     0.209 HD
ENDBRANCH  15  18
ENDBRANCH  13  15
BRANCH  13  20
ATOM     20  O8  MOL d          29.286  18.659  61.286  0.00  0.00    -0.391 OA
ATOM     21  H15 MOL d          29.770  19.467  61.164  0.00  0.00     0.210 HD
ENDBRANCH  13  20
ENDBRANCH  11  13
BRANCH  11  22
ATOM     22  O7  MOL d          28.534  17.916  64.651  0.00  0.00    -0.390 OA
ATOM     23  H13 MOL d          29.275  17.500  65.077  0.00  0.00     0.210 HD
ENDBRANCH  11  22
ENDBRANCH   5  11
BRANCH   4  24
ATOM     24  N5  MOL d          25.632  18.234  64.084  0.00  0.00    -0.352 N 
ATOM     25  C10 MOL d          25.320  19.525  64.061  0.00  0.00     0.214 C 
ATOM     26  O10 MOL d          25.265  20.181  63.021  0.00  0.00    -0.274 OA
ATOM     27  H7  MOL d          25.677  17.757  64.963  0.00  0.00     0.163 HD
BRANCH  25  28
ATOM     28  C11 MOL d          25.039  20.173  65.395  0.00  0.00    -0.003 C 
ATOM     29  H8  MOL d          24.047  20.648  65.371  0.00  0.00     0.040 H 
ATOM     30  H9  MOL d          25.805  20.935  65.601  0.00  0.00     0.040 H 
ATOM     31  H10 MOL d          25.060  19.409  66.186  0.00  0.00     0.040 H 
ENDBRANCH  25  28
ENDBRANCH   4  24
BRANCH   3  32
ATOM     32  N4  MOL d          23.597  17.327  62.064  0.00  0.00    -0.070 N 
ATOM     33  H3  MOL d          23.856  17.784  61.203  0.00  0.00     0.275 HD
ATOM     34  H4  MOL d          23.336  18.020  62.747  0.00  0.00     0.275 HD
ATOM     35  H5  MOL d          22.816  16.711  61.896  0.00  0.00     0.275 HD
ENDBRANCH   3  32
BRANCH   1  36
ATOM     36  C1  MOL d          26.759  14.142  60.283  0.00  0.00     0.233 C 
ATOM     37  O1B MOL d          27.962  13.935  60.007  0.00  0.00    -0.642 OA
ATOM     38  O1A MOL d          25.833  13.460  59.777  0.00  0.00    -0.642 OA
ENDBRANCH   1  36
TORSDOF 10
ENDMDL
MODEL 8
REMARK VINA RESULT:      -4.5      2.477      4.857
REMARK  10 active torsions:
REMARK  status: ('A' for Active; 'I' for Inactive)
REMARK    1  A    between atoms: C2_4  and  C1_1 
REMARK    2  A    between atoms: C4_6  and  N4_7 
REMARK    3  A    between atoms: C5_8  and  N5_9 
REMARK       I    between atoms: N5_9  and  C10_10 
REMARK    4  A    between atoms: C10_10  and  C11_12 
REMARK    5  A    between atoms: C6_13  and  C7_15 
REMARK    6  A    between atoms: C7_15  and  C8_17 
REMARK    7  A    between atoms: C7_15  and  O7_16 
REMARK    8  A    between atoms: C8_17  and  C9_19 
REMARK    9  A    between atoms: C8_17  and  O8_18 
REMARK   10  A    between atoms: C9_19  and  O9_20 
ROOT
ATOM      1  C2  MOL d          25.162  16.524  61.549  0.00  0.00     0.144 C 
ATOM      2  C3  MOL d          26.428  15.981  61.373  0.00  0.00    -0.033 C 
ATOM      3  C4  MOL d          27.718  16.659  61.920  0.00  0.00     0.141 C 
ATOM      4  C5  MOL d          27.386  17.555  63.119  0.00  0.00     0.070 C 
ATOM      5  C6  MOL d          26.163  18.462  62.769  0.00  0.00     0.094 C 
ATOM      6  O6  MOL d          24.998  17.623  62.415  0.00  0.00    -0.335 OA
ATOM      7  H1  MOL d          26.522  15.041  60.831  0.00  0.00     0.084 H 
ATOM      8  H2  MOL d          28.194  17.261  61.131  0.00  0.00     0.093 H 
ATOM      9  H6  MOL d          27.144  16.933  63.993  0.00  0.00     0.080 H 
ATOM     10  H11 MOL d          26.435  19.094  61.911  0.00  0.00     0.091 H 
ENDROOT
BRANCH   5  11
ATOM     11  C7  MOL d          25.710  19.391  63.966  0.00  0.00     0.089 C 
ATOM     12  H12 MOL d          24.845  20.000  63.665  0.00  0.00     0.091 H 
BRANCH  11  13
ATOM     13  C8  MOL d          25.334  18.513  65.172  0.00  0.00     0.083 C 
ATOM     14  H14 MOL d          25.791  18.952  66.070  0.00  0.00     0.090 H 
BRANCH  13  15
ATOM     15  C9  MOL d          23.815  18.423  65.401  0.00  0.00     0.043 C 
ATOM     16  H16 MOL d          23.379  19.422  65.254  0.00  0.00     0.078 H 
ATOM     17  H17 MOL d          23.636  18.093  66.435  0.00  0.00     0.078 H 
BRANCH  15  18
ATOM     18  O9  MOL d          23.181  17.523  64.524  0.00  0.00    -0.398 OA
ATOM     19  H18 MOL d          22.476  17.970  64.070  0.00  0.00     0.209 HD
ENDBRANCH  15  18
ENDBRANCH  13  15
BRANCH  13  20
ATOM     20  O8  MOL d          25.844  17.228  64.990  0.00  0.00    -0.391 OA
ATOM     21  H15 MOL d          25.126  16.613  64.902  0.00  0.00     0.210 HD
ENDBRANCH  13  20
ENDBRANCH  11  13
BRANCH  11  22
ATOM     22  O7  MOL d          26.823  20.251  64.316  0.00  0.00    -0.390 OA
ATOM     23  H13 MOL d          26.631  20.701  65.130  0.00  0.00     0.210 HD
ENDBRANCH  11  22
ENDBRANCH   5  11
BRANCH   4  24
ATOM     24  N5  MOL d          28.564  18.392  63.417  0.00  0.00    -0.352 N 
ATOM     25  C10 MOL d          29.258  18.234  64.538  0.00  0.00     0.214 C 
ATOM     26  O10 MOL d          28.959  17.409  65.400  0.00  0.00    -0.274 OA
ATOM     27  H7  MOL d          28.845  19.092  62.760  0.00  0.00     0.163 HD
BRANCH  25  28
ATOM     28  C11 MOL d          30.452  19.141  64.722  0.00  0.00    -0.003 C 
ATOM     29  H8  MOL d          30.948  18.905  65.675  0.00  0.00     0.040 H 
ATOM     30  H9  MOL d          30.119  20.188  64.731  0.00  0.00     0.040 H 
ATOM     31  H10 MOL d          31.159  18.988  63.893  0.00  0.00     0.040 H 
ENDBRANCH  25  28
ENDBRANCH   4  24
BRANCH   3  32
ATOM     32  N4  MOL d          28.612  15.581  62.347  0.00  0.00    -0.070 N 
ATOM     33  H3  MOL d          29.013  15.135  61.536  0.00  0.00     0.275 HD
ATOM     34  H4  MOL d          28.090  14.902  62.879  0.00  0.00     0.275 HD
ATOM     35  H5  MOL d          29.348  15.961  62.921  0.00  0.00     0.275 HD
ENDBRANCH   3  32
BRANCH   1  36
ATOM     36  C1  MOL d          24.011  16.014  60.951  0.00  0.00     0.233 C 
ATOM     37  O1B MOL d          23.156  16.793  60.472  0.00  0.00    -0.642 OA
ATOM     38  O1A MOL d          23.869  14.766  60.914  0.00  0.00    -0.642 OA
ENDBRANCH   1  36
TORSDOF 10
ENDMDL
MODEL 9
REMARK VINA RESULT:      -3.4      2.051      4.914
REMARK  10 active torsions:
REMARK  status: ('A' for Active; 'I' for Inactive)
REMARK    1  A    between atoms: C2_4  and  C1_1 
REMARK    2  A    between atoms: C4_6  and  N4_7 
REMARK    3  A    between atoms: C5_8  and  N5_9 
REMARK       I    between atoms: N5_9  and  C10_10 
REMARK    4  A    between atoms: C10_10  and  C11_12 
REMARK    5  A    between atoms: C6_13  and  C7_15 
REMARK    6  A    between atoms: C7_15  and  C8_17 
REMARK    7  A    between atoms: C7_15  and  O7_16 
REMARK    8  A    between atoms: C8_17  and  C9_19 
REMARK    9  A    between atoms: C8_17  and  O8_18 
REMARK   10  A    between atoms: C9_19  and  O9_20 
ROOT
ATOM      1  C2  MOL d          25.755  15.159  61.215  0.00  0.00     0.144 C 
ATOM      2  C3  MOL d          24.526  15.422  61.806  0.00  0.00    -0.033 C 
ATOM      3  C4  MOL d          24.343  16.477  62.936  0.00  0.00     0.141 C 
ATOM      4  C5  MOL d          25.443  17.543  62.858  0.00  0.00     0.070 C 
ATOM      5  C6  MOL d          26.834  16.847  62.711  0.00  0.00     0.094 C 
ATOM      6  O6  MOL d          26.849  16.001  61.498  0.00  0.00    -0.335 OA
ATOM      7  H1  MOL d          23.653  14.868  61.464  0.00  0.00     0.084 H 
ATOM      8  H2  MOL d          24.374  15.988  63.920  0.00  0.00     0.093 H 
ATOM      9  H6  MOL d          25.267  18.197  61.991  0.00  0.00     0.080 H 
ATOM     10  H11 MOL d          27.002  16.220  63.599  0.00  0.00     0.091 H 
ENDROOT
BRANCH   5  11
ATOM     11  C7  MOL d          28.033  17.868  62.571  0.00  0.00     0.089 C 
ATOM     12  H12 MOL d          27.677  18.894  62.746  0.00  0.00     0.091 H 
BRANCH  11  13
ATOM     13  C8  MOL d          29.121  17.512  63.599  0.00  0.00     0.083 C 
ATOM     14  H14 MOL d          30.092  17.828  63.191  0.00  0.00     0.090 H 
BRANCH  13  15
ATOM     15  C9  MOL d          28.920  18.210  64.955  0.00  0.00     0.043 C 
ATOM     16  H16 MOL d          29.762  17.947  65.613  0.00  0.00     0.078 H 
ATOM     17  H17 MOL d          27.981  17.848  65.399  0.00  0.00     0.078 H 
BRANCH  15  18
ATOM     18  O9  MOL d          28.855  19.611  64.846  0.00  0.00    -0.398 OA
ATOM     19  H18 MOL d          28.317  19.958  65.548  0.00  0.00     0.209 HD
ENDBRANCH  15  18
ENDBRANCH  13  15
BRANCH  13  20
ATOM     20  O8  MOL d          29.143  16.132  63.795  0.00  0.00    -0.391 OA
ATOM     21  H15 MOL d          30.043  15.836  63.857  0.00  0.00     0.210 HD
ENDBRANCH  13  20
ENDBRANCH  11  13
BRANCH  11  22
ATOM     22  O7  MOL d          28.570  17.753  61.230  0.00  0.00    -0.390 OA
ATOM     23  H13 MOL d          27.894  17.434  60.644  0.00  0.00     0.210 HD
ENDBRANCH  11  22
ENDBRANCH   5  11
BRANCH   4  24
ATOM     24  N5  MOL d          25.408  18.342  64.097  0.00  0.00    -0.352 N 
ATOM     25  C10 MOL d          25.480  19.667  64.068  0.00  0.00     0.214 C 
ATOM     26  O10 MOL d          25.600  20.308  63.025  0.00  0.00    -0.274 OA
ATOM     27  H7  MOL d          25.329  17.874  64.978  0.00  0.00     0.163 HD
BRANCH  25  28
ATOM     28  C11 MOL d          25.419  20.373  65.401  0.00  0.00    -0.003 C 
ATOM     29  H8  MOL d          26.060  21.267  65.373  0.00  0.00     0.040 H 
ATOM     30  H9  MOL d          25.771  19.695  66.192  0.00  0.00     0.040 H 
ATOM     31  H10 MOL d          24.382  20.672  65.611  0.00  0.00     0.040 H 
ENDBRANCH  25  28
ENDBRANCH   4  24
BRANCH   3  32
ATOM     32  N4  MOL d          23.038  17.105  62.719  0.00  0.00    -0.070 N 
ATOM     33  H3  MOL d          22.483  16.524  62.110  0.00  0.00     0.275 HD
ATOM     34  H4  MOL d          23.166  18.010  62.295  0.00  0.00     0.275 HD
ATOM     35  H5  MOL d          22.565  17.212  63.603  0.00  0.00     0.275 HD
ENDBRANCH   3  32
BRANCH   1  36
ATOM     36  C1  MOL d          25.972  14.126  60.306  0.00  0.00     0.233 C 
ATOM     37  O1B MOL d          27.126  13.898  59.880  0.00  0.00    -0.642 OA
ATOM     38  O1A MOL d          24.981  13.446  59.938  0.00  0.00    -0.642 OA
ENDBRANCH   1  36
TORSDOF 10
ENDMDL
