MODEL 1
REMARK VINA RESULT:     -10.3      0.000      0.000
REMARK  5 active torsions:
REMARK  status: ('A' for Active; 'I' for Inactive)
REMARK    1  A    between atoms: O1_1  and  C1_2 
REMARK    2  A    between atoms: C1_2  and  C2_3 
REMARK    3  A    between atoms: C6_8  and  S1_13 
REMARK    4  A    between atoms: S1_13  and  N2_16 
REMARK    5  A    between atoms: N2_16  and  C11_17 
ROOT
ATOM      1  C2  F83 d          28.820  45.424  20.529  0.00  0.00     0.126 C 
ATOM      2  N1  F83 d          29.141  43.990  20.497  0.00  0.00    -0.065 N 
ATOM      3  C3  F83 d          28.368  43.316  19.445  0.00  0.00     0.106 C 
ATOM      4  C4  F83 d          28.527  44.027  18.095  0.00  0.00    -0.025 A 
ATOM      5  C5  F83 d          28.146  43.368  16.933  0.00  0.00    -0.052 A 
ATOM      6  C6  F83 d          28.234  44.011  15.702  0.00  0.00     0.080 A 
ATOM      7  C7  F83 d          28.708  45.318  15.634  0.00  0.00    -0.060 A 
ATOM      8  C8  F83 d          29.094  45.979  16.796  0.00  0.00    -0.075 A 
ATOM      9  C9  F83 d          29.006  45.336  18.028  0.00  0.00    -0.048 A 
ATOM     10  C10 F83 d          29.438  46.079  19.292  0.00  0.00    -0.012 C 
ATOM     11  H4  F83 d          27.728  45.559  20.514  0.00  0.00     0.088 H 
ATOM     12  H5  F83 d          28.916  43.579  21.390  0.00  0.00     0.278 HD
ATOM     13  H6  F83 d          30.125  43.874  20.312  0.00  0.00     0.278 HD
ATOM     14  H7  F83 d          27.304  43.315  19.726  0.00  0.00     0.083 H 
ATOM     15  H8  F83 d          28.722  42.279  19.347  0.00  0.00     0.083 H 
ATOM     16  H9  F83 d          27.779  42.349  16.984  0.00  0.00     0.086 H 
ATOM     17  H10 F83 d          28.776  45.821  14.676  0.00  0.00     0.085 H 
ATOM     18  H11 F83 d          29.464  46.996  16.741  0.00  0.00     0.084 H 
ATOM     19  H12 F83 d          30.535  46.048  19.374  0.00  0.00     0.043 H 
ATOM     20  H13 F83 d          29.105  47.126  19.229  0.00  0.00     0.043 H 
ENDROOT
BRANCH   6  21
ATOM     21  S1  F83 d          27.738  43.183  14.243  0.00  0.00     0.263 S 
ATOM     22  O2  F83 d          26.309  43.068  14.211  0.00  0.00    -0.200 OA
ATOM     23  O3  F83 d          28.341  41.810  14.218  0.00  0.00    -0.200 OA
BRANCH  21  24
ATOM     24  N2  F83 d          28.270  44.012  12.946  0.00  0.00    -0.281 N 
ATOM     25  H14 F83 d          29.247  43.988  12.737  0.00  0.00     0.179 HD
BRANCH  24  26
ATOM     26  C11 F83 d          27.387  44.794  12.068  0.00  0.00     0.042 A 
ATOM     27  C12 F83 d          26.399  45.622  12.594  0.00  0.00    -0.055 A 
ATOM     28  C13 F83 d          25.627  46.412  11.744  0.00  0.00    -0.060 A 
ATOM     29  H15 F83 d          26.229  45.652  13.664  0.00  0.00     0.087 H 
ATOM     30  C14 F83 d          25.840  46.378  10.367  0.00  0.00     0.034 A 
ATOM     31  H16 F83 d          24.858  47.056  12.156  0.00  0.00     0.086 H 
ATOM     32  C15 F83 d          26.823  45.545   9.843  0.00  0.00    -0.060 A 
ATOM     33 CL1  F83 d          24.911  47.380   9.306  0.00  0.00    -0.084 Cl
ATOM     34  C16 F83 d          27.594  44.752  10.692  0.00  0.00    -0.055 A 
ATOM     35  H17 F83 d          26.989  45.511   8.772  0.00  0.00     0.086 H 
ATOM     36  H18 F83 d          28.356  44.101  10.280  0.00  0.00     0.087 H 
ENDBRANCH  24  26
ENDBRANCH  21  24
ENDBRANCH   6  21
BRANCH   1  37
ATOM     37  C1  F83 d          29.390  46.064  21.795  0.00  0.00     0.044 C 
ATOM     38  H2  F83 d          28.760  45.803  22.658  0.00  0.00     0.077 H 
ATOM     39  H3  F83 d          30.414  45.699  21.965  0.00  0.00     0.077 H 
BRANCH  37  40
ATOM     40  O1  F83 d          29.409  47.485  21.625  0.00  0.00    -0.399 OA
ATOM     41  H1  F83 d          28.919  47.893  22.330  0.00  0.00     0.209 HD
ENDBRANCH  37  40
ENDBRANCH   1  37
TORSDOF 5
ENDMDL
