MODEL 1
REMARK VINA RESULT:      -5.5      0.000      0.000
REMARK  19 active torsions:
REMARK  status: ('A' for Active; 'I' for Inactive)
REMARK    1  A    between atoms: C2_4  and  C1_2 
REMARK    2  A    between atoms: O2_17  and  C2_4 
REMARK    3  A    between atoms: C6_6  and  C7_7 
REMARK    4  A    between atoms: C7_7  and  C8_8 
REMARK    5  A    between atoms: C7_7  and  O7_10 
REMARK    6  A    between atoms: C8_8  and  O8_9 
REMARK    7  A    between atoms: C5_11  and  O5_12 
REMARK    8  A    between atoms: C4_13  and  O4_14 
REMARK    9  A    between atoms: C3_15  and  O3_16 
REMARK   10  A    between atoms: C4_23  and  O2_17 
REMARK   11  A    between atoms: C2_21  and  C1_18 
REMARK   12  A    between atoms: C2_21  and  O2_32 
REMARK   13  A    between atoms: C5_24  and  O5_25 
REMARK   14  A    between atoms: C6_26  and  C7_28 
REMARK   15  A    between atoms: C7_28  and  O7_29 
REMARK   16  A    between atoms: C7_28  and  C8_30 
REMARK   17  A    between atoms: C8_30  and  O8_31 
REMARK   18  A    between atoms: O2_32  and  C9_33 
REMARK   19  A    between atoms: C9_33  and  C10_34 
ROOT
ATOM      1  C2  KO1 d          -6.681   0.457  70.295  0.00  0.00     0.259 C 
ATOM      2  C3  KO1 d          -7.051   1.445  69.145  0.00  0.00     0.024 C 
ATOM      3  C4  KO1 d          -8.170   2.467  69.472  0.00  0.00     0.075 C 
ATOM      4  C5  KO1 d          -9.447   1.876  70.124  0.00  0.00     0.088 C 
ATOM      5  C6  KO1 d          -8.998   1.028  71.354  0.00  0.00     0.096 C 
ATOM      6  O6  KO1 d          -7.900   0.088  71.003  0.00  0.00    -0.336 OA
ATOM      7  H13 KO1 d          -7.378   0.849  68.280  0.00  0.00     0.045 H 
ATOM      8  H14 KO1 d          -6.144   2.010  68.879  0.00  0.00     0.045 H 
ATOM      9  H15 KO1 d          -7.734   3.202  70.163  0.00  0.00     0.087 H 
ATOM     10  H16 KO1 d         -10.069   2.705  70.489  0.00  0.00     0.091 H 
ATOM     11  H18 KO1 d          -8.576   1.736  72.083  0.00  0.00     0.091 H 
ENDROOT
BRANCH   3  12
ATOM     12  O2  KO1 d          -8.676   3.167  68.291  0.00  0.00    -0.336 OA
BRANCH  12  13
ATOM     13  C2  KO1 d          -7.769   3.995  67.482  0.00  0.00     0.286 C 
ATOM     14  O6  KO1 d          -7.290   3.138  66.274  0.00  0.00    -0.334 OA
ATOM     15  C6  KO1 d          -8.489   2.556  65.562  0.00  0.00     0.096 C 
ATOM     16  C5  KO1 d          -9.298   3.698  64.942  0.00  0.00     0.090 C 
ATOM     17  H1  KO1 d          -9.138   2.015  66.266  0.00  0.00     0.091 H 
ATOM     18  C4  KO1 d          -9.801   4.627  66.079  0.00  0.00     0.093 C 
ATOM     19  H7  KO1 d         -10.156   3.288  64.387  0.00  0.00     0.091 H 
ATOM     20  C3  KO1 d          -8.666   5.180  66.995  0.00  0.00     0.127 C 
ATOM     21  H9  KO1 d         -10.490   4.048  66.711  0.00  0.00     0.091 H 
ATOM     22  H11 KO1 d          -9.120   5.712  67.844  0.00  0.00     0.096 H 
BRANCH  13  23
ATOM     23  C1  KO1 d          -6.508   4.563  68.170  0.00  0.00     0.241 C 
ATOM     24  OA1 KO1 d          -6.628   5.395  69.110  0.00  0.00    -0.644 OA
ATOM     25  O1B KO1 d          -5.401   4.176  67.791  0.00  0.00    -0.644 OA
ENDBRANCH  13  23
BRANCH  15  26
ATOM     26  C7  KO1 d          -7.855   1.544  64.561  0.00  0.00     0.083 C 
ATOM     27  H2  KO1 d          -8.191   1.791  63.544  0.00  0.00     0.090 H 
BRANCH  26  28
ATOM     28  C8  KO1 d          -6.313   1.595  64.540  0.00  0.00     0.043 C 
ATOM     29  H3  KO1 d          -5.884   0.714  64.040  0.00  0.00     0.078 H 
ATOM     30  H4  KO1 d          -5.896   1.682  65.553  0.00  0.00     0.078 H 
BRANCH  28  31
ATOM     31  O8  KO1 d          -6.101   2.800  63.770  0.00  0.00    -0.398 OA
ATOM     32  H5  KO1 d          -6.674   2.796  63.012  0.00  0.00     0.209 HD
ENDBRANCH  28  31
ENDBRANCH  26  28
BRANCH  26  33
ATOM     33  O7  KO1 d          -8.423   0.296  64.929  0.00  0.00    -0.391 OA
ATOM     34  H6  KO1 d          -9.339   0.419  65.150  0.00  0.00     0.210 HD
ENDBRANCH  26  33
ENDBRANCH  15  26
BRANCH  16  35
ATOM     35  O5  KO1 d          -8.458   4.452  64.051  0.00  0.00    -0.390 OA
ATOM     36  H8  KO1 d          -9.001   4.922  63.428  0.00  0.00     0.210 HD
ENDBRANCH  16  35
BRANCH  18  37
ATOM     37  O4  KO1 d         -10.507   5.700  65.502  0.00  0.00    -0.390 OA
ATOM     38  H10 KO1 d         -10.945   6.194  66.185  0.00  0.00     0.210 HD
ENDBRANCH  18  37
BRANCH  20  39
ATOM     39  O3  KO1 d          -7.739   6.016  66.333  0.00  0.00    -0.387 OA
ATOM     40  H12 KO1 d          -7.328   5.534  65.625  0.00  0.00     0.210 HD
ENDBRANCH  20  39
ENDBRANCH  12  13
ENDBRANCH   3  12
BRANCH   4  41
ATOM     41  O5  KO1 d         -10.242   1.127  69.156  0.00  0.00    -0.390 OA
ATOM     42  H17 KO1 d          -9.677   0.804  68.464  0.00  0.00     0.210 HD
ENDBRANCH   4  41
BRANCH   1  43
ATOM     43  C1  KO1 d          -6.052  -0.787  69.590  0.00  0.00     0.239 C 
ATOM     44  O1A KO1 d          -4.793  -0.852  69.639  0.00  0.00    -0.644 OA
ATOM     45  O1B KO1 d          -6.803  -1.636  69.003  0.00  0.00    -0.644 OA
ENDBRANCH   1  43
BRANCH   1  46
ATOM     46  O2  KO1 d          -5.814   1.010  71.313  0.00  0.00    -0.343 OA
BRANCH  46  47
ATOM     47  C9  KO1 d          -5.219   0.952  72.570  0.00  0.00     0.038 C 
ATOM     48  H24 KO1 d          -5.613   1.822  73.116  0.00  0.00     0.080 H 
ATOM     49  H25 KO1 d          -4.143   1.091  72.386  0.00  0.00     0.080 H 
BRANCH  47  50
ATOM     50  C10 KO1 d          -5.304  -0.127  73.479  0.00  0.00    -0.089 C 
ATOM     51  C11 KO1 d          -5.030  -1.460  73.132  0.00  0.00    -0.123 C 
ATOM     52  H27 KO1 d          -5.115  -2.246  73.880  0.00  0.00     0.066 H 
ATOM     53  H28 KO1 d          -4.735  -1.708  72.113  0.00  0.00     0.066 H 
ATOM     54  H26 KO1 d          -5.597   0.087  74.506  0.00  0.00     0.078 H 
ENDBRANCH  47  50
ENDBRANCH  46  47
ENDBRANCH   1  46
BRANCH   5  55
ATOM     55  C7  KO1 d         -10.191   0.334  72.065  0.00  0.00     0.083 C 
ATOM     56  H19 KO1 d         -11.109   0.737  71.611  0.00  0.00     0.090 H 
BRANCH  55  57
ATOM     57  O7  KO1 d         -10.219   0.661  73.473  0.00  0.00    -0.391 OA
ATOM     58  H20 KO1 d         -10.852   1.353  73.623  0.00  0.00     0.210 HD
ENDBRANCH  55  57
BRANCH  55  59
ATOM     59  C8  KO1 d         -10.232  -1.212  71.879  0.00  0.00     0.043 C 
ATOM     60  H21 KO1 d         -11.171  -1.595  72.306  0.00  0.00     0.078 H 
ATOM     61  H22 KO1 d          -9.379  -1.656  72.413  0.00  0.00     0.078 H 
BRANCH  59  62
ATOM     62  O8  KO1 d         -10.161  -1.598  70.483  0.00  0.00    -0.398 OA
ATOM     63  H23 KO1 d          -9.374  -2.109  70.336  0.00  0.00     0.209 HD
ENDBRANCH  59  62
ENDBRANCH  55  59
ENDBRANCH   5  55
TORSDOF 19
ENDMDL
MODEL 2
REMARK VINA RESULT:      -5.3      1.675      2.573
REMARK  19 active torsions:
REMARK  status: ('A' for Active; 'I' for Inactive)
REMARK    1  A    between atoms: C2_4  and  C1_2 
REMARK    2  A    between atoms: O2_17  and  C2_4 
REMARK    3  A    between atoms: C6_6  and  C7_7 
REMARK    4  A    between atoms: C7_7  and  C8_8 
REMARK    5  A    between atoms: C7_7  and  O7_10 
REMARK    6  A    between atoms: C8_8  and  O8_9 
REMARK    7  A    between atoms: C5_11  and  O5_12 
REMARK    8  A    between atoms: C4_13  and  O4_14 
REMARK    9  A    between atoms: C3_15  and  O3_16 
REMARK   10  A    between atoms: C4_23  and  O2_17 
REMARK   11  A    between atoms: C2_21  and  C1_18 
REMARK   12  A    between atoms: C2_21  and  O2_32 
REMARK   13  A    between atoms: C5_24  and  O5_25 
REMARK   14  A    between atoms: C6_26  and  C7_28 
REMARK   15  A    between atoms: C7_28  and  O7_29 
REMARK   16  A    between atoms: C7_28  and  C8_30 
REMARK   17  A    between atoms: C8_30  and  O8_31 
REMARK   18  A    between atoms: O2_32  and  C9_33 
REMARK   19  A    between atoms: C9_33  and  C10_34 
ROOT
ATOM      1  C2  KO1 d          -8.011   0.567  71.281  0.00  0.00     0.259 C 
ATOM      2  C3  KO1 d          -8.240   1.185  69.867  0.00  0.00     0.024 C 
ATOM      3  C4  KO1 d          -8.068   2.722  69.770  0.00  0.00     0.075 C 
ATOM      4  C5  KO1 d          -8.801   3.548  70.859  0.00  0.00     0.088 C 
ATOM      5  C6  KO1 d          -8.396   2.961  72.247  0.00  0.00     0.096 C 
ATOM      6  O6  KO1 d          -8.544   1.482  72.283  0.00  0.00    -0.336 OA
ATOM      7  H13 KO1 d          -9.266   0.939  69.553  0.00  0.00     0.045 H 
ATOM      8  H14 KO1 d          -7.524   0.720  69.174  0.00  0.00     0.045 H 
ATOM      9  H15 KO1 d          -6.990   2.924  69.846  0.00  0.00     0.087 H 
ATOM     10  H16 KO1 d          -8.444   4.587  70.810  0.00  0.00     0.091 H 
ATOM     11  H18 KO1 d          -7.323   3.167  72.371  0.00  0.00     0.091 H 
ENDROOT
BRANCH   3  12
ATOM     12  O2  KO1 d          -8.569   3.283  68.515  0.00  0.00    -0.336 OA
BRANCH  12  13
ATOM     13  C2  KO1 d          -7.666   4.040  67.635  0.00  0.00     0.286 C 
ATOM     14  O6  KO1 d          -7.284   3.120  66.439  0.00  0.00    -0.334 OA
ATOM     15  C6  KO1 d          -8.540   2.571  65.804  0.00  0.00     0.096 C 
ATOM     16  C5  KO1 d          -9.326   3.727  65.181  0.00  0.00     0.090 C 
ATOM     17  H1  KO1 d          -9.178   2.084  66.556  0.00  0.00     0.091 H 
ATOM     18  C4  KO1 d          -9.732   4.716  66.306  0.00  0.00     0.093 C 
ATOM     19  H7  KO1 d         -10.226   3.338  64.682  0.00  0.00     0.091 H 
ATOM     20  C3  KO1 d          -8.532   5.248  67.148  0.00  0.00     0.127 C 
ATOM     21  H9  KO1 d         -10.415   4.191  66.990  0.00  0.00     0.091 H 
ATOM     22  H11 KO1 d          -8.920   5.828  67.997  0.00  0.00     0.096 H 
BRANCH  13  23
ATOM     23  C1  KO1 d          -6.349   4.572  68.244  0.00  0.00     0.241 C 
ATOM     24  OA1 KO1 d          -6.375   5.565  69.020  0.00  0.00    -0.644 OA
ATOM     25  O1B KO1 d          -5.295   4.000  67.965  0.00  0.00    -0.644 OA
ENDBRANCH  13  23
BRANCH  15  26
ATOM     26  C7  KO1 d          -8.000   1.497  64.812  0.00  0.00     0.083 C 
ATOM     27  H2  KO1 d          -8.346   1.743  63.798  0.00  0.00     0.090 H 
BRANCH  26  28
ATOM     28  C8  KO1 d          -6.459   1.446  64.751  0.00  0.00     0.043 C 
ATOM     29  H3  KO1 d          -6.100   0.503  64.313  0.00  0.00     0.078 H 
ATOM     30  H4  KO1 d          -6.009   1.583  65.745  0.00  0.00     0.078 H 
BRANCH  28  31
ATOM     31  O8  KO1 d          -6.193   2.572  63.885  0.00  0.00    -0.398 OA
ATOM     32  H5  KO1 d          -5.679   3.218  64.356  0.00  0.00     0.209 HD
ENDBRANCH  28  31
ENDBRANCH  26  28
BRANCH  26  33
ATOM     33  O7  KO1 d          -8.638   0.298  65.224  0.00  0.00    -0.391 OA
ATOM     34  H6  KO1 d          -8.210  -0.035  66.005  0.00  0.00     0.210 HD
ENDBRANCH  26  33
ENDBRANCH  15  26
BRANCH  16  35
ATOM     35  O5  KO1 d          -8.497   4.411  64.225  0.00  0.00    -0.390 OA
ATOM     36  H8  KO1 d          -7.694   4.694  64.649  0.00  0.00     0.210 HD
ENDBRANCH  16  35
BRANCH  18  37
ATOM     37  O4  KO1 d         -10.417   5.801  65.723  0.00  0.00    -0.390 OA
ATOM     38  H10 KO1 d          -9.792   6.373  65.292  0.00  0.00     0.210 HD
ENDBRANCH  18  37
BRANCH  20  39
ATOM     39  O3  KO1 d          -7.601   6.017  66.414  0.00  0.00    -0.387 OA
ATOM     40  H12 KO1 d          -6.937   6.356  67.004  0.00  0.00     0.210 HD
ENDBRANCH  20  39
ENDBRANCH  12  13
ENDBRANCH   3  12
BRANCH   4  41
ATOM     41  O5  KO1 d         -10.243   3.571  70.632  0.00  0.00    -0.390 OA
ATOM     42  H17 KO1 d         -10.603   2.709  70.802  0.00  0.00     0.210 HD
ENDBRANCH   4  41
BRANCH   1  43
ATOM     43  C1  KO1 d          -8.805  -0.779  71.282  0.00  0.00     0.239 C 
ATOM     44  O1A KO1 d          -8.556  -1.548  72.250  0.00  0.00    -0.644 OA
ATOM     45  O1B KO1 d          -9.621  -1.040  70.335  0.00  0.00    -0.644 OA
ENDBRANCH   1  43
BRANCH   1  46
ATOM     46  O2  KO1 d          -6.622   0.386  71.645  0.00  0.00    -0.343 OA
BRANCH  46  47
ATOM     47  C9  KO1 d          -5.371  -0.183  71.432  0.00  0.00     0.038 C 
ATOM     48  H24 KO1 d          -5.318  -1.034  72.127  0.00  0.00     0.080 H 
ATOM     49  H25 KO1 d          -4.647   0.587  71.739  0.00  0.00     0.080 H 
BRANCH  47  50
ATOM     50  C10 KO1 d          -4.884  -0.678  70.200  0.00  0.00    -0.089 C 
ATOM     51  C11 KO1 d          -5.573  -1.614  69.411  0.00  0.00    -0.123 C 
ATOM     52  H27 KO1 d          -5.142  -1.957  68.472  0.00  0.00     0.066 H 
ATOM     53  H28 KO1 d          -6.538  -1.998  69.740  0.00  0.00     0.066 H 
ATOM     54  H26 KO1 d          -3.921  -0.315  69.844  0.00  0.00     0.078 H 
ENDBRANCH  47  50
ENDBRANCH  46  47
ENDBRANCH   1  46
BRANCH   5  55
ATOM     55  C7  KO1 d          -9.113   3.674  73.426  0.00  0.00     0.083 C 
ATOM     56  H19 KO1 d          -8.661   3.288  74.352  0.00  0.00     0.090 H 
BRANCH  55  57
ATOM     57  O7  KO1 d         -10.520   3.345  73.454  0.00  0.00    -0.391 OA
ATOM     58  H20 KO1 d         -10.653   2.577  73.998  0.00  0.00     0.210 HD
ENDBRANCH  55  57
BRANCH  55  59
ATOM     59  C8  KO1 d          -8.931   5.221  73.440  0.00  0.00     0.043 C 
ATOM     60  H21 KO1 d          -9.328   5.616  74.386  0.00  0.00     0.078 H 
ATOM     61  H22 KO1 d          -9.495   5.652  72.599  0.00  0.00     0.078 H 
BRANCH  59  62
ATOM     62  O8  KO1 d          -7.539   5.610  73.317  0.00  0.00    -0.398 OA
ATOM     63  H23 KO1 d          -7.009   4.839  73.152  0.00  0.00     0.209 HD
ENDBRANCH  59  62
ENDBRANCH  55  59
ENDBRANCH   5  55
TORSDOF 19
ENDMDL
MODEL 3
REMARK VINA RESULT:      -5.3      1.715      3.535
REMARK  19 active torsions:
REMARK  status: ('A' for Active; 'I' for Inactive)
REMARK    1  A    between atoms: C2_4  and  C1_2 
REMARK    2  A    between atoms: O2_17  and  C2_4 
REMARK    3  A    between atoms: C6_6  and  C7_7 
REMARK    4  A    between atoms: C7_7  and  C8_8 
REMARK    5  A    between atoms: C7_7  and  O7_10 
REMARK    6  A    between atoms: C8_8  and  O8_9 
REMARK    7  A    between atoms: C5_11  and  O5_12 
REMARK    8  A    between atoms: C4_13  and  O4_14 
REMARK    9  A    between atoms: C3_15  and  O3_16 
REMARK   10  A    between atoms: C4_23  and  O2_17 
REMARK   11  A    between atoms: C2_21  and  C1_18 
REMARK   12  A    between atoms: C2_21  and  O2_32 
REMARK   13  A    between atoms: C5_24  and  O5_25 
REMARK   14  A    between atoms: C6_26  and  C7_28 
REMARK   15  A    between atoms: C7_28  and  O7_29 
REMARK   16  A    between atoms: C7_28  and  C8_30 
REMARK   17  A    between atoms: C8_30  and  O8_31 
REMARK   18  A    between atoms: O2_32  and  C9_33 
REMARK   19  A    between atoms: C9_33  and  C10_34 
ROOT
ATOM      1  C2  KO1 d          -7.279   0.351  69.353  0.00  0.00     0.259 C 
ATOM      2  C3  KO1 d          -7.347   0.703  67.833  0.00  0.00     0.024 C 
ATOM      3  C4  KO1 d          -8.668   1.356  67.354  0.00  0.00     0.075 C 
ATOM      4  C5  KO1 d          -9.970   0.650  67.816  0.00  0.00     0.088 C 
ATOM      5  C6  KO1 d          -9.886   0.475  69.364  0.00  0.00     0.096 C 
ATOM      6  O6  KO1 d          -8.590  -0.122  69.781  0.00  0.00    -0.336 OA
ATOM      7  H13 KO1 d          -7.203  -0.228  67.264  0.00  0.00     0.045 H 
ATOM      8  H14 KO1 d          -6.525   1.400  67.610  0.00  0.00     0.045 H 
ATOM      9  H15 KO1 d          -8.672   2.384  67.744  0.00  0.00     0.087 H 
ATOM     10  H16 KO1 d         -10.822   1.307  67.592  0.00  0.00     0.091 H 
ATOM     11  H18 KO1 d          -9.913   1.487  69.793  0.00  0.00     0.091 H 
ENDROOT
BRANCH   3  12
ATOM     12  O2  KO1 d          -8.796   1.400  65.897  0.00  0.00    -0.336 OA
BRANCH  12  13
ATOM     13  C2  KO1 d          -9.224   2.640  65.234  0.00  0.00     0.286 C 
ATOM     14  O6  KO1 d          -9.052   3.808  66.249  0.00  0.00    -0.334 OA
ATOM     15  C6  KO1 d          -7.647   3.791  66.804  0.00  0.00     0.096 C 
ATOM     16  C5  KO1 d          -6.663   4.099  65.673  0.00  0.00     0.090 C 
ATOM     17  H1  KO1 d          -7.400   2.800  67.215  0.00  0.00     0.091 H 
ATOM     18  C4  KO1 d          -6.782   2.991  64.592  0.00  0.00     0.093 C 
ATOM     19  H7  KO1 d          -5.637   4.127  66.068  0.00  0.00     0.091 H 
ATOM     20  C3  KO1 d          -8.228   2.798  64.038  0.00  0.00     0.127 C 
ATOM     21  H9  KO1 d          -6.467   2.040  65.045  0.00  0.00     0.091 H 
ATOM     22  H11 KO1 d          -8.245   1.913  63.386  0.00  0.00     0.096 H 
BRANCH  13  23
ATOM     23  C1  KO1 d         -10.672   2.707  64.699  0.00  0.00     0.241 C 
ATOM     24  OA1 KO1 d         -11.289   1.641  64.428  0.00  0.00    -0.644 OA
ATOM     25  O1B KO1 d         -11.202   3.811  64.562  0.00  0.00    -0.644 OA
ENDBRANCH  13  23
BRANCH  15  26
ATOM     26  C7  KO1 d          -7.706   4.831  67.962  0.00  0.00     0.083 C 
ATOM     27  H2  KO1 d          -8.259   4.393  68.806  0.00  0.00     0.090 H 
BRANCH  26  28
ATOM     28  C8  KO1 d          -6.314   5.220  68.502  0.00  0.00     0.043 C 
ATOM     29  H3  KO1 d          -6.388   5.867  69.389  0.00  0.00     0.078 H 
ATOM     30  H4  KO1 d          -5.706   5.719  67.733  0.00  0.00     0.078 H 
BRANCH  28  31
ATOM     31  O8  KO1 d          -5.787   3.916  68.835  0.00  0.00    -0.398 OA
ATOM     32  H5  KO1 d          -6.451   3.415  69.295  0.00  0.00     0.209 HD
ENDBRANCH  28  31
ENDBRANCH  26  28
BRANCH  26  33
ATOM     33  O7  KO1 d          -8.477   5.896  67.428  0.00  0.00    -0.391 OA
ATOM     34  H6  KO1 d          -8.749   6.473  68.132  0.00  0.00     0.210 HD
ENDBRANCH  26  33
ENDBRANCH  15  26
BRANCH  16  35
ATOM     35  O5  KO1 d          -6.992   5.371  65.085  0.00  0.00    -0.390 OA
ATOM     36  H8  KO1 d          -6.701   5.385  64.181  0.00  0.00     0.210 HD
ENDBRANCH  16  35
BRANCH  18  37
ATOM     37  O4  KO1 d          -5.909   3.303  63.532  0.00  0.00    -0.390 OA
ATOM     38  H10 KO1 d          -5.556   2.499  63.168  0.00  0.00     0.210 HD
ENDBRANCH  18  37
BRANCH  20  39
ATOM     39  O3  KO1 d          -8.744   3.921  63.353  0.00  0.00    -0.387 OA
ATOM     40  H12 KO1 d          -9.619   3.723  63.039  0.00  0.00     0.210 HD
ENDBRANCH  20  39
ENDBRANCH  12  13
ENDBRANCH   3  12
BRANCH   4  41
ATOM     41  O5  KO1 d         -10.183  -0.602  67.096  0.00  0.00    -0.390 OA
ATOM     42  H17 KO1 d         -10.993  -0.549  66.603  0.00  0.00     0.210 HD
ENDBRANCH   4  41
BRANCH   1  43
ATOM     43  C1  KO1 d          -6.215  -0.787  69.469  0.00  0.00     0.239 C 
ATOM     44  O1A KO1 d          -5.252  -0.543  70.246  0.00  0.00    -0.644 OA
ATOM     45  O1B KO1 d          -6.348  -1.859  68.789  0.00  0.00    -0.644 OA
ENDBRANCH   1  43
BRANCH   1  46
ATOM     46  O2  KO1 d          -6.986   1.470  70.221  0.00  0.00    -0.343 OA
BRANCH  46  47
ATOM     47  C9  KO1 d          -7.241   2.228  71.359  0.00  0.00     0.038 C 
ATOM     48  H24 KO1 d          -8.292   2.540  71.269  0.00  0.00     0.080 H 
ATOM     49  H25 KO1 d          -6.588   3.109  71.272  0.00  0.00     0.080 H 
BRANCH  47  50
ATOM     50  C10 KO1 d          -7.097   1.792  72.697  0.00  0.00    -0.089 C 
ATOM     51  C11 KO1 d          -7.209   0.449  73.093  0.00  0.00    -0.123 C 
ATOM     52  H27 KO1 d          -7.088   0.179  74.140  0.00  0.00     0.066 H 
ATOM     53  H28 KO1 d          -7.418  -0.322  72.352  0.00  0.00     0.066 H 
ATOM     54  H26 KO1 d          -6.888   2.538  73.462  0.00  0.00     0.078 H 
ENDBRANCH  47  50
ENDBRANCH  46  47
ENDBRANCH   1  46
BRANCH   5  55
ATOM     55  C7  KO1 d         -11.117  -0.274  69.944  0.00  0.00     0.083 C 
ATOM     56  H19 KO1 d         -11.991   0.051  69.360  0.00  0.00     0.090 H 
BRANCH  55  57
ATOM     57  O7  KO1 d         -11.348   0.097  71.322  0.00  0.00    -0.391 OA
ATOM     58  H20 KO1 d         -12.043   0.744  71.362  0.00  0.00     0.210 HD
ENDBRANCH  55  57
BRANCH  55  59
ATOM     59  C8  KO1 d         -11.036  -1.825  69.819  0.00  0.00     0.043 C 
ATOM     60  H21 KO1 d         -10.367  -2.078  68.985  0.00  0.00     0.078 H 
ATOM     61  H22 KO1 d         -12.043  -2.217  69.613  0.00  0.00     0.078 H 
BRANCH  59  62
ATOM     62  O8  KO1 d         -10.532  -2.446  71.029  0.00  0.00    -0.398 OA
ATOM     63  H23 KO1 d         -10.994  -3.262  71.181  0.00  0.00     0.209 HD
ENDBRANCH  59  62
ENDBRANCH  55  59
ENDBRANCH   5  55
TORSDOF 19
ENDMDL
MODEL 4
REMARK VINA RESULT:      -4.4      1.822      6.990
REMARK  19 active torsions:
REMARK  status: ('A' for Active; 'I' for Inactive)
REMARK    1  A    between atoms: C2_4  and  C1_2 
REMARK    2  A    between atoms: O2_17  and  C2_4 
REMARK    3  A    between atoms: C6_6  and  C7_7 
REMARK    4  A    between atoms: C7_7  and  C8_8 
REMARK    5  A    between atoms: C7_7  and  O7_10 
REMARK    6  A    between atoms: C8_8  and  O8_9 
REMARK    7  A    between atoms: C5_11  and  O5_12 
REMARK    8  A    between atoms: C4_13  and  O4_14 
REMARK    9  A    between atoms: C3_15  and  O3_16 
REMARK   10  A    between atoms: C4_23  and  O2_17 
REMARK   11  A    between atoms: C2_21  and  C1_18 
REMARK   12  A    between atoms: C2_21  and  O2_32 
REMARK   13  A    between atoms: C5_24  and  O5_25 
REMARK   14  A    between atoms: C6_26  and  C7_28 
REMARK   15  A    between atoms: C7_28  and  O7_29 
REMARK   16  A    between atoms: C7_28  and  C8_30 
REMARK   17  A    between atoms: C8_30  and  O8_31 
REMARK   18  A    between atoms: O2_32  and  C9_33 
REMARK   19  A    between atoms: C9_33  and  C10_34 
ROOT
ATOM      1  C2  KO1 d          -7.686   3.886  67.541  0.00  0.00     0.259 C 
ATOM      2  C3  KO1 d          -8.025   2.858  68.665  0.00  0.00     0.024 C 
ATOM      3  C4  KO1 d          -9.171   1.866  68.343  0.00  0.00     0.075 C 
ATOM      4  C5  KO1 d         -10.464   2.500  67.766  0.00  0.00     0.088 C 
ATOM      5  C6  KO1 d         -10.051   3.390  66.554  0.00  0.00     0.096 C 
ATOM      6  O6  KO1 d          -8.926   4.301  66.897  0.00  0.00    -0.336 OA
ATOM      7  H13 KO1 d          -8.309   3.423  69.565  0.00  0.00     0.045 H 
ATOM      8  H14 KO1 d          -7.117   2.271  68.872  0.00  0.00     0.045 H 
ATOM      9  H15 KO1 d          -8.774   1.153  67.605  0.00  0.00     0.087 H 
ATOM     10  H16 KO1 d         -11.112   1.694  67.393  0.00  0.00     0.091 H 
ATOM     11  H18 KO1 d          -9.669   2.706  65.781  0.00  0.00     0.091 H 
ENDROOT
BRANCH   3  12
ATOM     12  O2  KO1 d          -9.641   1.125  69.514  0.00  0.00    -0.336 OA
BRANCH  12  13
ATOM     13  C2  KO1 d          -9.686  -0.344  69.486  0.00  0.00     0.286 C 
ATOM     14  O6  KO1 d          -8.245  -0.860  69.200  0.00  0.00    -0.334 OA
ATOM     15  C6  KO1 d          -7.281  -0.233  70.180  0.00  0.00     0.096 C 
ATOM     16  C5  KO1 d          -7.611  -0.735  71.588  0.00  0.00     0.090 C 
ATOM     17  H1  KO1 d          -7.374   0.863  70.174  0.00  0.00     0.091 H 
ATOM     18  C4  KO1 d          -9.051  -0.286  71.953  0.00  0.00     0.093 C 
ATOM     19  H7  KO1 d          -6.894  -0.316  72.310  0.00  0.00     0.091 H 
ATOM     20  C3  KO1 d         -10.136  -0.741  70.930  0.00  0.00     0.127 C 
ATOM     21  H9  KO1 d          -9.064   0.814  71.990  0.00  0.00     0.091 H 
ATOM     22  H11 KO1 d         -11.094  -0.269  71.192  0.00  0.00     0.096 H 
BRANCH  13  23
ATOM     23  C1  KO1 d         -10.625  -1.015  68.459  0.00  0.00     0.241 C 
ATOM     24  OA1 KO1 d         -10.648  -2.272  68.359  0.00  0.00    -0.644 OA
ATOM     25  O1B KO1 d         -11.348  -0.300  67.763  0.00  0.00    -0.644 OA
ENDBRANCH  13  23
BRANCH  15  26
ATOM     26  C7  KO1 d          -5.885  -0.637  69.618  0.00  0.00     0.083 C 
ATOM     27  H2  KO1 d          -5.577   0.102  68.865  0.00  0.00     0.090 H 
BRANCH  26  28
ATOM     28  C8  KO1 d          -4.780  -0.657  70.694  0.00  0.00     0.043 C 
ATOM     29  H3  KO1 d          -5.132  -0.235  71.648  0.00  0.00     0.078 H 
ATOM     30  H4  KO1 d          -3.882  -0.115  70.364  0.00  0.00     0.078 H 
BRANCH  28  31
ATOM     31  O8  KO1 d          -4.538  -2.078  70.796  0.00  0.00    -0.398 OA
ATOM     32  H5  KO1 d          -4.933  -2.409  71.595  0.00  0.00     0.209 HD
ENDBRANCH  28  31
ENDBRANCH  26  28
BRANCH  26  33
ATOM     33  O7  KO1 d          -6.125  -1.872  68.961  0.00  0.00    -0.391 OA
ATOM     34  H6  KO1 d          -6.871  -2.304  69.362  0.00  0.00     0.210 HD
ENDBRANCH  26  33
ENDBRANCH  15  26
BRANCH  16  35
ATOM     35  O5  KO1 d          -7.543  -2.172  71.613  0.00  0.00    -0.390 OA
ATOM     36  H8  KO1 d          -6.785  -2.460  71.117  0.00  0.00     0.210 HD
ENDBRANCH  16  35
BRANCH  18  37
ATOM     37  O4  KO1 d          -9.367  -0.788  73.231  0.00  0.00    -0.390 OA
ATOM     38  H10 KO1 d         -10.263  -1.104  73.233  0.00  0.00     0.210 HD
ENDBRANCH  18  37
BRANCH  20  39
ATOM     39  O3  KO1 d         -10.292  -2.142  70.830  0.00  0.00    -0.387 OA
ATOM     40  H12 KO1 d         -10.807  -2.455  71.565  0.00  0.00     0.210 HD
ENDBRANCH  20  39
ENDBRANCH  12  13
ENDBRANCH   3  12
BRANCH   4  41
ATOM     41  O5  KO1 d         -11.209   3.220  68.794  0.00  0.00    -0.390 OA
ATOM     42  H17 KO1 d         -11.073   2.801  69.635  0.00  0.00     0.210 HD
ENDBRANCH   4  41
BRANCH   1  43
ATOM     43  C1  KO1 d          -7.011   5.092  68.270  0.00  0.00     0.239 C 
ATOM     44  O1A KO1 d          -5.751   5.050  68.322  0.00  0.00    -0.644 OA
ATOM     45  O1B KO1 d          -7.730   6.017  68.776  0.00  0.00    -0.644 OA
ENDBRANCH   1  43
BRANCH   1  46
ATOM     46  O2  KO1 d          -6.868   3.363  66.468  0.00  0.00    -0.343 OA
BRANCH  46  47
ATOM     47  C9  KO1 d          -6.282   2.298  65.790  0.00  0.00     0.038 C 
ATOM     48  H24 KO1 d          -5.692   1.763  66.549  0.00  0.00     0.080 H 
ATOM     49  H25 KO1 d          -5.605   2.760  65.057  0.00  0.00     0.080 H 
BRANCH  47  50
ATOM     50  C10 KO1 d          -6.970   1.291  65.076  0.00  0.00    -0.089 C 
ATOM     51  C11 KO1 d          -8.058   1.546  64.225  0.00  0.00    -0.123 C 
ATOM     52  H27 KO1 d          -8.545   0.724  63.703  0.00  0.00     0.066 H 
ATOM     53  H28 KO1 d          -8.415   2.565  64.087  0.00  0.00     0.066 H 
ATOM     54  H26 KO1 d          -6.638   0.260  65.192  0.00  0.00     0.078 H 
ENDBRANCH  47  50
ENDBRANCH  46  47
ENDBRANCH   1  46
BRANCH   5  55
ATOM     55  C7  KO1 d         -11.261   4.128  65.919  0.00  0.00     0.083 C 
ATOM     56  H19 KO1 d         -12.166   3.720  66.393  0.00  0.00     0.090 H 
BRANCH  55  57
ATOM     57  O7  KO1 d         -11.348   3.859  64.502  0.00  0.00    -0.391 OA
ATOM     58  H20 KO1 d         -11.343   4.680  64.024  0.00  0.00     0.210 HD
ENDBRANCH  55  57
BRANCH  55  59
ATOM     59  C8  KO1 d         -11.270   5.666  66.167  0.00  0.00     0.043 C 
ATOM     60  H21 KO1 d         -12.222   6.078  65.801  0.00  0.00     0.078 H 
ATOM     61  H22 KO1 d         -10.437   6.121  65.611  0.00  0.00     0.078 H 
BRANCH  59  62
ATOM     62  O8  KO1 d         -11.128   5.995  67.573  0.00  0.00    -0.398 OA
ATOM     63  H23 KO1 d         -11.875   5.657  68.053  0.00  0.00     0.209 HD
ENDBRANCH  59  62
ENDBRANCH  55  59
ENDBRANCH   5  55
TORSDOF 19
ENDMDL
MODEL 5
REMARK VINA RESULT:      -4.4      1.779      2.496
REMARK  19 active torsions:
REMARK  status: ('A' for Active; 'I' for Inactive)
REMARK    1  A    between atoms: C2_4  and  C1_2 
REMARK    2  A    between atoms: O2_17  and  C2_4 
REMARK    3  A    between atoms: C6_6  and  C7_7 
REMARK    4  A    between atoms: C7_7  and  C8_8 
REMARK    5  A    between atoms: C7_7  and  O7_10 
REMARK    6  A    between atoms: C8_8  and  O8_9 
REMARK    7  A    between atoms: C5_11  and  O5_12 
REMARK    8  A    between atoms: C4_13  and  O4_14 
REMARK    9  A    between atoms: C3_15  and  O3_16 
REMARK   10  A    between atoms: C4_23  and  O2_17 
REMARK   11  A    between atoms: C2_21  and  C1_18 
REMARK   12  A    between atoms: C2_21  and  O2_32 
REMARK   13  A    between atoms: C5_24  and  O5_25 
REMARK   14  A    between atoms: C6_26  and  C7_28 
REMARK   15  A    between atoms: C7_28  and  O7_29 
REMARK   16  A    between atoms: C7_28  and  C8_30 
REMARK   17  A    between atoms: C8_30  and  O8_31 
REMARK   18  A    between atoms: O2_32  and  C9_33 
REMARK   19  A    between atoms: C9_33  and  C10_34 
ROOT
ATOM      1  C2  KO1 d          -6.646   1.398  72.130  0.00  0.00     0.259 C 
ATOM      2  C3  KO1 d          -6.460   1.824  70.640  0.00  0.00     0.024 C 
ATOM      3  C4  KO1 d          -7.757   2.216  69.887  0.00  0.00     0.075 C 
ATOM      4  C5  KO1 d          -8.942   1.227  70.034  0.00  0.00     0.088 C 
ATOM      5  C6  KO1 d          -9.158   0.974  71.558  0.00  0.00     0.096 C 
ATOM      6  O6  KO1 d          -7.883   0.636  72.246  0.00  0.00    -0.336 OA
ATOM      7  H13 KO1 d          -5.998   0.983  70.103  0.00  0.00     0.045 H 
ATOM      8  H14 KO1 d          -5.781   2.690  70.618  0.00  0.00     0.045 H 
ATOM      9  H15 KO1 d          -8.069   3.194  70.282  0.00  0.00     0.087 H 
ATOM     10  H16 KO1 d          -9.848   1.704  69.635  0.00  0.00     0.091 H 
ATOM     11  H18 KO1 d          -9.496   1.929  71.987  0.00  0.00     0.091 H 
ENDROOT
BRANCH   3  12
ATOM     12  O2  KO1 d          -7.575   2.326  68.439  0.00  0.00    -0.336 OA
BRANCH  12  13
ATOM     13  C2  KO1 d          -7.275   3.631  67.832  0.00  0.00     0.286 C 
ATOM     14  O6  KO1 d          -6.956   3.395  66.327  0.00  0.00    -0.334 OA
ATOM     15  C6  KO1 d          -8.071   2.597  65.694  0.00  0.00     0.096 C 
ATOM     16  C5  KO1 d          -9.349   3.439  65.702  0.00  0.00     0.090 C 
ATOM     17  H1  KO1 d          -8.263   1.674  66.261  0.00  0.00     0.091 H 
ATOM     18  C4  KO1 d          -9.734   3.748  67.173  0.00  0.00     0.093 C 
ATOM     19  H7  KO1 d         -10.163   2.886  65.210  0.00  0.00     0.091 H 
ATOM     20  C3  KO1 d          -8.603   4.441  67.993  0.00  0.00     0.127 C 
ATOM     21  H9  KO1 d          -9.972   2.795  67.669  0.00  0.00     0.091 H 
ATOM     22  H11 KO1 d          -8.910   4.498  69.047  0.00  0.00     0.096 H 
BRANCH  13  23
ATOM     23  C1  KO1 d          -6.106   4.449  68.426  0.00  0.00     0.241 C 
ATOM     24  OA1 KO1 d          -4.931   4.251  68.015  0.00  0.00    -0.644 OA
ATOM     25  O1B KO1 d          -6.354   5.294  69.288  0.00  0.00    -0.644 OA
ENDBRANCH  13  23
BRANCH  15  26
ATOM     26  C7  KO1 d          -7.500   2.232  64.291  0.00  0.00     0.083 C 
ATOM     27  H2  KO1 d          -6.908   3.079  63.917  0.00  0.00     0.090 H 
BRANCH  26  28
ATOM     28  C8  KO1 d          -6.556   1.012  64.318  0.00  0.00     0.043 C 
ATOM     29  H3  KO1 d          -5.500   1.314  64.247  0.00  0.00     0.078 H 
ATOM     30  H4  KO1 d          -6.789   0.301  63.512  0.00  0.00     0.078 H 
BRANCH  28  31
ATOM     31  O8  KO1 d          -6.869   0.466  65.619  0.00  0.00    -0.398 OA
ATOM     32  H5  KO1 d          -6.945   1.174  66.248  0.00  0.00     0.209 HD
ENDBRANCH  28  31
ENDBRANCH  26  28
BRANCH  26  33
ATOM     33  O7  KO1 d          -8.654   2.097  63.475  0.00  0.00    -0.391 OA
ATOM     34  H6  KO1 d          -8.504   2.530  62.642  0.00  0.00     0.210 HD
ENDBRANCH  26  33
ENDBRANCH  15  26
BRANCH  16  35
ATOM     35  O5  KO1 d          -9.112   4.676  65.005  0.00  0.00    -0.390 OA
ATOM     36  H8  KO1 d          -9.358   4.576  64.093  0.00  0.00     0.210 HD
ENDBRANCH  16  35
BRANCH  18  37
ATOM     37  O4  KO1 d         -10.884   4.561  67.174  0.00  0.00    -0.390 OA
ATOM     38  H10 KO1 d         -10.765   5.274  67.791  0.00  0.00     0.210 HD
ENDBRANCH  18  37
BRANCH  20  39
ATOM     39  O3  KO1 d          -8.241   5.723  67.519  0.00  0.00    -0.387 OA
ATOM     40  H12 KO1 d          -7.296   5.816  67.552  0.00  0.00     0.210 HD
ENDBRANCH  20  39
ENDBRANCH  12  13
ENDBRANCH   3  12
BRANCH   4  41
ATOM     41  O5  KO1 d          -8.717   0.006  69.265  0.00  0.00    -0.390 OA
ATOM     42  H17 KO1 d          -7.923   0.098  68.752  0.00  0.00     0.210 HD
ENDBRANCH   4  41
BRANCH   1  43
ATOM     43  C1  KO1 d          -5.411   0.502  72.464  0.00  0.00     0.239 C 
ATOM     44  O1A KO1 d          -5.191  -0.434  71.647  0.00  0.00    -0.644 OA
ATOM     45  O1B KO1 d          -4.720   0.731  73.512  0.00  0.00    -0.644 OA
ENDBRANCH   1  43
BRANCH   1  46
ATOM     46  O2  KO1 d          -6.798   2.496  73.059  0.00  0.00    -0.343 OA
BRANCH  46  47
ATOM     47  C9  KO1 d          -7.580   3.456  73.694  0.00  0.00     0.038 C 
ATOM     48  H24 KO1 d          -6.888   4.005  74.350  0.00  0.00     0.080 H 
ATOM     49  H25 KO1 d          -8.294   2.886  74.308  0.00  0.00     0.080 H 
BRANCH  47  50
ATOM     50  C10 KO1 d          -8.354   4.451  73.055  0.00  0.00    -0.089 C 
ATOM     51  C11 KO1 d          -8.323   5.809  73.412  0.00  0.00    -0.123 C 
ATOM     52  H27 KO1 d          -8.945   6.527  72.880  0.00  0.00     0.066 H 
ATOM     53  H28 KO1 d          -7.678   6.145  74.223  0.00  0.00     0.066 H 
ATOM     54  H26 KO1 d          -9.011   4.149  72.240  0.00  0.00     0.078 H 
ENDBRANCH  47  50
ENDBRANCH  46  47
ENDBRANCH   1  46
BRANCH   5  55
ATOM     55  C7  KO1 d         -10.291  -0.051  71.836  0.00  0.00     0.083 C 
ATOM     56  H19 KO1 d         -10.860  -0.157  70.900  0.00  0.00     0.090 H 
BRANCH  55  57
ATOM     57  O7  KO1 d         -11.200   0.441  72.847  0.00  0.00    -0.391 OA
ATOM     58  H20 KO1 d         -11.724  -0.279  73.176  0.00  0.00     0.210 HD
ENDBRANCH  55  57
BRANCH  55  59
ATOM     59  C8  KO1 d          -9.784  -1.471  72.226  0.00  0.00     0.043 C 
ATOM     60  H21 KO1 d         -10.569  -2.204  71.988  0.00  0.00     0.078 H 
ATOM     61  H22 KO1 d          -9.580  -1.491  73.307  0.00  0.00     0.078 H 
BRANCH  59  62
ATOM     62  O8  KO1 d          -8.573  -1.835  71.514  0.00  0.00    -0.398 OA
ATOM     63  H23 KO1 d          -8.463  -1.261  70.766  0.00  0.00     0.209 HD
ENDBRANCH  59  62
ENDBRANCH  55  59
ENDBRANCH   5  55
TORSDOF 19
ENDMDL
MODEL 6
REMARK VINA RESULT:      -4.3      1.870      2.973
REMARK  19 active torsions:
REMARK  status: ('A' for Active; 'I' for Inactive)
REMARK    1  A    between atoms: C2_4  and  C1_2 
REMARK    2  A    between atoms: O2_17  and  C2_4 
REMARK    3  A    between atoms: C6_6  and  C7_7 
REMARK    4  A    between atoms: C7_7  and  C8_8 
REMARK    5  A    between atoms: C7_7  and  O7_10 
REMARK    6  A    between atoms: C8_8  and  O8_9 
REMARK    7  A    between atoms: C5_11  and  O5_12 
REMARK    8  A    between atoms: C4_13  and  O4_14 
REMARK    9  A    between atoms: C3_15  and  O3_16 
REMARK   10  A    between atoms: C4_23  and  O2_17 
REMARK   11  A    between atoms: C2_21  and  C1_18 
REMARK   12  A    between atoms: C2_21  and  O2_32 
REMARK   13  A    between atoms: C5_24  and  O5_25 
REMARK   14  A    between atoms: C6_26  and  C7_28 
REMARK   15  A    between atoms: C7_28  and  O7_29 
REMARK   16  A    between atoms: C7_28  and  C8_30 
REMARK   17  A    between atoms: C8_30  and  O8_31 
REMARK   18  A    between atoms: O2_32  and  C9_33 
REMARK   19  A    between atoms: C9_33  and  C10_34 
ROOT
ATOM      1  C2  KO1 d          -7.786   1.012  70.244  0.00  0.00     0.259 C 
ATOM      2  C3  KO1 d          -8.659   1.252  68.972  0.00  0.00     0.024 C 
ATOM      3  C4  KO1 d          -8.935   2.735  68.618  0.00  0.00     0.075 C 
ATOM      4  C5  KO1 d          -9.415   3.626  69.793  0.00  0.00     0.088 C 
ATOM      5  C6  KO1 d          -8.403   3.444  70.966  0.00  0.00     0.096 C 
ATOM      6  O6  KO1 d          -8.141   2.007  71.248  0.00  0.00    -0.336 OA
ATOM      7  H13 KO1 d          -9.628   0.755  69.129  0.00  0.00     0.045 H 
ATOM      8  H14 KO1 d          -8.144   0.790  68.117  0.00  0.00     0.045 H 
ATOM      9  H15 KO1 d          -7.992   3.149  68.230  0.00  0.00     0.087 H 
ATOM     10  H16 KO1 d          -9.380   4.677  69.472  0.00  0.00     0.091 H 
ATOM     11  H18 KO1 d          -7.449   3.870  70.624  0.00  0.00     0.091 H 
ENDROOT
BRANCH   3  12
ATOM     12  O2  KO1 d          -9.979   2.904  67.607  0.00  0.00    -0.336 OA
BRANCH  12  13
ATOM     13  C2  KO1 d          -9.783   3.848  66.497  0.00  0.00     0.286 C 
ATOM     14  O6  KO1 d          -8.338   3.651  65.952  0.00  0.00    -0.334 OA
ATOM     15  C6  KO1 d          -8.112   2.189  65.641  0.00  0.00     0.096 C 
ATOM     16  C5  KO1 d          -9.032   1.781  64.488  0.00  0.00     0.090 C 
ATOM     17  H1  KO1 d          -8.352   1.562  66.512  0.00  0.00     0.091 H 
ATOM     18  C4  KO1 d         -10.507   1.970  64.935  0.00  0.00     0.093 C 
ATOM     19  H7  KO1 d          -8.854   0.727  64.224  0.00  0.00     0.091 H 
ATOM     20  C3  KO1 d         -10.839   3.411  65.431  0.00  0.00     0.127 C 
ATOM     21  H9  KO1 d         -10.701   1.276  65.766  0.00  0.00     0.091 H 
ATOM     22  H11 KO1 d         -11.856   3.418  65.850  0.00  0.00     0.096 H 
BRANCH  13  23
ATOM     23  C1  KO1 d          -9.957   5.354  66.796  0.00  0.00     0.241 C 
ATOM     24  OA1 KO1 d         -11.104   5.875  66.738  0.00  0.00    -0.644 OA
ATOM     25  O1B KO1 d          -8.964   6.016  67.102  0.00  0.00    -0.644 OA
ENDBRANCH  13  23
BRANCH  15  26
ATOM     26  C7  KO1 d          -6.583   2.116  65.356  0.00  0.00     0.083 C 
ATOM     27  H2  KO1 d          -6.302   2.953  64.701  0.00  0.00     0.090 H 
BRANCH  26  28
ATOM     28  C8  KO1 d          -5.720   2.244  66.629  0.00  0.00     0.043 C 
ATOM     29  H3  KO1 d          -4.775   1.687  66.538  0.00  0.00     0.078 H 
ATOM     30  H4  KO1 d          -6.262   1.903  67.522  0.00  0.00     0.078 H 
BRANCH  28  31
ATOM     31  O8  KO1 d          -5.498   3.672  66.652  0.00  0.00    -0.398 OA
ATOM     32  H5  KO1 d          -6.085   4.093  66.036  0.00  0.00     0.209 HD
ENDBRANCH  28  31
ENDBRANCH  26  28
BRANCH  26  33
ATOM     33  O7  KO1 d          -6.427   0.906  64.628  0.00  0.00    -0.391 OA
ATOM     34  H6  KO1 d          -6.651   0.171  65.188  0.00  0.00     0.210 HD
ENDBRANCH  26  33
ENDBRANCH  15  26
BRANCH  16  35
ATOM     35  O5  KO1 d          -8.772   2.618  63.347  0.00  0.00    -0.390 OA
ATOM     36  H8  KO1 d          -8.460   2.082  62.627  0.00  0.00     0.210 HD
ENDBRANCH  16  35
BRANCH  18  37
ATOM     37  O4  KO1 d         -11.348   1.636  63.856  0.00  0.00    -0.390 OA
ATOM     38  H10 KO1 d         -11.078   0.801  63.492  0.00  0.00     0.210 HD
ENDBRANCH  18  37
BRANCH  20  39
ATOM     39  O3  KO1 d         -10.711   4.412  64.441  0.00  0.00    -0.387 OA
ATOM     40  H12 KO1 d         -11.002   4.067  63.605  0.00  0.00     0.210 HD
ENDBRANCH  20  39
ENDBRANCH  12  13
ENDBRANCH   3  12
BRANCH   4  41
ATOM     41  O5  KO1 d         -10.796   3.328  70.160  0.00  0.00    -0.390 OA
ATOM     42  H17 KO1 d         -11.028   2.463  69.842  0.00  0.00     0.210 HD
ENDBRANCH   4  41
BRANCH   1  43
ATOM     43  C1  KO1 d          -8.152  -0.425  70.735  0.00  0.00     0.239 C 
ATOM     44  O1A KO1 d          -7.201  -1.253  70.725  0.00  0.00    -0.644 OA
ATOM     45  O1B KO1 d          -9.348  -0.694  71.091  0.00  0.00    -0.644 OA
ENDBRANCH   1  43
BRANCH   1  46
ATOM     46  O2  KO1 d          -6.363   1.180  70.043  0.00  0.00    -0.343 OA
BRANCH  46  47
ATOM     47  C9  KO1 d          -5.085   1.431  70.531  0.00  0.00     0.038 C 
ATOM     48  H24 KO1 d          -5.023   2.524  70.631  0.00  0.00     0.080 H 
ATOM     49  H25 KO1 d          -4.401   1.095  69.737  0.00  0.00     0.080 H 
BRANCH  47  50
ATOM     50  C10 KO1 d          -4.539   0.917  71.731  0.00  0.00    -0.089 C 
ATOM     51  C11 KO1 d          -5.101   1.140  72.998  0.00  0.00    -0.123 C 
ATOM     52  H27 KO1 d          -4.631   0.716  73.884  0.00  0.00     0.066 H 
ATOM     53  H28 KO1 d          -6.007   1.737  73.096  0.00  0.00     0.066 H 
ATOM     54  H26 KO1 d          -3.633   0.316  71.668  0.00  0.00     0.078 H 
ENDBRANCH  47  50
ENDBRANCH  46  47
ENDBRANCH   1  46
BRANCH   5  55
ATOM     55  C7  KO1 d          -8.808   4.249  72.231  0.00  0.00     0.083 C 
ATOM     56  H19 KO1 d          -9.648   4.897  71.940  0.00  0.00     0.090 H 
BRANCH  55  57
ATOM     57  O7  KO1 d          -7.728   5.104  72.670  0.00  0.00    -0.391 OA
ATOM     58  H20 KO1 d          -7.090   5.189  71.972  0.00  0.00     0.210 HD
ENDBRANCH  55  57
BRANCH  55  59
ATOM     59  C8  KO1 d          -9.301   3.368  73.417  0.00  0.00     0.043 C 
ATOM     60  H21 KO1 d          -9.557   4.024  74.262  0.00  0.00     0.078 H 
ATOM     61  H22 KO1 d          -8.490   2.687  73.714  0.00  0.00     0.078 H 
BRANCH  59  62
ATOM     62  O8  KO1 d         -10.468   2.581  73.066  0.00  0.00    -0.398 OA
ATOM     63  H23 KO1 d         -10.189   1.758  72.683  0.00  0.00     0.209 HD
ENDBRANCH  59  62
ENDBRANCH  55  59
ENDBRANCH   5  55
TORSDOF 19
ENDMDL
MODEL 7
REMARK VINA RESULT:      -4.1      1.928      3.269
REMARK  19 active torsions:
REMARK  status: ('A' for Active; 'I' for Inactive)
REMARK    1  A    between atoms: C2_4  and  C1_2 
REMARK    2  A    between atoms: O2_17  and  C2_4 
REMARK    3  A    between atoms: C6_6  and  C7_7 
REMARK    4  A    between atoms: C7_7  and  C8_8 
REMARK    5  A    between atoms: C7_7  and  O7_10 
REMARK    6  A    between atoms: C8_8  and  O8_9 
REMARK    7  A    between atoms: C5_11  and  O5_12 
REMARK    8  A    between atoms: C4_13  and  O4_14 
REMARK    9  A    between atoms: C3_15  and  O3_16 
REMARK   10  A    between atoms: C4_23  and  O2_17 
REMARK   11  A    between atoms: C2_21  and  C1_18 
REMARK   12  A    between atoms: C2_21  and  O2_32 
REMARK   13  A    between atoms: C5_24  and  O5_25 
REMARK   14  A    between atoms: C6_26  and  C7_28 
REMARK   15  A    between atoms: C7_28  and  O7_29 
REMARK   16  A    between atoms: C7_28  and  C8_30 
REMARK   17  A    between atoms: C8_30  and  O8_31 
REMARK   18  A    between atoms: O2_32  and  C9_33 
REMARK   19  A    between atoms: C9_33  and  C10_34 
ROOT
ATOM      1  C2  KO1 d          -9.379  -0.066  71.204  0.00  0.00     0.259 C 
ATOM      2  C3  KO1 d          -8.906   0.589  69.869  0.00  0.00     0.024 C 
ATOM      3  C4  KO1 d          -8.184   1.954  70.011  0.00  0.00     0.075 C 
ATOM      4  C5  KO1 d          -8.892   2.995  70.917  0.00  0.00     0.088 C 
ATOM      5  C6  KO1 d          -9.192   2.304  72.282  0.00  0.00     0.096 C 
ATOM      6  O6  KO1 d          -9.852   0.984  72.098  0.00  0.00    -0.336 OA
ATOM      7  H13 KO1 d          -9.791   0.739  69.234  0.00  0.00     0.045 H 
ATOM      8  H14 KO1 d          -8.214  -0.110  69.376  0.00  0.00     0.045 H 
ATOM      9  H15 KO1 d          -7.190   1.743  70.433  0.00  0.00     0.087 H 
ATOM     10  H16 KO1 d          -8.198   3.828  71.100  0.00  0.00     0.091 H 
ATOM     11  H18 KO1 d          -8.217   2.099  72.749  0.00  0.00     0.091 H 
ENDROOT
BRANCH   3  12
ATOM     12  O2  KO1 d          -8.020   2.656  68.738  0.00  0.00    -0.336 OA
BRANCH  12  13
ATOM     13  C2  KO1 d          -6.712   2.670  68.068  0.00  0.00     0.286 C 
ATOM     14  O6  KO1 d          -6.833   1.825  66.766  0.00  0.00    -0.334 OA
ATOM     15  C6  KO1 d          -8.010   2.314  65.956  0.00  0.00     0.096 C 
ATOM     16  C5  KO1 d          -7.725   3.740  65.479  0.00  0.00     0.090 C 
ATOM     17  H1  KO1 d          -8.926   2.331  66.566  0.00  0.00     0.091 H 
ATOM     18  C4  KO1 d          -7.562   4.658  66.720  0.00  0.00     0.093 C 
ATOM     19  H7  KO1 d          -8.557   4.099  64.855  0.00  0.00     0.091 H 
ATOM     20  C3  KO1 d          -6.472   4.177  67.727  0.00  0.00     0.127 C 
ATOM     21  H9  KO1 d          -8.524   4.682  67.253  0.00  0.00     0.091 H 
ATOM     22  H11 KO1 d          -6.519   4.803  68.630  0.00  0.00     0.096 H 
BRANCH  13  23
ATOM     23  C1  KO1 d          -5.496   2.129  68.855  0.00  0.00     0.241 C 
ATOM     24  OA1 KO1 d          -5.176   0.913  68.754  0.00  0.00    -0.644 OA
ATOM     25  O1B KO1 d          -4.852   2.908  69.559  0.00  0.00    -0.644 OA
ENDBRANCH  13  23
BRANCH  15  26
ATOM     26  C7  KO1 d          -8.151   1.235  64.841  0.00  0.00     0.083 C 
ATOM     27  H2  KO1 d          -7.232   0.633  64.810  0.00  0.00     0.090 H 
BRANCH  26  28
ATOM     28  C8  KO1 d          -9.314   0.252  65.091  0.00  0.00     0.043 C 
ATOM     29  H3  KO1 d          -9.275  -0.606  64.404  0.00  0.00     0.078 H 
ATOM     30  H4  KO1 d         -10.291   0.748  65.003  0.00  0.00     0.078 H 
BRANCH  28  31
ATOM     31  O8  KO1 d          -9.036  -0.142  66.453  0.00  0.00    -0.398 OA
ATOM     32  H5  KO1 d          -8.541  -0.953  66.453  0.00  0.00     0.209 HD
ENDBRANCH  28  31
ENDBRANCH  26  28
BRANCH  26  33
ATOM     33  O7  KO1 d          -8.232   1.990  63.642  0.00  0.00    -0.391 OA
ATOM     34  H6  KO1 d          -7.705   2.776  63.727  0.00  0.00     0.210 HD
ENDBRANCH  26  33
ENDBRANCH  15  26
BRANCH  16  35
ATOM     35  O5  KO1 d          -6.505   3.755  64.716  0.00  0.00    -0.390 OA
ATOM     36  H8  KO1 d          -6.613   3.222  63.937  0.00  0.00     0.210 HD
ENDBRANCH  16  35
BRANCH  18  37
ATOM     37  O4  KO1 d          -7.255   5.960  66.278  0.00  0.00    -0.390 OA
ATOM     38  H10 KO1 d          -7.933   6.259  65.683  0.00  0.00     0.210 HD
ENDBRANCH  18  37
BRANCH  20  39
ATOM     39  O3  KO1 d          -5.159   4.170  67.205  0.00  0.00    -0.387 OA
ATOM     40  H12 KO1 d          -5.161   4.566  66.341  0.00  0.00     0.210 HD
ENDBRANCH  20  39
ENDBRANCH  12  13
ENDBRANCH   3  12
BRANCH   4  41
ATOM     41  O5  KO1 d         -10.076   3.549  70.268  0.00  0.00    -0.390 OA
ATOM     42  H17 KO1 d          -9.960   4.483  70.142  0.00  0.00     0.210 HD
ENDBRANCH   4  41
BRANCH   1  43
ATOM     43  C1  KO1 d         -10.549  -1.022  70.806  0.00  0.00     0.239 C 
ATOM     44  O1A KO1 d         -10.637  -1.278  69.574  0.00  0.00    -0.644 OA
ATOM     45  O1B KO1 d         -11.343  -1.468  71.701  0.00  0.00    -0.644 OA
ENDBRANCH   1  43
BRANCH   1  46
ATOM     46  O2  KO1 d          -8.341  -0.746  71.947  0.00  0.00    -0.343 OA
BRANCH  46  47
ATOM     47  C9  KO1 d          -7.096  -0.758  72.569  0.00  0.00     0.038 C 
ATOM     48  H24 KO1 d          -6.977  -1.780  72.958  0.00  0.00     0.080 H 
ATOM     49  H25 KO1 d          -7.187  -0.054  73.409  0.00  0.00     0.080 H 
BRANCH  47  50
ATOM     50  C10 KO1 d          -5.860  -0.448  71.957  0.00  0.00    -0.089 C 
ATOM     51  C11 KO1 d          -4.973  -1.417  71.461  0.00  0.00    -0.123 C 
ATOM     52  H27 KO1 d          -4.034  -1.112  71.001  0.00  0.00     0.066 H 
ATOM     53  H28 KO1 d          -5.223  -2.475  71.537  0.00  0.00     0.066 H 
ATOM     54  H26 KO1 d          -5.579   0.601  71.866  0.00  0.00     0.078 H 
ENDBRANCH  47  50
ENDBRANCH  46  47
ENDBRANCH   1  46
BRANCH   5  55
ATOM     55  C7  KO1 d          -9.954   3.234  73.265  0.00  0.00     0.083 C 
ATOM     56  H19 KO1 d          -9.907   2.757  74.255  0.00  0.00     0.090 H 
BRANCH  55  57
ATOM     57  O7  KO1 d         -11.348   3.347  72.899  0.00  0.00    -0.391 OA
ATOM     58  H20 KO1 d         -11.735   2.480  72.862  0.00  0.00     0.210 HD
ENDBRANCH  55  57
BRANCH  55  59
ATOM     59  C8  KO1 d          -9.329   4.654  73.412  0.00  0.00     0.043 C 
ATOM     60  H21 KO1 d          -8.291   4.622  73.051  0.00  0.00     0.078 H 
ATOM     61  H22 KO1 d          -9.339   4.937  74.475  0.00  0.00     0.078 H 
BRANCH  59  62
ATOM     62  O8  KO1 d         -10.058   5.654  72.655  0.00  0.00    -0.398 OA
ATOM     63  H23 KO1 d          -9.443   6.185  72.161  0.00  0.00     0.209 HD
ENDBRANCH  59  62
ENDBRANCH  55  59
ENDBRANCH   5  55
TORSDOF 19
ENDMDL
MODEL 8
REMARK VINA RESULT:      -4.0      2.142      4.418
REMARK  19 active torsions:
REMARK  status: ('A' for Active; 'I' for Inactive)
REMARK    1  A    between atoms: C2_4  and  C1_2 
REMARK    2  A    between atoms: O2_17  and  C2_4 
REMARK    3  A    between atoms: C6_6  and  C7_7 
REMARK    4  A    between atoms: C7_7  and  C8_8 
REMARK    5  A    between atoms: C7_7  and  O7_10 
REMARK    6  A    between atoms: C8_8  and  O8_9 
REMARK    7  A    between atoms: C5_11  and  O5_12 
REMARK    8  A    between atoms: C4_13  and  O4_14 
REMARK    9  A    between atoms: C3_15  and  O3_16 
REMARK   10  A    between atoms: C4_23  and  O2_17 
REMARK   11  A    between atoms: C2_21  and  C1_18 
REMARK   12  A    between atoms: C2_21  and  O2_32 
REMARK   13  A    between atoms: C5_24  and  O5_25 
REMARK   14  A    between atoms: C6_26  and  C7_28 
REMARK   15  A    between atoms: C7_28  and  O7_29 
REMARK   16  A    between atoms: C7_28  and  C8_30 
REMARK   17  A    between atoms: C8_30  and  O8_31 
REMARK   18  A    between atoms: O2_32  and  C9_33 
REMARK   19  A    between atoms: C9_33  and  C10_34 
ROOT
ATOM      1  C2  KO1 d          -9.655   0.877  71.757  0.00  0.00     0.259 C 
ATOM      2  C3  KO1 d          -9.681   1.014  70.202  0.00  0.00     0.024 C 
ATOM      3  C4  KO1 d          -8.981   2.272  69.627  0.00  0.00     0.075 C 
ATOM      4  C5  KO1 d          -9.354   3.615  70.307  0.00  0.00     0.088 C 
ATOM      5  C6  KO1 d          -9.154   3.437  71.844  0.00  0.00     0.096 C 
ATOM      6  O6  KO1 d          -9.812   2.201  72.345  0.00  0.00    -0.336 OA
ATOM      7  H13 KO1 d         -10.734   1.037  69.882  0.00  0.00     0.045 H 
ATOM      8  H14 KO1 d          -9.188   0.128  69.775  0.00  0.00     0.045 H 
ATOM      9  H15 KO1 d          -7.899   2.111  69.743  0.00  0.00     0.087 H 
ATOM     10  H16 KO1 d          -8.655   4.389  69.959  0.00  0.00     0.091 H 
ATOM     11  H18 KO1 d          -8.074   3.298  72.003  0.00  0.00     0.091 H 
ENDROOT
BRANCH   3  12
ATOM     12  O2  KO1 d          -9.278   2.504  68.214  0.00  0.00    -0.336 OA
BRANCH  12  13
ATOM     13  C2  KO1 d          -8.881   1.510  67.206  0.00  0.00     0.286 C 
ATOM     14  O6  KO1 d          -9.400   2.000  65.822  0.00  0.00    -0.334 OA
ATOM     15  C6  KO1 d          -8.941   3.420  65.586  0.00  0.00     0.096 C 
ATOM     16  C5  KO1 d          -7.415   3.434  65.466  0.00  0.00     0.090 C 
ATOM     17  H1  KO1 d          -9.227   4.069  66.427  0.00  0.00     0.091 H 
ATOM     18  C4  KO1 d          -6.805   2.933  66.802  0.00  0.00     0.093 C 
ATOM     19  H7  KO1 d          -7.067   4.457  65.257  0.00  0.00     0.091 H 
ATOM     20  C3  KO1 d          -7.318   1.528  67.246  0.00  0.00     0.127 C 
ATOM     21  H9  KO1 d          -7.074   3.652  67.590  0.00  0.00     0.091 H 
ATOM     22  H11 KO1 d          -6.942   1.314  68.257  0.00  0.00     0.096 H 
BRANCH  13  23
ATOM     23  C1  KO1 d          -9.377   0.059  67.394  0.00  0.00     0.241 C 
ATOM     24  OA1 KO1 d          -8.678  -0.762  68.048  0.00  0.00    -0.644 OA
ATOM     25  O1B KO1 d         -10.461  -0.264  66.906  0.00  0.00    -0.644 OA
ENDBRANCH  13  23
BRANCH  15  26
ATOM     26  C7  KO1 d          -9.732   3.846  64.313  0.00  0.00     0.083 C 
ATOM     27  H2  KO1 d          -9.954   2.950  63.716  0.00  0.00     0.090 H 
BRANCH  26  28
ATOM     28  C8  KO1 d         -11.088   4.509  64.633  0.00  0.00     0.043 C 
ATOM     29  H3  KO1 d         -11.912   4.037  64.079  0.00  0.00     0.078 H 
ATOM     30  H4  KO1 d         -11.072   5.588  64.419  0.00  0.00     0.078 H 
BRANCH  28  31
ATOM     31  O8  KO1 d         -11.179   4.248  66.052  0.00  0.00    -0.398 OA
ATOM     32  H5  KO1 d         -12.093   4.161  66.298  0.00  0.00     0.209 HD
ENDBRANCH  28  31
ENDBRANCH  26  28
BRANCH  26  33
ATOM     33  O7  KO1 d          -8.811   4.648  63.590  0.00  0.00    -0.391 OA
ATOM     34  H6  KO1 d          -8.000   4.167  63.469  0.00  0.00     0.210 HD
ENDBRANCH  26  33
ENDBRANCH  15  26
BRANCH  16  35
ATOM     35  O5  KO1 d          -7.010   2.556  64.401  0.00  0.00    -0.390 OA
ATOM     36  H8  KO1 d          -6.364   2.994  63.860  0.00  0.00     0.210 HD
ENDBRANCH  16  35
BRANCH  18  37
ATOM     37  O4  KO1 d          -5.403   2.904  66.672  0.00  0.00    -0.390 OA
ATOM     38  H10 KO1 d          -5.172   2.556  65.819  0.00  0.00     0.210 HD
ENDBRANCH  18  37
BRANCH  20  39
ATOM     39  O3  KO1 d          -6.975   0.478  66.365  0.00  0.00    -0.387 OA
ATOM     40  H12 KO1 d          -6.464   0.826  65.643  0.00  0.00     0.210 HD
ENDBRANCH  20  39
ENDBRANCH  12  13
ENDBRANCH   3  12
BRANCH   4  41
ATOM     41  O5  KO1 d         -10.699   4.044  69.938  0.00  0.00    -0.390 OA
ATOM     42  H17 KO1 d         -11.321   3.723  70.581  0.00  0.00     0.210 HD
ENDBRANCH   4  41
BRANCH   1  43
ATOM     43  C1  KO1 d         -10.873  -0.035  72.114  0.00  0.00     0.239 C 
ATOM     44  O1A KO1 d         -11.300   0.081  73.295  0.00  0.00    -0.644 OA
ATOM     45  O1B KO1 d         -11.348  -0.838  71.243  0.00  0.00    -0.644 OA
ENDBRANCH   1  43
BRANCH   1  46
ATOM     46  O2  KO1 d          -8.412   0.374  72.299  0.00  0.00    -0.343 OA
BRANCH  46  47
ATOM     47  C9  KO1 d          -7.250  -0.382  72.185  0.00  0.00     0.038 C 
ATOM     48  H24 KO1 d          -7.397  -1.241  72.857  0.00  0.00     0.080 H 
ATOM     49  H25 KO1 d          -6.448   0.259  72.579  0.00  0.00     0.080 H 
BRANCH  47  50
ATOM     50  C10 KO1 d          -6.732  -0.931  70.989  0.00  0.00    -0.089 C 
ATOM     51  C11 KO1 d          -5.748  -1.933  70.956  0.00  0.00    -0.123 C 
ATOM     52  H27 KO1 d          -5.390  -2.313  70.001  0.00  0.00     0.066 H 
ATOM     53  H28 KO1 d          -5.342  -2.329  71.886  0.00  0.00     0.066 H 
ATOM     54  H26 KO1 d          -7.117  -0.557  70.041  0.00  0.00     0.078 H 
ENDBRANCH  47  50
ENDBRANCH  46  47
ENDBRANCH   1  46
BRANCH   5  55
ATOM     55  C7  KO1 d          -9.549   4.707  72.646  0.00  0.00     0.083 C 
ATOM     56  H19 KO1 d          -9.199   4.553  73.677  0.00  0.00     0.090 H 
BRANCH  55  57
ATOM     57  O7  KO1 d         -10.985   4.867  72.690  0.00  0.00    -0.391 OA
ATOM     58  H20 KO1 d         -11.230   5.289  73.505  0.00  0.00     0.210 HD
ENDBRANCH  55  57
BRANCH  55  59
ATOM     59  C8  KO1 d          -8.886   6.018  72.130  0.00  0.00     0.043 C 
ATOM     60  H21 KO1 d          -9.313   6.870  72.679  0.00  0.00     0.078 H 
ATOM     61  H22 KO1 d          -9.103   6.128  71.057  0.00  0.00     0.078 H 
BRANCH  59  62
ATOM     62  O8  KO1 d          -7.447   6.015  72.317  0.00  0.00    -0.398 OA
ATOM     63  H23 KO1 d          -7.194   6.773  72.831  0.00  0.00     0.209 HD
ENDBRANCH  59  62
ENDBRANCH  55  59
ENDBRANCH   5  55
TORSDOF 19
ENDMDL
MODEL 9
REMARK VINA RESULT:      -3.7      1.228      3.002
REMARK  19 active torsions:
REMARK  status: ('A' for Active; 'I' for Inactive)
REMARK    1  A    between atoms: C2_4  and  C1_2 
REMARK    2  A    between atoms: O2_17  and  C2_4 
REMARK    3  A    between atoms: C6_6  and  C7_7 
REMARK    4  A    between atoms: C7_7  and  C8_8 
REMARK    5  A    between atoms: C7_7  and  O7_10 
REMARK    6  A    between atoms: C8_8  and  O8_9 
REMARK    7  A    between atoms: C5_11  and  O5_12 
REMARK    8  A    between atoms: C4_13  and  O4_14 
REMARK    9  A    between atoms: C3_15  and  O3_16 
REMARK   10  A    between atoms: C4_23  and  O2_17 
REMARK   11  A    between atoms: C2_21  and  C1_18 
REMARK   12  A    between atoms: C2_21  and  O2_32 
REMARK   13  A    between atoms: C5_24  and  O5_25 
REMARK   14  A    between atoms: C6_26  and  C7_28 
REMARK   15  A    between atoms: C7_28  and  O7_29 
REMARK   16  A    between atoms: C7_28  and  C8_30 
REMARK   17  A    between atoms: C8_30  and  O8_31 
REMARK   18  A    between atoms: O2_32  and  C9_33 
REMARK   19  A    between atoms: C9_33  and  C10_34 
ROOT
ATOM      1  C2  KO1 d          -6.563  -0.400  70.247  0.00  0.00     0.259 C 
ATOM      2  C3  KO1 d          -7.139   0.334  68.995  0.00  0.00     0.024 C 
ATOM      3  C4  KO1 d          -8.254   1.372  69.280  0.00  0.00     0.075 C 
ATOM      4  C5  KO1 d          -9.396   0.890  70.211  0.00  0.00     0.088 C 
ATOM      5  C6  KO1 d          -8.739   0.310  71.501  0.00  0.00     0.096 C 
ATOM      6  O6  KO1 d          -7.653  -0.653  71.181  0.00  0.00    -0.336 OA
ATOM      7  H13 KO1 d          -7.550  -0.427  68.316  0.00  0.00     0.045 H 
ATOM      8  H14 KO1 d          -6.308   0.858  68.498  0.00  0.00     0.045 H 
ATOM      9  H15 KO1 d          -7.766   2.240  69.748  0.00  0.00     0.087 H 
ATOM     10  H16 KO1 d         -10.005   1.759  70.498  0.00  0.00     0.091 H 
ATOM     11  H18 KO1 d          -8.259   1.158  72.013  0.00  0.00     0.091 H 
ENDROOT
BRANCH   3  12
ATOM     12  O2  KO1 d          -8.953   1.816  68.074  0.00  0.00    -0.336 OA
BRANCH  12  13
ATOM     13  C2  KO1 d          -8.192   2.136  66.858  0.00  0.00     0.286 C 
ATOM     14  O6  KO1 d          -8.981   3.225  66.073  0.00  0.00    -0.334 OA
ATOM     15  C6  KO1 d          -9.297   4.380  66.994  0.00  0.00     0.096 C 
ATOM     16  C5  KO1 d          -7.987   5.057  67.406  0.00  0.00     0.090 C 
ATOM     17  H1  KO1 d          -9.804   4.027  67.905  0.00  0.00     0.091 H 
ATOM     18  C4  KO1 d          -7.117   4.031  68.180  0.00  0.00     0.093 C 
ATOM     19  H7  KO1 d          -8.202   5.924  68.049  0.00  0.00     0.091 H 
ATOM     20  C3  KO1 d          -6.840   2.713  67.393  0.00  0.00     0.127 C 
ATOM     21  H9  KO1 d          -7.648   3.764  69.105  0.00  0.00     0.091 H 
ATOM     22  H11 KO1 d          -6.338   1.997  68.060  0.00  0.00     0.096 H 
BRANCH  13  23
ATOM     23  C1  KO1 d          -7.896   0.984  65.871  0.00  0.00     0.241 C 
ATOM     24  OA1 KO1 d          -6.842   0.305  65.999  0.00  0.00    -0.644 OA
ATOM     25  O1B KO1 d          -8.713   0.743  64.980  0.00  0.00    -0.644 OA
ENDBRANCH  13  23
BRANCH  15  26
ATOM     26  C7  KO1 d         -10.282   5.247  66.156  0.00  0.00     0.083 C 
ATOM     27  H2  KO1 d          -9.776   6.179  65.864  0.00  0.00     0.090 H 
BRANCH  26  28
ATOM     28  C8  KO1 d         -10.734   4.563  64.849  0.00  0.00     0.043 C 
ATOM     29  H3  KO1 d         -11.631   5.042  64.429  0.00  0.00     0.078 H 
ATOM     30  H4  KO1 d         -10.927   3.491  64.999  0.00  0.00     0.078 H 
BRANCH  28  31
ATOM     31  O8  KO1 d          -9.572   4.786  64.020  0.00  0.00    -0.398 OA
ATOM     32  H5  KO1 d          -9.437   5.721  63.911  0.00  0.00     0.209 HD
ENDBRANCH  28  31
ENDBRANCH  26  28
BRANCH  26  33
ATOM     33  O7  KO1 d         -11.319   5.569  67.071  0.00  0.00    -0.391 OA
ATOM     34  H6  KO1 d         -11.230   6.476  67.342  0.00  0.00     0.210 HD
ENDBRANCH  26  33
ENDBRANCH  15  26
BRANCH  16  35
ATOM     35  O5  KO1 d          -7.279   5.487  66.230  0.00  0.00    -0.390 OA
ATOM     36  H8  KO1 d          -6.833   4.744  65.841  0.00  0.00     0.210 HD
ENDBRANCH  16  35
BRANCH  18  37
ATOM     37  O4  KO1 d          -5.895   4.644  68.517  0.00  0.00    -0.390 OA
ATOM     38  H10 KO1 d          -5.596   5.175  67.788  0.00  0.00     0.210 HD
ENDBRANCH  18  37
BRANCH  20  39
ATOM     39  O3  KO1 d          -6.089   2.887  66.209  0.00  0.00    -0.387 OA
ATOM     40  H12 KO1 d          -6.559   2.503  65.478  0.00  0.00     0.210 HD
ENDBRANCH  20  39
ENDBRANCH  12  13
ENDBRANCH   3  12
BRANCH   4  41
ATOM     41  O5  KO1 d         -10.277  -0.054  69.529  0.00  0.00    -0.390 OA
ATOM     42  H17 KO1 d         -10.559  -0.723  70.141  0.00  0.00     0.210 HD
ENDBRANCH   4  41
BRANCH   1  43
ATOM     43  C1  KO1 d          -5.973  -1.742  69.707  0.00  0.00     0.239 C 
ATOM     44  O1A KO1 d          -5.628  -2.571  70.593  0.00  0.00    -0.644 OA
ATOM     45  O1B KO1 d          -5.852  -1.928  68.450  0.00  0.00    -0.644 OA
ENDBRANCH   1  43
BRANCH   1  46
ATOM     46  O2  KO1 d          -5.595   0.363  71.004  0.00  0.00    -0.343 OA
BRANCH  46  47
ATOM     47  C9  KO1 d          -5.239   1.114  72.119  0.00  0.00     0.038 C 
ATOM     48  H24 KO1 d          -6.072   1.816  72.273  0.00  0.00     0.080 H 
ATOM     49  H25 KO1 d          -4.340   1.672  71.817  0.00  0.00     0.080 H 
BRANCH  47  50
ATOM     50  C10 KO1 d          -4.942   0.603  73.404  0.00  0.00    -0.089 C 
ATOM     51  C11 KO1 d          -4.268  -0.609  73.622  0.00  0.00    -0.123 C 
ATOM     52  H27 KO1 d          -4.071  -0.948  74.638  0.00  0.00     0.066 H 
ATOM     53  H28 KO1 d          -3.943  -1.212  72.775  0.00  0.00     0.066 H 
ATOM     54  H26 KO1 d          -5.254   1.182  74.273  0.00  0.00     0.078 H 
ENDBRANCH  47  50
ENDBRANCH  46  47
ENDBRANCH   1  46
BRANCH   5  55
ATOM     55  C7  KO1 d          -9.786  -0.260  72.497  0.00  0.00     0.083 C 
ATOM     56  H19 KO1 d         -10.719  -0.402  71.930  0.00  0.00     0.090 H 
BRANCH  55  57
ATOM     57  O7  KO1 d         -10.059   0.681  73.560  0.00  0.00    -0.391 OA
ATOM     58  H20 KO1 d          -9.963   1.566  73.229  0.00  0.00     0.210 HD
ENDBRANCH  55  57
BRANCH  55  59
ATOM     59  C8  KO1 d          -9.403  -1.644  73.100  0.00  0.00     0.043 C 
ATOM     60  H21 KO1 d         -10.171  -1.936  73.831  0.00  0.00     0.078 H 
ATOM     61  H22 KO1 d          -8.431  -1.554  73.606  0.00  0.00     0.078 H 
BRANCH  59  62
ATOM     62  O8  KO1 d          -9.308  -2.677  72.085  0.00  0.00    -0.398 OA
ATOM     63  H23 KO1 d          -9.611  -2.331  71.254  0.00  0.00     0.209 HD
ENDBRANCH  59  62
ENDBRANCH  55  59
ENDBRANCH   5  55
TORSDOF 19
ENDMDL
MODEL 10
REMARK VINA RESULT:      -3.4      1.854      7.062
REMARK  19 active torsions:
REMARK  status: ('A' for Active; 'I' for Inactive)
REMARK    1  A    between atoms: C2_4  and  C1_2 
REMARK    2  A    between atoms: O2_17  and  C2_4 
REMARK    3  A    between atoms: C6_6  and  C7_7 
REMARK    4  A    between atoms: C7_7  and  C8_8 
REMARK    5  A    between atoms: C7_7  and  O7_10 
REMARK    6  A    between atoms: C8_8  and  O8_9 
REMARK    7  A    between atoms: C5_11  and  O5_12 
REMARK    8  A    between atoms: C4_13  and  O4_14 
REMARK    9  A    between atoms: C3_15  and  O3_16 
REMARK   10  A    between atoms: C4_23  and  O2_17 
REMARK   11  A    between atoms: C2_21  and  C1_18 
REMARK   12  A    between atoms: C2_21  and  O2_32 
REMARK   13  A    between atoms: C5_24  and  O5_25 
REMARK   14  A    between atoms: C6_26  and  C7_28 
REMARK   15  A    between atoms: C7_28  and  O7_29 
REMARK   16  A    between atoms: C7_28  and  C8_30 
REMARK   17  A    between atoms: C8_30  and  O8_31 
REMARK   18  A    between atoms: O2_32  and  C9_33 
REMARK   19  A    between atoms: C9_33  and  C10_34 
ROOT
ATOM      1  C2  KO1 d          -7.211   3.479  67.534  0.00  0.00     0.259 C 
ATOM      2  C3  KO1 d          -7.694   2.453  68.606  0.00  0.00     0.024 C 
ATOM      3  C4  KO1 d          -8.847   1.515  68.165  0.00  0.00     0.075 C 
ATOM      4  C5  KO1 d         -10.054   2.211  67.484  0.00  0.00     0.088 C 
ATOM      5  C6  KO1 d          -9.495   3.097  66.329  0.00  0.00     0.096 C 
ATOM      6  O6  KO1 d          -8.370   3.954  66.787  0.00  0.00    -0.336 OA
ATOM      7  H13 KO1 d          -8.035   3.018  69.485  0.00  0.00     0.045 H 
ATOM      8  H14 KO1 d          -6.835   1.825  68.884  0.00  0.00     0.045 H 
ATOM      9  H15 KO1 d          -8.414   0.794  67.456  0.00  0.00     0.087 H 
ATOM     10  H16 KO1 d         -10.699   1.439  67.041  0.00  0.00     0.091 H 
ATOM     11  H18 KO1 d          -9.074   2.407  65.583  0.00  0.00     0.091 H 
ENDROOT
BRANCH   3  12
ATOM     12  O2  KO1 d          -9.452   0.781  69.277  0.00  0.00    -0.336 OA
BRANCH  12  13
ATOM     13  C2  KO1 d          -8.604   0.240  70.350  0.00  0.00     0.286 C 
ATOM     14  O6  KO1 d          -8.582   1.278  71.510  0.00  0.00    -0.334 OA
ATOM     15  C6  KO1 d          -9.999   1.641  71.888  0.00  0.00     0.096 C 
ATOM     16  C5  KO1 d         -10.687   0.406  72.473  0.00  0.00     0.090 C 
ATOM     17  H1  KO1 d         -10.569   1.968  71.005  0.00  0.00     0.091 H 
ATOM     18  C4  KO1 d         -10.733  -0.702  71.386  0.00  0.00     0.093 C 
ATOM     19  H7  KO1 d         -11.710   0.663  72.789  0.00  0.00     0.091 H 
ATOM     20  C3  KO1 d          -9.338  -1.068  70.794  0.00  0.00     0.127 C 
ATOM     21  H9  KO1 d         -11.364  -0.341  70.561  0.00  0.00     0.091 H 
ATOM     22  H11 KO1 d          -9.478  -1.754  69.947  0.00  0.00     0.096 H 
BRANCH  13  23
ATOM     23  C1  KO1 d          -7.135  -0.094  70.005  0.00  0.00     0.241 C 
ATOM     24  OA1 KO1 d          -6.880  -0.979  69.145  0.00  0.00    -0.644 OA
ATOM     25  O1B KO1 d          -6.238   0.529  70.576  0.00  0.00    -0.644 OA
ENDBRANCH  13  23
BRANCH  15  26
ATOM     26  C7  KO1 d          -9.814   2.846  72.858  0.00  0.00     0.083 C 
ATOM     27  H2  KO1 d          -9.043   2.590  73.600  0.00  0.00     0.090 H 
BRANCH  26  28
ATOM     28  C8  KO1 d          -9.334   4.129  72.149  0.00  0.00     0.043 C 
ATOM     29  H3  KO1 d          -9.695   5.035  72.659  0.00  0.00     0.078 H 
ATOM     30  H4  KO1 d          -9.648   4.152  71.095  0.00  0.00     0.078 H 
BRANCH  28  31
ATOM     31  O8  KO1 d          -7.902   3.981  72.277  0.00  0.00    -0.398 OA
ATOM     32  H5  KO1 d          -7.502   4.838  72.361  0.00  0.00     0.209 HD
ENDBRANCH  28  31
ENDBRANCH  26  28
BRANCH  26  33
ATOM     33  O7  KO1 d         -11.063   2.943  73.526  0.00  0.00    -0.391 OA
ATOM     34  H6  KO1 d         -11.707   3.320  72.937  0.00  0.00     0.210 HD
ENDBRANCH  26  33
ENDBRANCH  15  26
BRANCH  16  35
ATOM     35  O5  KO1 d          -9.935  -0.071  73.604  0.00  0.00    -0.390 OA
ATOM     36  H8  KO1 d          -9.076  -0.354  73.314  0.00  0.00     0.210 HD
ENDBRANCH  16  35
BRANCH  18  37
ATOM     37  O4  KO1 d         -11.326  -1.852  71.943  0.00  0.00    -0.390 OA
ATOM     38  H10 KO1 d         -11.732  -2.363  71.252  0.00  0.00     0.210 HD
ENDBRANCH  18  37
BRANCH  20  39
ATOM     39  O3  KO1 d          -8.435  -1.624  71.729  0.00  0.00    -0.387 OA
ATOM     40  H12 KO1 d          -8.324  -1.023  72.456  0.00  0.00     0.210 HD
ENDBRANCH  20  39
ENDBRANCH  12  13
ENDBRANCH   3  12
BRANCH   4  41
ATOM     41  O5  KO1 d         -10.859   2.950  68.452  0.00  0.00    -0.390 OA
ATOM     42  H17 KO1 d         -10.288   3.455  69.018  0.00  0.00     0.210 HD
ENDBRANCH   4  41
BRANCH   1  43
ATOM     43  C1  KO1 d          -6.556   4.646  68.340  0.00  0.00     0.239 C 
ATOM     44  O1A KO1 d          -7.367   5.462  68.856  0.00  0.00    -0.644 OA
ATOM     45  O1B KO1 d          -5.285   4.733  68.421  0.00  0.00    -0.644 OA
ENDBRANCH   1  43
BRANCH   1  46
ATOM     46  O2  KO1 d          -6.322   2.935  66.531  0.00  0.00    -0.343 OA
BRANCH  46  47
ATOM     47  C9  KO1 d          -6.036   2.018  65.524  0.00  0.00     0.038 C 
ATOM     48  H24 KO1 d          -5.087   1.549  65.821  0.00  0.00     0.080 H 
ATOM     49  H25 KO1 d          -5.879   2.624  64.619  0.00  0.00     0.080 H 
BRANCH  47  50
ATOM     50  C10 KO1 d          -6.867   0.949  65.115  0.00  0.00    -0.089 C 
ATOM     51  C11 KO1 d          -7.773   1.034  64.046  0.00  0.00    -0.123 C 
ATOM     52  H27 KO1 d          -8.385   0.173  63.781  0.00  0.00     0.066 H 
ATOM     53  H28 KO1 d          -7.865   1.961  63.481  0.00  0.00     0.066 H 
ATOM     54  H26 KO1 d          -6.800   0.008  65.659  0.00  0.00     0.078 H 
ENDBRANCH  47  50
ENDBRANCH  46  47
ENDBRANCH   1  46
BRANCH   5  55
ATOM     55  C7  KO1 d         -10.611   3.895  65.599  0.00  0.00     0.083 C 
ATOM     56  H19 KO1 d         -11.569   3.442  65.894  0.00  0.00     0.090 H 
BRANCH  55  57
ATOM     57  O7  KO1 d         -10.488   3.765  64.165  0.00  0.00    -0.391 OA
ATOM     58  H20 KO1 d         -10.029   4.521  63.818  0.00  0.00     0.210 HD
ENDBRANCH  55  57
BRANCH  55  59
ATOM     59  C8  KO1 d         -10.677   5.401  65.991  0.00  0.00     0.043 C 
ATOM     60  H21 KO1 d         -11.633   5.816  65.639  0.00  0.00     0.078 H 
ATOM     61  H22 KO1 d          -9.846   5.931  65.504  0.00  0.00     0.078 H 
BRANCH  59  62
ATOM     62  O8  KO1 d         -10.582   5.599  67.425  0.00  0.00    -0.398 OA
ATOM     63  H23 KO1 d          -9.683   5.803  67.656  0.00  0.00     0.209 HD
ENDBRANCH  59  62
ENDBRANCH  55  59
ENDBRANCH   5  55
TORSDOF 19
ENDMDL
