MODEL 1
REMARK VINA RESULT:      -8.8      0.000      0.000
REMARK  8 active torsions:
REMARK  status: ('A' for Active; 'I' for Inactive)
REMARK    1  A    between atoms: O6B_1  and  C6B_2 
REMARK    2  A    between atoms: C6B_2  and  C5B_3 
REMARK    3  A    between atoms: C4B_4  and  O4B_5 
REMARK    4  A    between atoms: C3B_6  and  O3B_7 
REMARK    5  A    between atoms: C20_22  and  O2B_8 
REMARK    6  A    between atoms: C7B_11  and  C7_14 
REMARK    7  A    between atoms: C7_14  and  N1_15 
REMARK    8  A    between atoms: N1_15  and  C1_16 
ROOT
ATOM      1  C5B NHV d          26.790  48.420  -1.898  0.00  0.00     0.065 C 
ATOM      2  C4B NHV d          27.925  48.580  -0.853  0.00  0.00     0.085 C 
ATOM      3  C3B NHV d          28.331  47.243  -0.179  0.00  0.00     0.093 C 
ATOM      4  N1B NHV d          27.412  47.536  -2.909  0.00  0.00    -0.332 N 
ATOM      5  C8B NHV d          27.643  47.716  -4.222  0.00  0.00     0.007 A 
ATOM      6  C7B NHV d          28.430  46.647  -4.611  0.00  0.00     0.069 A 
ATOM      7  N2B NHV d          28.583  45.804  -3.553  0.00  0.00    -0.234 NA
ATOM      8  C1B NHV d          27.990  46.422  -2.509  0.00  0.00     0.138 A 
ATOM      9  C20 NHV d          27.961  46.027  -1.049  0.00  0.00     0.119 C 
ATOM     10  H4  NHV d          25.933  47.901  -1.443  0.00  0.00     0.080 H 
ATOM     11  H5  NHV d          28.810  48.974  -1.375  0.00  0.00     0.090 H 
ATOM     12  H7  NHV d          27.780  47.158   0.769  0.00  0.00     0.091 H 
ATOM     13  H10 NHV d          27.285  48.533  -4.848  0.00  0.00     0.114 H 
ATOM     14  H19 NHV d          26.926  45.768  -0.784  0.00  0.00     0.099 H 
ENDROOT
BRANCH   6  15
ATOM     15  C7  NHV d          28.911  46.405  -6.005  0.00  0.00     0.034 C 
ATOM     16  H11 NHV d          28.480  47.167  -6.670  0.00  0.00     0.073 H 
ATOM     17  H12 NHV d          28.581  45.406  -6.329  0.00  0.00     0.073 H 
BRANCH  15  18
ATOM     18  N1  NHV d          30.365  46.473  -6.086  0.00  0.00    -0.384 N 
ATOM     19  H13 NHV d          30.868  45.616  -6.356  0.00  0.00     0.160 HD
BRANCH  18  20
ATOM     20  C1  NHV d          31.116  47.600  -5.829  0.00  0.00     0.028 A 
ATOM     21  C6  NHV d          30.933  48.793  -6.545  0.00  0.00    -0.058 A 
ATOM     22  C5  NHV d          31.733  49.926  -6.241  0.00  0.00    -0.081 A 
ATOM     23  H14 NHV d          30.183  48.849  -7.326  0.00  0.00     0.086 H 
ATOM     24  C4  NHV d          32.714  49.894  -5.230  0.00  0.00    -0.083 A 
ATOM     25  H15 NHV d          31.586  50.841  -6.803  0.00  0.00     0.083 H 
ATOM     26  C3  NHV d          32.911  48.697  -4.509  0.00  0.00    -0.081 A 
ATOM     27  H16 NHV d          33.308  50.774  -5.010  0.00  0.00     0.083 H 
ATOM     28  C2  NHV d          32.112  47.572  -4.822  0.00  0.00    -0.058 A 
ATOM     29  H17 NHV d          33.662  48.641  -3.728  0.00  0.00     0.083 H 
ATOM     30  H18 NHV d          32.268  46.652  -4.270  0.00  0.00     0.086 H 
ENDBRANCH  18  20
ENDBRANCH  15  18
ENDBRANCH   6  15
BRANCH   1  31
ATOM     31  C6B NHV d          26.279  49.780  -2.418  0.00  0.00     0.038 C 
ATOM     32  H2  NHV d          25.292  49.643  -2.883  0.00  0.00     0.077 H 
ATOM     33  H3  NHV d          26.193  50.482  -1.575  0.00  0.00     0.077 H 
BRANCH  31  34
ATOM     34  O6B NHV d          27.178  50.311  -3.378  0.00  0.00    -0.399 OA
ATOM     35  H1  NHV d          26.755  51.022  -3.847  0.00  0.00     0.209 HD
ENDBRANCH  31  34
ENDBRANCH   1  31
BRANCH   9  36
ATOM     36  O2B NHV d          28.732  44.815  -0.906  0.00  0.00    -0.385 OA
ATOM     37  H9  NHV d          29.427  44.805  -1.554  0.00  0.00     0.210 HD
ENDBRANCH   9  36
BRANCH   2  38
ATOM     38  O4B NHV d          27.522  49.529   0.136  0.00  0.00    -0.391 OA
ATOM     39  H6  NHV d          26.973  49.099   0.781  0.00  0.00     0.210 HD
ENDBRANCH   2  38
BRANCH   3  40
ATOM     40  O3B NHV d          29.732  47.256   0.117  0.00  0.00    -0.390 OA
ATOM     41  H8  NHV d          30.172  46.598  -0.407  0.00  0.00     0.210 HD
ENDBRANCH   3  40
TORSDOF 8
ENDMDL
MODEL 2
REMARK VINA RESULT:      -6.7      3.004      5.889
REMARK  8 active torsions:
REMARK  status: ('A' for Active; 'I' for Inactive)
REMARK    1  A    between atoms: O6B_1  and  C6B_2 
REMARK    2  A    between atoms: C6B_2  and  C5B_3 
REMARK    3  A    between atoms: C4B_4  and  O4B_5 
REMARK    4  A    between atoms: C3B_6  and  O3B_7 
REMARK    5  A    between atoms: C20_22  and  O2B_8 
REMARK    6  A    between atoms: C7B_11  and  C7_14 
REMARK    7  A    between atoms: C7_14  and  N1_15 
REMARK    8  A    between atoms: N1_15  and  C1_16 
ROOT
ATOM      1  C5B NHV d          32.307  49.401  -4.984  0.00  0.00     0.065 C 
ATOM      2  C4B NHV d          31.312  49.396  -6.173  0.00  0.00     0.085 C 
ATOM      3  C3B NHV d          31.263  48.039  -6.926  0.00  0.00     0.093 C 
ATOM      4  N1B NHV d          31.737  48.369  -4.089  0.00  0.00    -0.332 N 
ATOM      5  C8B NHV d          31.304  48.441  -2.817  0.00  0.00     0.007 A 
ATOM      6  C7B NHV d          30.692  47.226  -2.564  0.00  0.00     0.069 A 
ATOM      7  N2B NHV d          30.846  46.420  -3.651  0.00  0.00    -0.234 NA
ATOM      8  C1B NHV d          31.443  47.187  -4.589  0.00  0.00     0.138 A 
ATOM      9  C20 NHV d          31.740  46.875  -6.039  0.00  0.00     0.119 C 
ATOM     10  H4  NHV d          33.300  49.074  -5.326  0.00  0.00     0.080 H 
ATOM     11  H5  NHV d          30.306  49.592  -5.772  0.00  0.00     0.090 H 
ATOM     12  H7  NHV d          31.942  48.104  -7.789  0.00  0.00     0.091 H 
ATOM     13  H10 NHV d          31.412  49.279  -2.130  0.00  0.00     0.114 H 
ATOM     14  H19 NHV d          32.832  46.827  -6.162  0.00  0.00     0.099 H 
ENDROOT
BRANCH   6  15
ATOM     15  C7  NHV d          30.085  46.832  -1.257  0.00  0.00     0.034 C 
ATOM     16  H11 NHV d          30.341  47.589  -0.501  0.00  0.00     0.073 H 
ATOM     17  H12 NHV d          30.494  45.857  -0.953  0.00  0.00     0.073 H 
BRANCH  15  18
ATOM     18  N1  NHV d          28.634  46.729  -1.352  0.00  0.00    -0.384 N 
ATOM     19  H13 NHV d          28.190  45.882  -0.972  0.00  0.00     0.160 HD
BRANCH  18  20
ATOM     20  C1  NHV d          27.812  47.684  -1.913  0.00  0.00     0.028 A 
ATOM     21  C6  NHV d          27.504  47.686  -3.282  0.00  0.00    -0.058 A 
ATOM     22  C5  NHV d          26.653  48.692  -3.811  0.00  0.00    -0.081 A 
ATOM     23  H14 NHV d          27.915  46.922  -3.933  0.00  0.00     0.086 H 
ATOM     24  C4  NHV d          26.096  49.698  -2.996  0.00  0.00    -0.083 A 
ATOM     25  H15 NHV d          26.424  48.686  -4.870  0.00  0.00     0.083 H 
ATOM     26  C3  NHV d          26.405  49.710  -1.619  0.00  0.00    -0.081 A 
ATOM     27  H16 NHV d          25.442  50.451  -3.421  0.00  0.00     0.083 H 
ATOM     28  C2  NHV d          27.259  48.706  -1.103  0.00  0.00    -0.058 A 
ATOM     29  H17 NHV d          25.996  50.474  -0.969  0.00  0.00     0.083 H 
ATOM     30  H18 NHV d          27.499  48.720  -0.046  0.00  0.00     0.086 H 
ENDBRANCH  18  20
ENDBRANCH  15  18
ENDBRANCH   6  15
BRANCH   1  31
ATOM     31  C6B NHV d          32.474  50.806  -4.369  0.00  0.00     0.038 C 
ATOM     32  H2  NHV d          32.755  51.518  -5.159  0.00  0.00     0.077 H 
ATOM     33  H3  NHV d          31.520  51.119  -3.917  0.00  0.00     0.077 H 
BRANCH  31  34
ATOM     34  O6B NHV d          33.482  50.793  -3.371  0.00  0.00    -0.399 OA
ATOM     35  H1  NHV d          33.897  49.939  -3.354  0.00  0.00     0.209 HD
ENDBRANCH  31  34
ENDBRANCH   1  31
BRANCH   9  36
ATOM     36  O2B NHV d          31.242  45.548  -6.314  0.00  0.00    -0.385 OA
ATOM     37  H9  NHV d          30.598  45.310  -5.657  0.00  0.00     0.210 HD
ENDBRANCH   9  36
BRANCH   2  38
ATOM     38  O4B NHV d          31.653  50.449  -7.076  0.00  0.00    -0.391 OA
ATOM     39  H6  NHV d          32.360  50.163  -7.642  0.00  0.00     0.210 HD
ENDBRANCH   2  38
BRANCH   3  40
ATOM     40  O3B NHV d          29.937  47.804  -7.414  0.00  0.00    -0.390 OA
ATOM     41  H8  NHV d          29.337  48.417  -7.005  0.00  0.00     0.210 HD
ENDBRANCH   3  40
TORSDOF 8
ENDMDL
MODEL 3
REMARK VINA RESULT:      -6.4      1.944      2.460
REMARK  8 active torsions:
REMARK  status: ('A' for Active; 'I' for Inactive)
REMARK    1  A    between atoms: O6B_1  and  C6B_2 
REMARK    2  A    between atoms: C6B_2  and  C5B_3 
REMARK    3  A    between atoms: C4B_4  and  O4B_5 
REMARK    4  A    between atoms: C3B_6  and  O3B_7 
REMARK    5  A    between atoms: C20_22  and  O2B_8 
REMARK    6  A    between atoms: C7B_11  and  C7_14 
REMARK    7  A    between atoms: C7_14  and  N1_15 
REMARK    8  A    between atoms: N1_15  and  C1_16 
ROOT
ATOM      1  C5B NHV d          28.337  47.169  -1.810  0.00  0.00     0.065 C 
ATOM      2  C4B NHV d          29.050  48.512  -1.508  0.00  0.00     0.085 C 
ATOM      3  C3B NHV d          30.595  48.385  -1.441  0.00  0.00     0.093 C 
ATOM      4  N1B NHV d          28.854  46.832  -3.155  0.00  0.00    -0.332 N 
ATOM      5  C8B NHV d          28.219  46.628  -4.324  0.00  0.00     0.007 A 
ATOM      6  C7B NHV d          29.216  46.549  -5.280  0.00  0.00     0.069 A 
ATOM      7  N2B NHV d          30.427  46.618  -4.661  0.00  0.00    -0.234 NA
ATOM      8  C1B NHV d          30.155  46.853  -3.359  0.00  0.00     0.138 A 
ATOM      9  C20 NHV d          31.102  47.157  -2.219  0.00  0.00     0.119 C 
ATOM     10  H4  NHV d          28.664  46.401  -1.094  0.00  0.00     0.080 H 
ATOM     11  H5  NHV d          28.807  49.214  -2.319  0.00  0.00     0.090 H 
ATOM     12  H7  NHV d          30.881  48.256  -0.387  0.00  0.00     0.091 H 
ATOM     13  H10 NHV d          27.145  46.543  -4.484  0.00  0.00     0.114 H 
ATOM     14  H19 NHV d          31.070  46.315  -1.513  0.00  0.00     0.099 H 
ENDROOT
BRANCH   6  15
ATOM     15  C7  NHV d          28.986  46.293  -6.734  0.00  0.00     0.034 C 
ATOM     16  H11 NHV d          28.294  47.053  -7.126  0.00  0.00     0.073 H 
ATOM     17  H12 NHV d          28.541  45.294  -6.855  0.00  0.00     0.073 H 
BRANCH  15  18
ATOM     18  N1  NHV d          30.231  46.353  -7.489  0.00  0.00    -0.384 N 
ATOM     19  H13 NHV d          30.405  45.611  -8.182  0.00  0.00     0.160 HD
BRANCH  18  20
ATOM     20  C1  NHV d          31.193  47.330  -7.345  0.00  0.00     0.028 A 
ATOM     21  C6  NHV d          32.529  47.018  -7.049  0.00  0.00    -0.058 A 
ATOM     22  C5  NHV d          33.481  48.062  -6.910  0.00  0.00    -0.081 A 
ATOM     23  H14 NHV d          32.832  45.985  -6.926  0.00  0.00     0.086 H 
ATOM     24  C4  NHV d          33.127  49.418  -7.067  0.00  0.00    -0.083 A 
ATOM     25  H15 NHV d          34.510  47.811  -6.677  0.00  0.00     0.083 H 
ATOM     26  C3  NHV d          31.785  49.743  -7.359  0.00  0.00    -0.081 A 
ATOM     27  H16 NHV d          33.874  50.197  -6.965  0.00  0.00     0.083 H 
ATOM     28  C2  NHV d          30.842  48.695  -7.490  0.00  0.00    -0.058 A 
ATOM     29  H17 NHV d          31.482  50.776  -7.481  0.00  0.00     0.083 H 
ATOM     30  H18 NHV d          29.811  48.947  -7.709  0.00  0.00     0.086 H 
ENDBRANCH  18  20
ENDBRANCH  15  18
ENDBRANCH   6  15
BRANCH   1  31
ATOM     31  C6B NHV d          26.802  47.283  -1.690  0.00  0.00     0.038 C 
ATOM     32  H2  NHV d          26.330  46.614  -2.425  0.00  0.00     0.077 H 
ATOM     33  H3  NHV d          26.495  46.988  -0.676  0.00  0.00     0.077 H 
BRANCH  31  34
ATOM     34  O6B NHV d          26.384  48.616  -1.936  0.00  0.00    -0.399 OA
ATOM     35  H1  NHV d          25.466  48.619  -2.178  0.00  0.00     0.209 HD
ENDBRANCH  31  34
ENDBRANCH   1  31
BRANCH   9  36
ATOM     36  O2B NHV d          32.442  47.185  -2.757  0.00  0.00    -0.385 OA
ATOM     37  H9  NHV d          32.401  47.290  -3.700  0.00  0.00     0.210 HD
ENDBRANCH   9  36
BRANCH   2  38
ATOM     38  O4B NHV d          28.545  49.046  -0.281  0.00  0.00    -0.391 OA
ATOM     39  H6  NHV d          27.630  49.276  -0.390  0.00  0.00     0.210 HD
ENDBRANCH   2  38
BRANCH   3  40
ATOM     40  O3B NHV d          31.201  49.588  -1.926  0.00  0.00    -0.390 OA
ATOM     41  H8  NHV d          32.008  49.749  -1.451  0.00  0.00     0.210 HD
ENDBRANCH   3  40
TORSDOF 8
ENDMDL
MODEL 4
REMARK VINA RESULT:      -6.2      2.736      5.756
REMARK  8 active torsions:
REMARK  status: ('A' for Active; 'I' for Inactive)
REMARK    1  A    between atoms: O6B_1  and  C6B_2 
REMARK    2  A    between atoms: C6B_2  and  C5B_3 
REMARK    3  A    between atoms: C4B_4  and  O4B_5 
REMARK    4  A    between atoms: C3B_6  and  O3B_7 
REMARK    5  A    between atoms: C20_22  and  O2B_8 
REMARK    6  A    between atoms: C7B_11  and  C7_14 
REMARK    7  A    between atoms: C7_14  and  N1_15 
REMARK    8  A    between atoms: N1_15  and  C1_16 
ROOT
ATOM      1  C5B NHV d          32.574  48.503  -3.276  0.00  0.00     0.065 C 
ATOM      2  C4B NHV d          32.520  49.864  -4.015  0.00  0.00     0.085 C 
ATOM      3  C3B NHV d          32.947  49.771  -5.504  0.00  0.00     0.093 C 
ATOM      4  N1B NHV d          31.575  47.700  -4.017  0.00  0.00    -0.332 N 
ATOM      5  C8B NHV d          30.450  47.085  -3.607  0.00  0.00     0.007 A 
ATOM      6  C7B NHV d          29.815  46.665  -4.761  0.00  0.00     0.069 A 
ATOM      7  N2B NHV d          30.606  46.955  -5.831  0.00  0.00    -0.234 NA
ATOM      8  C1B NHV d          31.652  47.647  -5.331  0.00  0.00     0.138 A 
ATOM      9  C20 NHV d          32.779  48.345  -6.059  0.00  0.00     0.119 C 
ATOM     10  H4  NHV d          33.567  48.047  -3.400  0.00  0.00     0.080 H 
ATOM     11  H5  NHV d          31.480  50.223  -3.986  0.00  0.00     0.090 H 
ATOM     12  H7  NHV d          34.013  50.034  -5.570  0.00  0.00     0.091 H 
ATOM     13  H10 NHV d          30.112  46.947  -2.581  0.00  0.00     0.114 H 
ATOM     14  H19 NHV d          33.716  47.817  -5.828  0.00  0.00     0.099 H 
ENDROOT
BRANCH   6  15
ATOM     15  C7  NHV d          28.532  45.899  -4.798  0.00  0.00     0.034 C 
ATOM     16  H11 NHV d          28.717  44.915  -5.254  0.00  0.00     0.073 H 
ATOM     17  H12 NHV d          27.802  46.453  -5.406  0.00  0.00     0.073 H 
BRANCH  15  18
ATOM     18  N1  NHV d          27.988  45.706  -3.460  0.00  0.00    -0.384 N 
ATOM     19  H13 NHV d          27.718  44.750  -3.188  0.00  0.00     0.160 HD
BRANCH  18  20
ATOM     20  C1  NHV d          27.807  46.709  -2.531  0.00  0.00     0.028 A 
ATOM     21  C6  NHV d          28.301  46.607  -1.223  0.00  0.00    -0.058 A 
ATOM     22  C5  NHV d          28.087  47.668  -0.304  0.00  0.00    -0.081 A 
ATOM     23  H14 NHV d          28.844  45.720  -0.914  0.00  0.00     0.086 H 
ATOM     24  C4  NHV d          27.391  48.838  -0.668  0.00  0.00    -0.083 A 
ATOM     25  H15 NHV d          28.470  47.577   0.706  0.00  0.00     0.083 H 
ATOM     26  C3  NHV d          26.883  48.949  -1.981  0.00  0.00    -0.081 A 
ATOM     27  H16 NHV d          27.247  49.639   0.048  0.00  0.00     0.083 H 
ATOM     28  C2  NHV d          27.097  47.883  -2.888  0.00  0.00    -0.058 A 
ATOM     29  H17 NHV d          26.339  49.835  -2.289  0.00  0.00     0.083 H 
ATOM     30  H18 NHV d          26.702  47.968  -3.893  0.00  0.00     0.086 H 
ENDBRANCH  18  20
ENDBRANCH  15  18
ENDBRANCH   6  15
BRANCH   1  31
ATOM     31  C6B NHV d          32.324  48.651  -1.760  0.00  0.00     0.038 C 
ATOM     32  H2  NHV d          31.982  47.688  -1.353  0.00  0.00     0.077 H 
ATOM     33  H3  NHV d          33.262  48.946  -1.265  0.00  0.00     0.077 H 
BRANCH  31  34
ATOM     34  O6B NHV d          31.336  49.639  -1.516  0.00  0.00    -0.399 OA
ATOM     35  H1  NHV d          31.586  50.154  -0.758  0.00  0.00     0.209 HD
ENDBRANCH  31  34
ENDBRANCH   1  31
BRANCH   9  36
ATOM     36  O2B NHV d          32.557  48.177  -7.476  0.00  0.00    -0.385 OA
ATOM     37  H9  NHV d          33.069  47.441  -7.790  0.00  0.00     0.210 HD
ENDBRANCH   9  36
BRANCH   2  38
ATOM     38  O4B NHV d          33.343  50.806  -3.323  0.00  0.00    -0.391 OA
ATOM     39  H6  NHV d          34.248  50.690  -3.588  0.00  0.00     0.210 HD
ENDBRANCH   2  38
BRANCH   3  40
ATOM     40  O3B NHV d          32.203  50.717  -6.281  0.00  0.00    -0.390 OA
ATOM     41  H8  NHV d          32.483  51.597  -6.060  0.00  0.00     0.210 HD
ENDBRANCH   3  40
TORSDOF 8
ENDMDL
MODEL 5
REMARK VINA RESULT:      -6.1      2.810      5.733
REMARK  8 active torsions:
REMARK  status: ('A' for Active; 'I' for Inactive)
REMARK    1  A    between atoms: O6B_1  and  C6B_2 
REMARK    2  A    between atoms: C6B_2  and  C5B_3 
REMARK    3  A    between atoms: C4B_4  and  O4B_5 
REMARK    4  A    between atoms: C3B_6  and  O3B_7 
REMARK    5  A    between atoms: C20_22  and  O2B_8 
REMARK    6  A    between atoms: C7B_11  and  C7_14 
REMARK    7  A    between atoms: C7_14  and  N1_15 
REMARK    8  A    between atoms: N1_15  and  C1_16 
ROOT
ATOM      1  C5B NHV d          31.663  48.383  -4.330  0.00  0.00     0.065 C 
ATOM      2  C4B NHV d          31.936  48.015  -5.811  0.00  0.00     0.085 C 
ATOM      3  C3B NHV d          31.612  46.534  -6.144  0.00  0.00     0.093 C 
ATOM      4  N1B NHV d          30.203  48.168  -4.213  0.00  0.00    -0.332 N 
ATOM      5  C8B NHV d          29.207  49.008  -3.876  0.00  0.00     0.007 A 
ATOM      6  C7B NHV d          28.036  48.317  -4.132  0.00  0.00     0.069 A 
ATOM      7  N2B NHV d          28.348  47.053  -4.533  0.00  0.00    -0.234 NA
ATOM      8  C1B NHV d          29.695  47.025  -4.626  0.00  0.00     0.138 A 
ATOM      9  C20 NHV d          30.599  45.932  -5.153  0.00  0.00     0.119 C 
ATOM     10  H4  NHV d          32.186  47.679  -3.666  0.00  0.00     0.080 H 
ATOM     11  H5  NHV d          31.292  48.648  -6.440  0.00  0.00     0.090 H 
ATOM     12  H7  NHV d          32.544  45.955  -6.065  0.00  0.00     0.091 H 
ATOM     13  H10 NHV d          29.303  50.019  -3.483  0.00  0.00     0.114 H 
ATOM     14  H19 NHV d          31.192  45.543  -4.312  0.00  0.00     0.099 H 
ENDROOT
BRANCH   6  15
ATOM     15  C7  NHV d          26.662  48.844  -3.877  0.00  0.00     0.034 C 
ATOM     16  H11 NHV d          25.939  48.259  -4.464  0.00  0.00     0.073 H 
ATOM     17  H12 NHV d          26.620  49.899  -4.187  0.00  0.00     0.073 H 
BRANCH  15  18
ATOM     18  N1  NHV d          26.309  48.751  -2.465  0.00  0.00    -0.384 N 
ATOM     19  H13 NHV d          25.436  49.204  -2.161  0.00  0.00     0.160 HD
BRANCH  18  20
ATOM     20  C1  NHV d          27.059  48.101  -1.507  0.00  0.00     0.028 A 
ATOM     21  C6  NHV d          27.844  48.802  -0.579  0.00  0.00    -0.058 A 
ATOM     22  C5  NHV d          28.599  48.085   0.387  0.00  0.00    -0.081 A 
ATOM     23  H14 NHV d          27.874  49.885  -0.599  0.00  0.00     0.086 H 
ATOM     24  C4  NHV d          28.582  46.677   0.449  0.00  0.00    -0.083 A 
ATOM     25  H15 NHV d          29.205  48.636   1.098  0.00  0.00     0.083 H 
ATOM     26  C3  NHV d          27.801  45.963  -0.485  0.00  0.00    -0.081 A 
ATOM     27  H16 NHV d          29.160  46.152   1.201  0.00  0.00     0.083 H 
ATOM     28  C2  NHV d          27.057  46.686  -1.447  0.00  0.00    -0.058 A 
ATOM     29  H17 NHV d          27.772  44.879  -0.465  0.00  0.00     0.083 H 
ATOM     30  H18 NHV d          26.461  46.135  -2.167  0.00  0.00     0.086 H 
ENDBRANCH  18  20
ENDBRANCH  15  18
ENDBRANCH   6  15
BRANCH   1  31
ATOM     31  C6B NHV d          32.163  49.801  -3.979  0.00  0.00     0.038 C 
ATOM     32  H2  NHV d          33.218  49.897  -4.275  0.00  0.00     0.077 H 
ATOM     33  H3  NHV d          31.560  50.542  -4.525  0.00  0.00     0.077 H 
BRANCH  31  34
ATOM     34  O6B NHV d          32.045  50.036  -2.586  0.00  0.00    -0.399 OA
ATOM     35  H1  NHV d          32.266  50.941  -2.399  0.00  0.00     0.209 HD
ENDBRANCH  31  34
ENDBRANCH   1  31
BRANCH   9  36
ATOM     36  O2B NHV d          29.760  44.844  -5.596  0.00  0.00    -0.385 OA
ATOM     37  H9  NHV d          30.080  44.519  -6.429  0.00  0.00     0.210 HD
ENDBRANCH   9  36
BRANCH   2  38
ATOM     38  O4B NHV d          33.300  48.304  -6.123  0.00  0.00    -0.391 OA
ATOM     39  H6  NHV d          33.339  49.046  -6.714  0.00  0.00     0.210 HD
ENDBRANCH   2  38
BRANCH   3  40
ATOM     40  O3B NHV d          31.135  46.434  -7.491  0.00  0.00    -0.390 OA
ATOM     41  H8  NHV d          31.850  46.606  -8.092  0.00  0.00     0.210 HD
ENDBRANCH   3  40
TORSDOF 8
ENDMDL
