MODEL 1
REMARK VINA RESULT:      -9.7      0.000      0.000
REMARK  7 active torsions:
REMARK  status: ('A' for Active; 'I' for Inactive)
REMARK    1  A    between atoms: C2_3  and  C5_9 
REMARK    2  A    between atoms: C11_15  and  C2_3 
REMARK    3  A    between atoms: C3_5  and  N3_7 
REMARK    4  A    between atoms: N2_6  and  C4_8 
REMARK    5  A    between atoms: C19_23  and  C15_19 
REMARK    6  A    between atoms: C22_26  and  O2_27 
REMARK    7  A    between atoms: O2_27  and  C23_28 
ROOT
ATOM      1  O1  MOL d          22.736  13.060  22.003  0.00  0.00    -0.269 OA
ATOM      2  C1  MOL d          22.633  11.895  22.332  0.00  0.00     0.276 A 
ATOM      3  C2  MOL d          22.387  10.672  21.369  0.00  0.00     0.183 A 
ATOM      4  N1  MOL d          22.532   9.515  22.314  0.00  0.00    -0.199 N 
ATOM      5  C3  MOL d          22.680   9.981  23.564  0.00  0.00     0.677 A 
ATOM      6  N2  MOL d          22.784  11.401  23.607  0.00  0.00    -0.153 N 
ATOM      7  H1  MOL d          22.519   8.520  22.045  0.00  0.00     0.179 HD
ENDROOT
BRANCH   3   8
ATOM      8  C5  MOL d          20.960  10.708  20.787  0.00  0.00    -0.015 A 
ATOM      9  C6  MOL d          20.192   9.549  20.724  0.00  0.00    -0.074 A 
ATOM     10  C7  MOL d          18.895   9.577  20.214  0.00  0.00    -0.082 A 
ATOM     11  H7  MOL d          20.608   8.612  21.076  0.00  0.00     0.084 H 
ATOM     12  C8  MOL d          18.350  10.760  19.768  0.00  0.00    -0.083 A 
ATOM     13  H8  MOL d          18.313   8.664  20.169  0.00  0.00     0.083 H 
ATOM     14  C9  MOL d          19.099  11.920  19.818  0.00  0.00    -0.082 A 
ATOM     15  H9  MOL d          17.339  10.780  19.379  0.00  0.00     0.083 H 
ATOM     16  C10 MOL d          20.399  11.896  20.318  0.00  0.00    -0.074 A 
ATOM     17  H10 MOL d          18.673  12.853  19.467  0.00  0.00     0.083 H 
ATOM     18  H11 MOL d          20.981  12.810  20.342  0.00  0.00     0.084 H 
ENDBRANCH   3   8
BRANCH   3  19
ATOM     19  C11 MOL d          23.508  10.669  20.312  0.00  0.00    -0.015 A 
ATOM     20  C12 MOL d          23.227  10.851  18.960  0.00  0.00    -0.074 A 
ATOM     21  C13 MOL d          24.252  10.990  18.036  0.00  0.00    -0.082 A 
ATOM     22  H12 MOL d          22.196  10.884  18.626  0.00  0.00     0.084 H 
ATOM     23  C14 MOL d          25.570  10.936  18.450  0.00  0.00    -0.072 A 
ATOM     24  H13 MOL d          24.019  11.141  16.988  0.00  0.00     0.083 H 
ATOM     25  C15 MOL d          25.883  10.724  19.797  0.00  0.00    -0.025 A 
ATOM     26  H14 MOL d          26.367  11.060  17.726  0.00  0.00     0.084 H 
ATOM     27  C16 MOL d          24.839  10.585  20.720  0.00  0.00    -0.063 A 
ATOM     28  H15 MOL d          25.068  10.411  21.765  0.00  0.00     0.085 H 
BRANCH  25  29
ATOM     29  C19 MOL d          27.295  10.657  20.262  0.00  0.00    -0.023 A 
ATOM     30  C18 MOL d          27.711   9.605  21.080  0.00  0.00    -0.040 A 
ATOM     31  C22 MOL d          28.962   9.622  21.686  0.00  0.00     0.069 A 
ATOM     32  H17 MOL d          27.048   8.764  21.246  0.00  0.00     0.089 H 
ATOM     33  C17 MOL d          29.832  10.686  21.471  0.00  0.00    -0.051 A 
ATOM     34  C21 MOL d          29.448  11.711  20.619  0.00  0.00    -0.080 A 
ATOM     35  H16 MOL d          30.797  10.713  21.962  0.00  0.00     0.087 H 
ATOM     36  C20 MOL d          28.193  11.698  20.019  0.00  0.00    -0.072 A 
ATOM     37  H19 MOL d          30.131  12.529  20.419  0.00  0.00     0.083 H 
ATOM     38  H18 MOL d          27.909  12.507  19.355  0.00  0.00     0.084 H 
BRANCH  31  39
ATOM     39  O2  MOL d          29.199   8.542  22.501  0.00  0.00    -0.356 OA
BRANCH  39  40
ATOM     40  C23 MOL d          30.082   8.723  23.618  0.00  0.00     0.010 C 
ATOM     41  H20 MOL d          29.887   9.700  24.085  0.00  0.00     0.066 H 
ATOM     42  H21 MOL d          31.125   8.684  23.272  0.00  0.00     0.066 H 
ATOM     43  H22 MOL d          29.911   7.925  24.355  0.00  0.00     0.066 H 
ENDBRANCH  39  40
ENDBRANCH  31  39
ENDBRANCH  25  29
ENDBRANCH   3  19
BRANCH   6  44
ATOM     44  C4  MOL d          23.018  12.243  24.787  0.00  0.00     0.005 C 
ATOM     45  H4  MOL d          23.869  11.845  25.359  0.00  0.00     0.058 H 
ATOM     46  H5  MOL d          22.118  12.243  25.421  0.00  0.00     0.058 H 
ATOM     47  H6  MOL d          23.241  13.271  24.466  0.00  0.00     0.058 H 
ENDBRANCH   6  44
BRANCH   5  48
ATOM     48  N3  MOL d          22.788   9.227  24.657  0.00  0.00    -0.234 N 
ATOM     49  H2  MOL d          23.693   8.799  24.900  0.00  0.00     0.174 HD
ATOM     50  H3  MOL d          21.966   9.071  25.258  0.00  0.00     0.174 HD
ENDBRANCH   5  48
TORSDOF 7
ENDMDL
MODEL 2
REMARK VINA RESULT:      -7.0      2.212      3.938
REMARK  7 active torsions:
REMARK  status: ('A' for Active; 'I' for Inactive)
REMARK    1  A    between atoms: C2_3  and  C5_9 
REMARK    2  A    between atoms: C11_15  and  C2_3 
REMARK    3  A    between atoms: C3_5  and  N3_7 
REMARK    4  A    between atoms: N2_6  and  C4_8 
REMARK    5  A    between atoms: C19_23  and  C15_19 
REMARK    6  A    between atoms: C22_26  and  O2_27 
REMARK    7  A    between atoms: O2_27  and  C23_28 
ROOT
ATOM      1  O1  MOL d          21.321   9.081  20.933  0.00  0.00    -0.269 OA
ATOM      2  C1  MOL d          20.780  10.169  20.894  0.00  0.00     0.276 A 
ATOM      3  C2  MOL d          21.463  11.560  21.180  0.00  0.00     0.183 A 
ATOM      4  N1  MOL d          20.364  12.513  20.810  0.00  0.00    -0.199 N 
ATOM      5  C3  MOL d          19.254  11.816  20.519  0.00  0.00     0.677 A 
ATOM      6  N2  MOL d          19.477  10.409  20.522  0.00  0.00    -0.153 N 
ATOM      7  H1  MOL d          20.448  13.539  20.783  0.00  0.00     0.179 HD
ENDROOT
BRANCH   3   8
ATOM      8  C5  MOL d          21.811  11.705  22.675  0.00  0.00    -0.015 A 
ATOM      9  C6  MOL d          22.032  12.962  23.231  0.00  0.00    -0.074 A 
ATOM     10  C7  MOL d          22.332  13.102  24.586  0.00  0.00    -0.082 A 
ATOM     11  H7  MOL d          21.971  13.843  22.603  0.00  0.00     0.084 H 
ATOM     12  C8  MOL d          22.408  11.994  25.397  0.00  0.00    -0.083 A 
ATOM     13  H8  MOL d          22.505  14.089  25.000  0.00  0.00     0.083 H 
ATOM     14  C9  MOL d          22.196  10.737  24.862  0.00  0.00    -0.082 A 
ATOM     15  H9  MOL d          22.634  12.106  26.451  0.00  0.00     0.083 H 
ATOM     16  C10 MOL d          21.906  10.591  23.508  0.00  0.00    -0.074 A 
ATOM     17  H10 MOL d          22.256   9.862  25.500  0.00  0.00     0.083 H 
ATOM     18  H11 MOL d          21.753   9.599  23.097  0.00  0.00     0.084 H 
ENDBRANCH   3   8
BRANCH   3  19
ATOM     19  C11 MOL d          22.665  11.702  20.228  0.00  0.00    -0.015 A 
ATOM     20  C12 MOL d          22.540  12.338  18.995  0.00  0.00    -0.074 A 
ATOM     21  C13 MOL d          23.655  12.586  18.209  0.00  0.00    -0.082 A 
ATOM     22  H12 MOL d          21.560  12.642  18.646  0.00  0.00     0.084 H 
ATOM     23  C14 MOL d          24.908  12.190  18.640  0.00  0.00    -0.072 A 
ATOM     24  H13 MOL d          23.545  13.092  17.257  0.00  0.00     0.083 H 
ATOM     25  C15 MOL d          25.061  11.521  19.859  0.00  0.00    -0.025 A 
ATOM     26  H14 MOL d          25.778  12.399  18.029  0.00  0.00     0.084 H 
ATOM     27  C16 MOL d          23.927  11.277  20.643  0.00  0.00    -0.063 A 
ATOM     28  H15 MOL d          24.031  10.750  21.585  0.00  0.00     0.085 H 
BRANCH  25  29
ATOM     29  C19 MOL d          26.399  11.081  20.337  0.00  0.00    -0.023 A 
ATOM     30  C18 MOL d          27.088  11.842  21.284  0.00  0.00    -0.040 A 
ATOM     31  C22 MOL d          28.413  11.563  21.599  0.00  0.00     0.069 A 
ATOM     32  H17 MOL d          26.581  12.662  21.779  0.00  0.00     0.089 H 
ATOM     33  C17 MOL d          29.073  10.504  20.985  0.00  0.00    -0.051 A 
ATOM     34  C21 MOL d          28.383   9.711  20.080  0.00  0.00    -0.080 A 
ATOM     35  H16 MOL d          30.113  10.301  21.211  0.00  0.00     0.087 H 
ATOM     36  C20 MOL d          27.059   9.994  19.759  0.00  0.00    -0.072 A 
ATOM     37  H19 MOL d          28.878   8.864  19.621  0.00  0.00     0.083 H 
ATOM     38  H18 MOL d          26.534   9.363  19.051  0.00  0.00     0.084 H 
BRANCH  31  39
ATOM     39  O2  MOL d          28.962  12.434  22.509  0.00  0.00    -0.356 OA
BRANCH  39  40
ATOM     40  C23 MOL d          28.075  13.102  23.420  0.00  0.00     0.010 C 
ATOM     41  H20 MOL d          27.252  12.425  23.693  0.00  0.00     0.066 H 
ATOM     42  H21 MOL d          27.665  14.002  22.939  0.00  0.00     0.066 H 
ATOM     43  H22 MOL d          28.629  13.390  24.326  0.00  0.00     0.066 H 
ENDBRANCH  39  40
ENDBRANCH  31  39
ENDBRANCH  25  29
ENDBRANCH   3  19
BRANCH   6  44
ATOM     44  C4  MOL d          18.515   9.352  20.187  0.00  0.00     0.005 C 
ATOM     45  H4  MOL d          18.226   9.440  19.129  0.00  0.00     0.058 H 
ATOM     46  H5  MOL d          17.621   9.456  20.820  0.00  0.00     0.058 H 
ATOM     47  H6  MOL d          18.976   8.368  20.360  0.00  0.00     0.058 H 
ENDBRANCH   6  44
BRANCH   5  48
ATOM     48  N3  MOL d          18.076  12.348  20.195  0.00  0.00    -0.234 N 
ATOM     49  H2  MOL d          18.027  13.314  19.841  0.00  0.00     0.174 HD
ATOM     50  H3  MOL d          17.214  11.793  20.298  0.00  0.00     0.174 HD
ENDBRANCH   5  48
TORSDOF 7
ENDMDL
