MODEL 1
REMARK VINA RESULT:      -7.0      0.000      0.000
REMARK  2 active torsions:
REMARK  status: ('A' for Active; 'I' for Inactive)
REMARK    1  A    between atoms: N_9  and  C11_13 
REMARK    2  A    between atoms: C9_11  and  S_10 
ROOT
ATOM      1  C1  MOL d         121.508 134.590  65.084  0.00  0.00     0.045 A 
ATOM      2  C2  MOL d         120.733 135.698  65.564  0.00  0.00    -0.056 A 
ATOM      3  C3  MOL d         119.340 135.746  65.390  0.00  0.00    -0.080 A 
ATOM      4  C4  MOL d         118.667 134.699  64.746  0.00  0.00    -0.072 A 
ATOM      5  C5  MOL d         119.361 133.567  64.250  0.00  0.00    -0.022 A 
ATOM      6  C6  MOL d         118.645 132.519  63.604  0.00  0.00    -0.072 A 
ATOM      7  C7  MOL d         119.301 131.387  63.103  0.00  0.00    -0.081 A 
ATOM      8  C8  MOL d         120.692 131.268  63.229  0.00  0.00    -0.058 A 
ATOM      9  N   MOL d         122.807 134.586  65.270  0.00  0.00    -0.355 N 
ATOM     10  C9  MOL d         121.463 132.275  63.859  0.00  0.00     0.094 A 
ATOM     11  C10 MOL d         120.823 133.473  64.403  0.00  0.00     0.025 A 
ATOM     12  H1  MOL d         121.233 136.516  66.070  0.00  0.00     0.086 H 
ATOM     13  H2  MOL d         118.781 136.599  65.757  0.00  0.00     0.083 H 
ATOM     14  H3  MOL d         117.592 134.756  64.624  0.00  0.00     0.084 H 
ATOM     15  H4  MOL d         117.569 132.598  63.499  0.00  0.00     0.084 H 
ATOM     16  H5  MOL d         118.733 130.603  62.617  0.00  0.00     0.083 H 
ATOM     17  H6  MOL d         121.188 130.388  62.836  0.00  0.00     0.086 H 
ATOM     18  H7  MOL d         123.198 133.758  65.744  0.00  0.00     0.166 HD
ENDROOT
BRANCH   9  19
ATOM     19  C11 MOL d         123.674 135.523  64.917  0.00  0.00     0.032 A 
ATOM     20  C12 MOL d         123.456 136.446  63.827  0.00  0.00    -0.057 A 
ATOM     21  C13 MOL d         124.442 137.426  63.497  0.00  0.00    -0.081 A 
ATOM     22  H8  MOL d         122.538 136.394  63.254  0.00  0.00     0.086 H 
ATOM     23  C14 MOL d         125.651 137.492  64.250  0.00  0.00    -0.083 A 
ATOM     24  H9  MOL d         124.272 138.115  62.679  0.00  0.00     0.083 H 
ATOM     25  C15 MOL d         125.870 136.587  65.325  0.00  0.00    -0.081 A 
ATOM     26  H10 MOL d         126.403 138.232  64.004  0.00  0.00     0.083 H 
ATOM     27  C16 MOL d         124.889 135.609  65.654  0.00  0.00    -0.057 A 
ATOM     28  H11 MOL d         126.789 136.642  65.897  0.00  0.00     0.083 H 
ATOM     29  H12 MOL d         125.069 134.924  66.474  0.00  0.00     0.086 H 
ENDBRANCH   9  19
BRANCH  10  30
ATOM     30  S   MOL d         123.219 131.981  63.927  0.00  0.00     0.138 S 
ATOM     31  O1  MOL d         123.910 133.021  63.198  0.00  0.00    -0.591 OA
ATOM     32  O2  MOL d         123.461 130.667  63.356  0.00  0.00    -0.591 OA
ATOM     33  O3  MOL d         123.702 131.972  65.498  0.00  0.00    -0.591 OA
ENDBRANCH  10  30
TORSDOF 2
ENDMDL
MODEL 2
REMARK VINA RESULT:      -6.9      2.744      4.194
REMARK  2 active torsions:
REMARK  status: ('A' for Active; 'I' for Inactive)
REMARK    1  A    between atoms: N_9  and  C11_13 
REMARK    2  A    between atoms: C9_11  and  S_10 
ROOT
ATOM      1  C1  MOL d         122.310 133.271  64.158  0.00  0.00     0.045 A 
ATOM      2  C2  MOL d         122.129 131.973  63.575  0.00  0.00    -0.056 A 
ATOM      3  C3  MOL d         120.853 131.402  63.442  0.00  0.00    -0.080 A 
ATOM      4  C4  MOL d         119.714 132.096  63.873  0.00  0.00    -0.072 A 
ATOM      5  C5  MOL d         119.809 133.386  64.454  0.00  0.00    -0.022 A 
ATOM      6  C6  MOL d         118.632 134.066  64.877  0.00  0.00    -0.072 A 
ATOM      7  C7  MOL d         118.692 135.340  65.454  0.00  0.00    -0.081 A 
ATOM      8  C8  MOL d         119.930 135.975  65.629  0.00  0.00    -0.058 A 
ATOM      9  N   MOL d         123.521 133.767  64.260  0.00  0.00    -0.355 N 
ATOM     10  C9  MOL d         121.137 135.353  65.231  0.00  0.00     0.094 A 
ATOM     11  C10 MOL d         121.127 134.025  64.618  0.00  0.00     0.025 A 
ATOM     12  H1  MOL d         122.996 131.421  63.229  0.00  0.00     0.086 H 
ATOM     13  H2  MOL d         120.747 130.416  63.004  0.00  0.00     0.083 H 
ATOM     14  H3  MOL d         118.739 131.637  63.760  0.00  0.00     0.084 H 
ATOM     15  H4  MOL d         117.668 133.586  64.749  0.00  0.00     0.084 H 
ATOM     16  H5  MOL d         117.781 135.836  65.766  0.00  0.00     0.083 H 
ATOM     17  H6  MOL d         119.962 136.961  66.078  0.00  0.00     0.086 H 
ATOM     18  H7  MOL d         123.669 134.698  63.843  0.00  0.00     0.166 HD
ENDROOT
BRANCH   9  19
ATOM     19  C11 MOL d         124.574 133.209  64.837  0.00  0.00     0.032 A 
ATOM     20  C12 MOL d         124.484 132.124  65.787  0.00  0.00    -0.057 A 
ATOM     21  C13 MOL d         125.664 131.577  66.379  0.00  0.00    -0.081 A 
ATOM     22  H8  MOL d         123.514 131.722  66.054  0.00  0.00     0.086 H 
ATOM     23  C14 MOL d         126.940 132.109  66.028  0.00  0.00    -0.083 A 
ATOM     24  H9  MOL d         125.590 130.763  67.090  0.00  0.00     0.083 H 
ATOM     25  C15 MOL d         127.034 133.176  65.093  0.00  0.00    -0.081 A 
ATOM     26  H10 MOL d         127.839 131.700  66.475  0.00  0.00     0.083 H 
ATOM     27  C16 MOL d         125.858 133.722  64.504  0.00  0.00    -0.057 A 
ATOM     28  H11 MOL d         128.006 133.575  64.827  0.00  0.00     0.083 H 
ATOM     29  H12 MOL d         125.943 134.537  63.794  0.00  0.00     0.086 H 
ENDBRANCH   9  19
BRANCH  10  30
ATOM     30  S   MOL d         122.627 136.285  65.534  0.00  0.00     0.138 S 
ATOM     31  O1  MOL d         123.469 135.559  66.458  0.00  0.00    -0.591 OA
ATOM     32  O2  MOL d         122.229 137.577  66.063  0.00  0.00    -0.591 OA
ATOM     33  O3  MOL d         123.415 136.516  64.110  0.00  0.00    -0.591 OA
ENDBRANCH  10  30
TORSDOF 2
ENDMDL
MODEL 3
REMARK VINA RESULT:      -6.5      0.667      1.616
REMARK  2 active torsions:
REMARK  status: ('A' for Active; 'I' for Inactive)
REMARK    1  A    between atoms: N_9  and  C11_13 
REMARK    2  A    between atoms: C9_11  and  S_10 
ROOT
ATOM      1  C1  MOL d         122.019 134.991  65.519  0.00  0.00     0.045 A 
ATOM      2  C2  MOL d         121.421 136.157  66.103  0.00  0.00    -0.056 A 
ATOM      3  C3  MOL d         120.035 136.377  66.041  0.00  0.00    -0.080 A 
ATOM      4  C4  MOL d         119.195 135.450  65.408  0.00  0.00    -0.072 A 
ATOM      5  C5  MOL d         119.710 134.271  64.812  0.00  0.00    -0.022 A 
ATOM      6  C6  MOL d         118.828 133.348  64.182  0.00  0.00    -0.072 A 
ATOM      7  C7  MOL d         119.305 132.174  63.584  0.00  0.00    -0.081 A 
ATOM      8  C8  MOL d         120.677 131.887  63.596  0.00  0.00    -0.058 A 
ATOM      9  N   MOL d         123.319 134.825  65.602  0.00  0.00    -0.355 N 
ATOM     10  C9  MOL d         121.606 132.763  64.206  0.00  0.00     0.094 A 
ATOM     11  C10 MOL d         121.157 133.999  64.848  0.00  0.00     0.025 A 
ATOM     12  H1  MOL d         122.051 136.884  66.603  0.00  0.00     0.086 H 
ATOM     13  H2  MOL d         119.611 137.269  66.485  0.00  0.00     0.083 H 
ATOM     14  H3  MOL d         118.129 135.639  65.373  0.00  0.00     0.084 H 
ATOM     15  H4  MOL d         117.765 133.558  64.164  0.00  0.00     0.084 H 
ATOM     16  H5  MOL d         118.612 131.487  63.112  0.00  0.00     0.083 H 
ATOM     17  H6  MOL d         121.032 130.975  63.129  0.00  0.00     0.086 H 
ATOM     18  H7  MOL d         123.640 133.935  66.009  0.00  0.00     0.166 HD
ENDROOT
BRANCH   9  19
ATOM     19  C11 MOL d         124.265 135.671  65.223  0.00  0.00     0.032 A 
ATOM     20  C12 MOL d         125.594 135.692  65.788  0.00  0.00    -0.057 A 
ATOM     21  C13 MOL d         126.561 136.641  65.335  0.00  0.00    -0.081 A 
ATOM     22  H8  MOL d         125.861 134.981  66.561  0.00  0.00     0.086 H 
ATOM     23  C14 MOL d         126.209 137.577  64.318  0.00  0.00    -0.083 A 
ATOM     24  H9  MOL d         127.556 136.651  65.762  0.00  0.00     0.083 H 
ATOM     25  C15 MOL d         124.902 137.561  63.759  0.00  0.00    -0.081 A 
ATOM     26  H10 MOL d         126.937 138.301  63.972  0.00  0.00     0.083 H 
ATOM     27  C16 MOL d         123.937 136.615  64.209  0.00  0.00    -0.057 A 
ATOM     28  H11 MOL d         124.638 138.272  62.984  0.00  0.00     0.083 H 
ATOM     29  H12 MOL d         122.943 136.615  63.776  0.00  0.00     0.086 H 
ENDBRANCH   9  19
BRANCH  10  30
ATOM     30  S   MOL d         123.315 132.261  64.124  0.00  0.00     0.138 S 
ATOM     31  O1  MOL d         123.838 132.115  65.464  0.00  0.00    -0.591 OA
ATOM     32  O2  MOL d         124.029 133.277  63.372  0.00  0.00    -0.591 OA
ATOM     33  O3  MOL d         123.418 130.834  63.316  0.00  0.00    -0.591 OA
ENDBRANCH  10  30
TORSDOF 2
ENDMDL
MODEL 4
REMARK VINA RESULT:      -5.6      1.600      5.367
REMARK  2 active torsions:
REMARK  status: ('A' for Active; 'I' for Inactive)
REMARK    1  A    between atoms: N_9  and  C11_13 
REMARK    2  A    between atoms: C9_11  and  S_10 
ROOT
ATOM      1  C1  MOL d         123.706 134.992  64.190  0.00  0.00     0.045 A 
ATOM      2  C2  MOL d         123.586 136.409  64.000  0.00  0.00    -0.056 A 
ATOM      3  C3  MOL d         124.666 137.273  64.244  0.00  0.00    -0.080 A 
ATOM      4  C4  MOL d         125.900 136.766  64.674  0.00  0.00    -0.072 A 
ATOM      5  C5  MOL d         126.099 135.378  64.879  0.00  0.00    -0.022 A 
ATOM      6  C6  MOL d         127.367 134.897  65.312  0.00  0.00    -0.072 A 
ATOM      7  C7  MOL d         127.597 133.531  65.523  0.00  0.00    -0.081 A 
ATOM      8  C8  MOL d         126.567 132.604  65.310  0.00  0.00    -0.058 A 
ATOM      9  N   MOL d         122.671 134.221  63.948  0.00  0.00    -0.355 N 
ATOM     10  C9  MOL d         125.283 133.018  64.880  0.00  0.00     0.094 A 
ATOM     11  C10 MOL d         124.995 134.432  64.641  0.00  0.00     0.025 A 
ATOM     12  H1  MOL d         122.642 136.821  63.662  0.00  0.00     0.086 H 
ATOM     13  H2  MOL d         124.544 138.340  64.099  0.00  0.00     0.083 H 
ATOM     14  H3  MOL d         126.720 137.452  64.855  0.00  0.00     0.084 H 
ATOM     15  H4  MOL d         128.173 135.602  65.481  0.00  0.00     0.084 H 
ATOM     16  H5  MOL d         128.572 133.191  65.852  0.00  0.00     0.083 H 
ATOM     17  H6  MOL d         126.757 131.551  65.479  0.00  0.00     0.086 H 
ATOM     18  H7  MOL d         122.825 133.445  63.288  0.00  0.00     0.166 HD
ENDROOT
BRANCH   9  19
ATOM     19  C11 MOL d         121.453 134.326  64.457  0.00  0.00     0.032 A 
ATOM     20  C12 MOL d         121.097 135.264  65.496  0.00  0.00    -0.057 A 
ATOM     21  C13 MOL d         119.763 135.314  66.004  0.00  0.00    -0.081 A 
ATOM     22  H8  MOL d         121.849 135.936  65.894  0.00  0.00     0.086 H 
ATOM     23  C14 MOL d         118.775 134.428  65.481  0.00  0.00    -0.083 A 
ATOM     24  H9  MOL d         119.503 136.021  66.783  0.00  0.00     0.083 H 
ATOM     25  C15 MOL d         119.120 133.504  64.458  0.00  0.00    -0.081 A 
ATOM     26  H10 MOL d         117.762 134.460  65.863  0.00  0.00     0.083 H 
ATOM     27  C16 MOL d         120.449 133.452  63.951  0.00  0.00    -0.057 A 
ATOM     28  H11 MOL d         118.366 132.834  64.060  0.00  0.00     0.083 H 
ATOM     29  H12 MOL d         120.700 132.741  63.172  0.00  0.00     0.086 H 
ENDBRANCH   9  19
BRANCH  10  30
ATOM     30  S   MOL d         124.079 131.720  64.669  0.00  0.00     0.138 S 
ATOM     31  O1  MOL d         122.997 131.909  65.609  0.00  0.00    -0.591 OA
ATOM     32  O2  MOL d         124.764 130.456  64.879  0.00  0.00    -0.591 OA
ATOM     33  O3  MOL d         123.508 131.762  63.129  0.00  0.00    -0.591 OA
ENDBRANCH  10  30
TORSDOF 2
ENDMDL
MODEL 5
REMARK VINA RESULT:      -5.3      2.835      6.302
REMARK  2 active torsions:
REMARK  status: ('A' for Active; 'I' for Inactive)
REMARK    1  A    between atoms: N_9  and  C11_13 
REMARK    2  A    between atoms: C9_11  and  S_10 
ROOT
ATOM      1  C1  MOL d         124.243 132.928  65.309  0.00  0.00     0.045 A 
ATOM      2  C2  MOL d         124.392 131.522  65.553  0.00  0.00    -0.056 A 
ATOM      3  C3  MOL d         125.660 130.922  65.619  0.00  0.00    -0.080 A 
ATOM      4  C4  MOL d         126.820 131.691  65.456  0.00  0.00    -0.072 A 
ATOM      5  C5  MOL d         126.757 133.087  65.217  0.00  0.00    -0.022 A 
ATOM      6  C6  MOL d         127.955 133.838  65.060  0.00  0.00    -0.072 A 
ATOM      7  C7  MOL d         127.926 135.218  64.824  0.00  0.00    -0.081 A 
ATOM      8  C8  MOL d         126.699 135.890  64.735  0.00  0.00    -0.058 A 
ATOM      9  N   MOL d         123.038 133.447  65.257  0.00  0.00    -0.355 N 
ATOM     10  C9  MOL d         125.471 135.202  64.881  0.00  0.00     0.094 A 
ATOM     11  C10 MOL d         125.449 133.761  65.134  0.00  0.00     0.025 A 
ATOM     12  H1  MOL d         123.507 130.910  65.689  0.00  0.00     0.086 H 
ATOM     13  H2  MOL d         125.742 129.856  65.799  0.00  0.00     0.083 H 
ATOM     14  H3  MOL d         127.789 131.207  65.512  0.00  0.00     0.084 H 
ATOM     15  H4  MOL d         128.911 133.332  65.126  0.00  0.00     0.084 H 
ATOM     16  H5  MOL d         128.853 135.768  64.709  0.00  0.00     0.083 H 
ATOM     17  H6  MOL d         126.691 136.958  64.551  0.00  0.00     0.086 H 
ATOM     18  H7  MOL d         122.857 134.243  65.885  0.00  0.00     0.166 HD
ENDROOT
BRANCH   9  19
ATOM     19  C11 MOL d         122.030 133.066  64.488  0.00  0.00     0.032 A 
ATOM     20  C12 MOL d         122.090 131.934  63.592  0.00  0.00    -0.057 A 
ATOM     21  C13 MOL d         120.964 131.587  62.784  0.00  0.00    -0.081 A 
ATOM     22  H8  MOL d         122.996 131.343  63.531  0.00  0.00     0.086 H 
ATOM     23  C14 MOL d         119.772 132.366  62.862  0.00  0.00    -0.083 A 
ATOM     24  H9  MOL d         121.015 130.737  62.114  0.00  0.00     0.083 H 
ATOM     25  C15 MOL d         119.708 133.480  63.743  0.00  0.00    -0.081 A 
ATOM     26  H10 MOL d         118.915 132.109  62.250  0.00  0.00     0.083 H 
ATOM     27  C16 MOL d         120.829 133.828  64.548  0.00  0.00    -0.057 A 
ATOM     28  H11 MOL d         118.799 134.069  63.802  0.00  0.00     0.083 H 
ATOM     29  H12 MOL d         120.768 134.681  65.214  0.00  0.00     0.086 H 
ENDBRANCH   9  19
BRANCH  10  30
ATOM     30  S   MOL d         124.000 136.196  64.728  0.00  0.00     0.138 S 
ATOM     31  O1  MOL d         123.232 135.746  63.588  0.00  0.00    -0.591 OA
ATOM     32  O2  MOL d         124.424 137.577  64.584  0.00  0.00    -0.591 OA
ATOM     33  O3  MOL d         123.111 136.055  66.102  0.00  0.00    -0.591 OA
ENDBRANCH  10  30
TORSDOF 2
ENDMDL
MODEL 6
REMARK VINA RESULT:      -5.0      1.658      5.222
REMARK  2 active torsions:
REMARK  status: ('A' for Active; 'I' for Inactive)
REMARK    1  A    between atoms: N_9  and  C11_13 
REMARK    2  A    between atoms: C9_11  and  S_10 
ROOT
ATOM      1  C1  MOL d         122.694 134.660  64.812  0.00  0.00     0.045 A 
ATOM      2  C2  MOL d         122.221 136.013  64.889  0.00  0.00    -0.056 A 
ATOM      3  C3  MOL d         122.837 136.956  65.729  0.00  0.00    -0.080 A 
ATOM      4  C4  MOL d         123.942 136.597  66.512  0.00  0.00    -0.072 A 
ATOM      5  C5  MOL d         124.473 135.282  66.487  0.00  0.00    -0.022 A 
ATOM      6  C6  MOL d         125.600 134.953  67.291  0.00  0.00    -0.072 A 
ATOM      7  C7  MOL d         126.147 133.663  67.289  0.00  0.00    -0.081 A 
ATOM      8  C8  MOL d         125.585 132.663  66.484  0.00  0.00    -0.058 A 
ATOM      9  N   MOL d         122.090 133.813  64.012  0.00  0.00    -0.355 N 
ATOM     10  C9  MOL d         124.463 132.925  65.661  0.00  0.00     0.094 A 
ATOM     11  C10 MOL d         123.858 134.257  65.625  0.00  0.00     0.025 A 
ATOM     12  H1  MOL d         121.371 136.313  64.288  0.00  0.00     0.086 H 
ATOM     13  H2  MOL d         122.454 137.968  65.772  0.00  0.00     0.083 H 
ATOM     14  H3  MOL d         124.402 137.341  67.152  0.00  0.00     0.084 H 
ATOM     15  H4  MOL d         126.045 135.716  67.919  0.00  0.00     0.084 H 
ATOM     16  H5  MOL d         127.007 133.439  67.909  0.00  0.00     0.083 H 
ATOM     17  H6  MOL d         126.017 131.669  66.492  0.00  0.00     0.086 H 
ATOM     18  H7  MOL d         122.687 133.327  63.327  0.00  0.00     0.166 HD
ENDROOT
BRANCH   9  19
ATOM     19  C11 MOL d         120.801 133.510  63.985  0.00  0.00     0.032 A 
ATOM     20  C12 MOL d         120.230 132.518  63.103  0.00  0.00    -0.057 A 
ATOM     21  C13 MOL d         118.826 132.252  63.123  0.00  0.00    -0.081 A 
ATOM     22  H8  MOL d         120.871 131.972  62.421  0.00  0.00     0.086 H 
ATOM     23  C14 MOL d         117.983 132.972  64.019  0.00  0.00    -0.083 A 
ATOM     24  H9  MOL d         118.405 131.506  62.460  0.00  0.00     0.083 H 
ATOM     25  C15 MOL d         118.541 133.948  64.890  0.00  0.00    -0.081 A 
ATOM     26  H10 MOL d         116.918 132.776  64.037  0.00  0.00     0.083 H 
ATOM     27  C16 MOL d         119.939 134.216  64.871  0.00  0.00    -0.057 A 
ATOM     28  H11 MOL d         117.898 134.492  65.572  0.00  0.00     0.083 H 
ATOM     29  H12 MOL d         120.351 134.964  65.538  0.00  0.00     0.086 H 
ENDBRANCH   9  19
BRANCH  10  30
ATOM     30  S   MOL d         123.859 131.544  64.709  0.00  0.00     0.138 S 
ATOM     31  O1  MOL d         122.537 131.183  65.171  0.00  0.00    -0.591 OA
ATOM     32  O2  MOL d         124.806 130.456  64.875  0.00  0.00    -0.591 OA
ATOM     33  O3  MOL d         123.810 131.966  63.122  0.00  0.00    -0.591 OA
ENDBRANCH  10  30
TORSDOF 2
ENDMDL
MODEL 7
REMARK VINA RESULT:      -4.9      1.851      5.788
REMARK  2 active torsions:
REMARK  status: ('A' for Active; 'I' for Inactive)
REMARK    1  A    between atoms: N_9  and  C11_13 
REMARK    2  A    between atoms: C9_11  and  S_10 
ROOT
ATOM      1  C1  MOL d         124.159 134.763  64.275  0.00  0.00     0.045 A 
ATOM      2  C2  MOL d         123.538 135.702  63.386  0.00  0.00    -0.056 A 
ATOM      3  C3  MOL d         123.787 137.081  63.490  0.00  0.00    -0.080 A 
ATOM      4  C4  MOL d         124.661 137.574  64.469  0.00  0.00    -0.072 A 
ATOM      5  C5  MOL d         125.317 136.709  65.380  0.00  0.00    -0.022 A 
ATOM      6  C6  MOL d         126.202 137.244  66.359  0.00  0.00    -0.072 A 
ATOM      7  C7  MOL d         126.865 136.416  67.274  0.00  0.00    -0.081 A 
ATOM      8  C8  MOL d         126.663 135.029  67.241  0.00  0.00    -0.058 A 
ATOM      9  N   MOL d         123.899 133.483  64.140  0.00  0.00    -0.355 N 
ATOM     10  C9  MOL d         125.796 134.435  66.293  0.00  0.00     0.094 A 
ATOM     11  C10 MOL d         125.084 135.256  65.314  0.00  0.00     0.025 A 
ATOM     12  H1  MOL d         122.864 135.341  62.618  0.00  0.00     0.086 H 
ATOM     13  H2  MOL d         123.300 137.768  62.809  0.00  0.00     0.083 H 
ATOM     14  H3  MOL d         124.839 138.642  64.530  0.00  0.00     0.084 H 
ATOM     15  H4  MOL d         126.367 138.314  66.397  0.00  0.00     0.084 H 
ATOM     16  H5  MOL d         127.535 136.848  68.008  0.00  0.00     0.083 H 
ATOM     17  H6  MOL d         127.182 134.400  67.955  0.00  0.00     0.086 H 
ATOM     18  H7  MOL d         124.714 132.861  64.032  0.00  0.00     0.166 HD
ENDROOT
BRANCH   9  19
ATOM     19  C11 MOL d         122.711 132.899  64.129  0.00  0.00     0.032 A 
ATOM     20  C12 MOL d         122.499 131.520  63.753  0.00  0.00    -0.057 A 
ATOM     21  C13 MOL d         121.185 130.960  63.755  0.00  0.00    -0.081 A 
ATOM     22  H8  MOL d         123.345 130.905  63.466  0.00  0.00     0.086 H 
ATOM     23  C14 MOL d         120.073 131.771  64.130  0.00  0.00    -0.083 A 
ATOM     24  H9  MOL d         121.034 129.925  63.472  0.00  0.00     0.083 H 
ATOM     25  C15 MOL d         120.276 133.128  64.502  0.00  0.00    -0.081 A 
ATOM     26  H10 MOL d         119.074 131.352  64.131  0.00  0.00     0.083 H 
ATOM     27  C16 MOL d         121.585 133.687  64.500  0.00  0.00    -0.057 A 
ATOM     28  H11 MOL d         119.429 133.740  64.789  0.00  0.00     0.083 H 
ATOM     29  H12 MOL d         121.726 134.724  64.783  0.00  0.00     0.086 H 
ENDBRANCH   9  19
BRANCH  10  30
ATOM     30  S   MOL d         125.637 132.662  66.391  0.00  0.00     0.138 S 
ATOM     31  O1  MOL d         126.014 132.074  65.125  0.00  0.00    -0.591 OA
ATOM     32  O2  MOL d         124.257 132.369  66.735  0.00  0.00    -0.591 OA
ATOM     33  O3  MOL d         126.611 132.101  67.590  0.00  0.00    -0.591 OA
ENDBRANCH  10  30
TORSDOF 2
ENDMDL
MODEL 8
REMARK VINA RESULT:      -4.9      1.754      2.430
REMARK  2 active torsions:
REMARK  status: ('A' for Active; 'I' for Inactive)
REMARK    1  A    between atoms: N_9  and  C11_13 
REMARK    2  A    between atoms: C9_11  and  S_10 
ROOT
ATOM      1  C1  MOL d         121.013 134.210  65.388  0.00  0.00     0.045 A 
ATOM      2  C2  MOL d         121.023 135.403  66.184  0.00  0.00    -0.056 A 
ATOM      3  C3  MOL d         119.961 136.322  66.139  0.00  0.00    -0.080 A 
ATOM      4  C4  MOL d         118.853 136.088  65.312  0.00  0.00    -0.072 A 
ATOM      5  C5  MOL d         118.766 134.930  64.500  0.00  0.00    -0.022 A 
ATOM      6  C6  MOL d         117.624 134.721  63.676  0.00  0.00    -0.072 A 
ATOM      7  C7  MOL d         117.508 133.587  62.862  0.00  0.00    -0.081 A 
ATOM      8  C8  MOL d         118.529 132.627  62.845  0.00  0.00    -0.058 A 
ATOM      9  N   MOL d         122.026 133.378  65.463  0.00  0.00    -0.355 N 
ATOM     10  C9  MOL d         119.691 132.775  63.640  0.00  0.00     0.094 A 
ATOM     11  C10 MOL d         119.857 133.939  64.510  0.00  0.00     0.025 A 
ATOM     12  H1  MOL d         121.867 135.600  66.835  0.00  0.00     0.086 H 
ATOM     13  H2  MOL d         119.999 137.218  66.747  0.00  0.00     0.083 H 
ATOM     14  H3  MOL d         118.045 136.809  65.294  0.00  0.00     0.084 H 
ATOM     15  H4  MOL d         116.827 135.456  63.679  0.00  0.00     0.084 H 
ATOM     16  H5  MOL d         116.627 133.452  62.245  0.00  0.00     0.083 H 
ATOM     17  H6  MOL d         118.427 131.755  62.209  0.00  0.00     0.086 H 
ATOM     18  H7  MOL d         121.796 132.399  65.687  0.00  0.00     0.166 HD
ENDROOT
BRANCH   9  19
ATOM     19  C11 MOL d         123.309 133.653  65.284  0.00  0.00     0.032 A 
ATOM     20  C12 MOL d         124.377 132.731  65.595  0.00  0.00    -0.057 A 
ATOM     21  C13 MOL d         125.740 133.101  65.385  0.00  0.00    -0.081 A 
ATOM     22  H8  MOL d         124.141 131.750  65.992  0.00  0.00     0.086 H 
ATOM     23  C14 MOL d         126.049 134.393  64.865  0.00  0.00    -0.083 A 
ATOM     24  H9  MOL d         126.536 132.405  65.620  0.00  0.00     0.083 H 
ATOM     25  C15 MOL d         125.002 135.303  64.556  0.00  0.00    -0.081 A 
ATOM     26  H10 MOL d         127.081 134.680  64.705  0.00  0.00     0.083 H 
ATOM     27  C16 MOL d         123.642 134.936  64.766  0.00  0.00    -0.057 A 
ATOM     28  H11 MOL d         125.240 136.283  64.158  0.00  0.00     0.083 H 
ATOM     29  H12 MOL d         122.853 135.641  64.528  0.00  0.00     0.086 H 
ENDBRANCH   9  19
BRANCH  10  30
ATOM     30  S   MOL d         120.903 131.475  63.493  0.00  0.00     0.138 S 
ATOM     31  O1  MOL d         122.130 132.020  62.957  0.00  0.00    -0.591 OA
ATOM     32  O2  MOL d         120.339 130.454  62.629  0.00  0.00    -0.591 OA
ATOM     33  O3  MOL d         121.172 130.823  64.977  0.00  0.00    -0.591 OA
ENDBRANCH  10  30
TORSDOF 2
ENDMDL
MODEL 9
REMARK VINA RESULT:      -4.7      2.667      5.769
REMARK  2 active torsions:
REMARK  status: ('A' for Active; 'I' for Inactive)
REMARK    1  A    between atoms: N_9  and  C11_13 
REMARK    2  A    between atoms: C9_11  and  S_10 
ROOT
ATOM      1  C1  MOL d         122.006 133.210  64.910  0.00  0.00     0.045 A 
ATOM      2  C2  MOL d         121.794 131.864  64.459  0.00  0.00    -0.056 A 
ATOM      3  C3  MOL d         122.865 131.058  64.038  0.00  0.00    -0.080 A 
ATOM      4  C4  MOL d         124.176 131.550  64.057  0.00  0.00    -0.072 A 
ATOM      5  C5  MOL d         124.468 132.866  64.494  0.00  0.00    -0.022 A 
ATOM      6  C6  MOL d         125.813 133.333  64.504  0.00  0.00    -0.072 A 
ATOM      7  C7  MOL d         126.134 134.628  64.930  0.00  0.00    -0.081 A 
ATOM      8  C8  MOL d         125.121 135.498  65.357  0.00  0.00    -0.058 A 
ATOM      9  N   MOL d         120.977 133.928  65.296  0.00  0.00    -0.355 N 
ATOM     10  C9  MOL d         123.764 135.097  65.371  0.00  0.00     0.094 A 
ATOM     11  C10 MOL d         123.378 133.752  64.940  0.00  0.00     0.025 A 
ATOM     12  H1  MOL d         120.788 131.462  64.443  0.00  0.00     0.086 H 
ATOM     13  H2  MOL d         122.674 130.047  63.697  0.00  0.00     0.083 H 
ATOM     14  H3  MOL d         124.987 130.909  63.729  0.00  0.00     0.084 H 
ATOM     15  H4  MOL d         126.606 132.671  64.175  0.00  0.00     0.084 H 
ATOM     16  H5  MOL d         127.166 134.958  64.929  0.00  0.00     0.083 H 
ATOM     17  H6  MOL d         125.383 136.498  65.683  0.00  0.00     0.086 H 
ATOM     18  H7  MOL d         121.036 134.341  66.238  0.00  0.00     0.166 HD
ENDROOT
BRANCH   9  19
ATOM     19  C11 MOL d         119.871 134.183  64.612  0.00  0.00     0.032 A 
ATOM     20  C12 MOL d         118.877 135.146  65.028  0.00  0.00    -0.057 A 
ATOM     21  C13 MOL d         117.703 135.361  64.244  0.00  0.00    -0.081 A 
ATOM     22  H8  MOL d         119.024 135.710  65.942  0.00  0.00     0.086 H 
ATOM     23  C14 MOL d         117.509 134.618  63.043  0.00  0.00    -0.083 A 
ATOM     24  H9  MOL d         116.962 136.086  64.561  0.00  0.00     0.083 H 
ATOM     25  C15 MOL d         118.485 133.669  62.629  0.00  0.00    -0.081 A 
ATOM     26  H10 MOL d         116.620 134.775  62.445  0.00  0.00     0.083 H 
ATOM     27  C16 MOL d         119.656 133.453  63.410  0.00  0.00    -0.057 A 
ATOM     28  H11 MOL d         118.336 133.107  61.714  0.00  0.00     0.083 H 
ATOM     29  H12 MOL d         120.390 132.725  63.085  0.00  0.00     0.086 H 
ENDBRANCH   9  19
BRANCH  10  30
ATOM     30  S   MOL d         122.596 136.323  65.928  0.00  0.00     0.138 S 
ATOM     31  O1  MOL d         121.730 136.696  64.832  0.00  0.00    -0.591 OA
ATOM     32  O2  MOL d         123.360 137.454  66.424  0.00  0.00    -0.591 OA
ATOM     33  O3  MOL d         121.711 135.700  67.164  0.00  0.00    -0.591 OA
ENDBRANCH  10  30
TORSDOF 2
ENDMDL
MODEL 10
REMARK VINA RESULT:      -4.5      2.820      4.001
REMARK  2 active torsions:
REMARK  status: ('A' for Active; 'I' for Inactive)
REMARK    1  A    between atoms: N_9  and  C11_13 
REMARK    2  A    between atoms: C9_11  and  S_10 
ROOT
ATOM      1  C1  MOL d         123.338 134.265  64.683  0.00  0.00     0.045 A 
ATOM      2  C2  MOL d         124.477 133.591  64.127  0.00  0.00    -0.056 A 
ATOM      3  C3  MOL d         124.345 132.359  63.464  0.00  0.00    -0.080 A 
ATOM      4  C4  MOL d         123.088 131.758  63.323  0.00  0.00    -0.072 A 
ATOM      5  C5  MOL d         121.914 132.364  63.840  0.00  0.00    -0.022 A 
ATOM      6  C6  MOL d         120.652 131.728  63.674  0.00  0.00    -0.072 A 
ATOM      7  C7  MOL d         119.475 132.300  64.172  0.00  0.00    -0.081 A 
ATOM      8  C8  MOL d         119.522 133.524  64.853  0.00  0.00    -0.058 A 
ATOM      9  N   MOL d         123.506 135.415  65.293  0.00  0.00    -0.355 N 
ATOM     10  C9  MOL d         120.746 134.208  65.053  0.00  0.00     0.094 A 
ATOM     11  C10 MOL d         122.002 133.653  64.546  0.00  0.00     0.025 A 
ATOM     12  H1  MOL d         125.458 134.042  64.220  0.00  0.00     0.086 H 
ATOM     13  H2  MOL d         125.224 131.871  63.060  0.00  0.00     0.083 H 
ATOM     14  H3  MOL d         123.010 130.808  62.807  0.00  0.00     0.084 H 
ATOM     15  H4  MOL d         120.600 130.780  63.150  0.00  0.00     0.084 H 
ATOM     16  H5  MOL d         118.526 131.795  64.031  0.00  0.00     0.083 H 
ATOM     17  H6  MOL d         118.604 133.955  65.235  0.00  0.00     0.086 H 
ATOM     18  H7  MOL d         122.932 136.200  64.952  0.00  0.00     0.166 HD
ENDROOT
BRANCH   9  19
ATOM     19  C11 MOL d         124.329 135.683  66.295  0.00  0.00     0.032 A 
ATOM     20  C12 MOL d         125.430 134.828  66.677  0.00  0.00    -0.057 A 
ATOM     21  C13 MOL d         126.271 135.177  67.778  0.00  0.00    -0.081 A 
ATOM     22  H8  MOL d         125.620 133.916  66.124  0.00  0.00     0.086 H 
ATOM     23  C14 MOL d         126.020 136.376  68.507  0.00  0.00    -0.083 A 
ATOM     24  H9  MOL d         127.096 134.532  68.059  0.00  0.00     0.083 H 
ATOM     25  C15 MOL d         124.938 137.220  68.135  0.00  0.00    -0.081 A 
ATOM     26  H10 MOL d         126.653 136.644  69.344  0.00  0.00     0.083 H 
ATOM     27  C16 MOL d         124.098 136.875  67.038  0.00  0.00    -0.057 A 
ATOM     28  H11 MOL d         124.751 138.133  68.689  0.00  0.00     0.083 H 
ATOM     29  H12 MOL d         123.276 137.526  66.766  0.00  0.00     0.086 H 
ENDBRANCH   9  19
BRANCH  10  30
ATOM     30  S   MOL d         120.639 135.745  65.950  0.00  0.00     0.138 S 
ATOM     31  O1  MOL d         121.316 136.784  65.205  0.00  0.00    -0.591 OA
ATOM     32  O2  MOL d         121.245 135.529  67.252  0.00  0.00    -0.591 OA
ATOM     33  O3  MOL d         119.057 136.135  66.160  0.00  0.00    -0.591 OA
ENDBRANCH  10  30
TORSDOF 2
ENDMDL
