REMARK  4 active torsions:
REMARK  status: ('A' for Active; 'I' for Inactive)
REMARK    1  A    between atoms: C1_7  and  P1_1 
REMARK    2  A    between atoms: N1_10  and  C1_7 
REMARK    3  A    between atoms: C2_8  and  C3_9 
REMARK    4  A    between atoms: C2_8  and  N1_10 
ROOT
ATOM      1  N1  GPJ d          60.229   8.530  29.561  0.00  0.00    -0.053 N 
ATOM      2  H5  GPJ d          59.801   9.443  29.552  0.00  0.00     0.278 HD
ATOM      3  H6  GPJ d          61.231   8.628  29.510  0.00  0.00     0.278 HD
ENDROOT
BRANCH   1   4
ATOM      4  C1  GPJ d          59.809   7.855  28.338  0.00  0.00     0.183 C 
ATOM      5  H1  GPJ d          60.287   6.865  28.293  0.00  0.00     0.097 H 
ATOM      6  H2  GPJ d          58.716   7.734  28.353  0.00  0.00     0.097 H 
BRANCH   4   7
ATOM      7  P1  GPJ d          60.255   8.759  26.936  0.00  0.00     0.285 P 
ATOM      8  O1  GPJ d          60.301  10.205  27.300  0.00  0.00    -0.638 OA
ATOM      9  O2  GPJ d          59.185   8.418  25.960  0.00  0.00    -0.638 OA
ATOM     10  O3  GPJ d          61.593   8.275  26.478  0.00  0.00    -0.638 OA
ENDBRANCH   4   7
ENDBRANCH   1   4
BRANCH   1  11
ATOM     11  C2  GPJ d          59.927   7.932  30.873  0.00  0.00     0.161 C 
ATOM     12  H3  GPJ d          58.839   7.804  30.968  0.00  0.00     0.092 H 
ATOM     13  H4  GPJ d          60.419   6.951  30.943  0.00  0.00     0.092 H 
BRANCH  11  14
ATOM     14  C3  GPJ d          60.422   8.816  31.998  0.00  0.00     0.199 C 
ATOM     15  O4  GPJ d          60.972   9.935  31.715  0.00  0.00    -0.647 OA
ATOM     16  O5  GPJ d          60.255   8.403  33.135  0.00  0.00    -0.647 OA
ENDBRANCH  11  14
ENDBRANCH   1  11
TORSDOF 4
