MODEL 1
REMARK VINA RESULT:      -5.8      0.000      0.000
REMARK  4 active torsions:
REMARK  status: ('A' for Active; 'I' for Inactive)
REMARK    1  A    between atoms: C1_7  and  P1_1 
REMARK    2  A    between atoms: N1_10  and  C1_7 
REMARK    3  A    between atoms: C2_8  and  C3_9 
REMARK    4  A    between atoms: C2_8  and  N1_10 
ROOT
ATOM      1  N1  GPJ d          60.118   8.119  29.450  0.00  0.00    -0.053 N 
ATOM      2  H5  GPJ d          61.021   8.569  29.470  0.00  0.00     0.278 HD
ATOM      3  H6  GPJ d          60.242   7.119  29.442  0.00  0.00     0.278 HD
ENDROOT
BRANCH   1   4
ATOM      4  C1  GPJ d          59.498   8.477  28.179  0.00  0.00     0.183 C 
ATOM      5  H1  GPJ d          59.094   7.567  27.709  0.00  0.00     0.097 H 
ATOM      6  H2  GPJ d          58.679   9.186  28.368  0.00  0.00     0.097 H 
BRANCH   4   7
ATOM      7  P1  GPJ d          60.637   9.206  27.106  0.00  0.00     0.285 P 
ATOM      8  O1  GPJ d          61.615   9.990  27.916  0.00  0.00    -0.638 OA
ATOM      9  O2  GPJ d          59.780  10.043  26.223  0.00  0.00    -0.638 OA
ATOM     10  O3  GPJ d          61.318   8.117  26.342  0.00  0.00    -0.638 OA
ENDBRANCH   4   7
ENDBRANCH   1   4
BRANCH   1  11
ATOM     11  C2  GPJ d          59.447   8.455  30.718  0.00  0.00     0.161 C 
ATOM     12  H3  GPJ d          58.698   9.238  30.532  0.00  0.00     0.092 H 
ATOM     13  H4  GPJ d          58.949   7.556  31.110  0.00  0.00     0.092 H 
BRANCH  11  14
ATOM     14  C3  GPJ d          60.444   8.955  31.742  0.00  0.00     0.199 C 
ATOM     15  O4  GPJ d          61.129  10.003  31.484  0.00  0.00    -0.647 OA
ATOM     16  O5  GPJ d          60.529   8.319  32.781  0.00  0.00    -0.647 OA
ENDBRANCH  11  14
ENDBRANCH   1  11
TORSDOF 4
ENDMDL
MODEL 2
REMARK VINA RESULT:      -4.1      1.040      1.456
REMARK  4 active torsions:
REMARK  status: ('A' for Active; 'I' for Inactive)
REMARK    1  A    between atoms: C1_7  and  P1_1 
REMARK    2  A    between atoms: N1_10  and  C1_7 
REMARK    3  A    between atoms: C2_8  and  C3_9 
REMARK    4  A    between atoms: C2_8  and  N1_10 
ROOT
ATOM      1  N1  GPJ d          60.627   8.786  29.382  0.00  0.00    -0.053 N 
ATOM      2  H5  GPJ d          60.297   9.736  29.304  0.00  0.00     0.278 HD
ATOM      3  H6  GPJ d          61.626   8.787  29.512  0.00  0.00     0.278 HD
ENDROOT
BRANCH   1   4
ATOM      4  C1  GPJ d          60.370   8.144  28.098  0.00  0.00     0.183 C 
ATOM      5  H1  GPJ d          61.276   7.608  27.778  0.00  0.00     0.097 H 
ATOM      6  H2  GPJ d          59.542   7.429  28.214  0.00  0.00     0.097 H 
BRANCH   4   7
ATOM      7  P1  GPJ d          59.945   9.302  26.889  0.00  0.00     0.285 P 
ATOM      8  O1  GPJ d          61.160  10.097  26.547  0.00  0.00    -0.638 OA
ATOM      9  O2  GPJ d          58.872  10.097  27.546  0.00  0.00    -0.638 OA
ATOM     10  O3  GPJ d          59.431   8.561  25.697  0.00  0.00    -0.638 OA
ENDBRANCH   4   7
ENDBRANCH   1   4
BRANCH   1  11
ATOM     11  C2  GPJ d          60.038   8.232  30.613  0.00  0.00     0.161 C 
ATOM     12  H3  GPJ d          58.943   8.307  30.554  0.00  0.00     0.092 H 
ATOM     13  H4  GPJ d          60.329   7.176  30.707  0.00  0.00     0.092 H 
BRANCH  11  14
ATOM     14  C3  GPJ d          60.521   8.989  31.833  0.00  0.00     0.199 C 
ATOM     15  O4  GPJ d          60.256   8.530  32.996  0.00  0.00    -0.647 OA
ATOM     16  O5  GPJ d          61.158  10.011  31.628  0.00  0.00    -0.647 OA
ENDBRANCH  11  14
ENDBRANCH   1  11
TORSDOF 4
ENDMDL
MODEL 3
REMARK VINA RESULT:      -3.0      2.026      4.388
REMARK  4 active torsions:
REMARK  status: ('A' for Active; 'I' for Inactive)
REMARK    1  A    between atoms: C1_7  and  P1_1 
REMARK    2  A    between atoms: N1_10  and  C1_7 
REMARK    3  A    between atoms: C2_8  and  C3_9 
REMARK    4  A    between atoms: C2_8  and  N1_10 
ROOT
ATOM      1  N1  GPJ d          58.824   8.408  27.967  0.00  0.00    -0.053 N 
ATOM      2  H5  GPJ d          57.927   8.727  28.297  0.00  0.00     0.278 HD
ATOM      3  H6  GPJ d          58.691   7.748  27.217  0.00  0.00     0.278 HD
ENDROOT
BRANCH   1   4
ATOM      4  C1  GPJ d          59.444   7.678  29.066  0.00  0.00     0.183 C 
ATOM      5  H1  GPJ d          58.783   6.851  29.365  0.00  0.00     0.097 H 
ATOM      6  H2  GPJ d          60.409   7.272  28.728  0.00  0.00     0.097 H 
BRANCH   4   7
ATOM      7  P1  GPJ d          59.714   8.703  30.430  0.00  0.00     0.285 P 
ATOM      8  O1  GPJ d          61.080   9.292  30.317  0.00  0.00    -0.638 OA
ATOM      9  O2  GPJ d          59.550   7.779  31.584  0.00  0.00    -0.638 OA
ATOM     10  O3  GPJ d          58.665   9.769  30.423  0.00  0.00    -0.638 OA
ENDBRANCH   4   7
ENDBRANCH   1   4
BRANCH   1  11
ATOM     11  C2  GPJ d          59.503   9.579  27.385  0.00  0.00     0.161 C 
ATOM     12  H3  GPJ d          58.879   9.995  26.581  0.00  0.00     0.092 H 
ATOM     13  H4  GPJ d          59.646  10.338  28.168  0.00  0.00     0.092 H 
BRANCH  11  14
ATOM     14  C3  GPJ d          60.853   9.195  26.816  0.00  0.00     0.199 C 
ATOM     15  O4  GPJ d          61.217   7.970  26.849  0.00  0.00    -0.647 OA
ATOM     16  O5  GPJ d          61.525  10.097  26.340  0.00  0.00    -0.647 OA
ENDBRANCH  11  14
ENDBRANCH   1  11
TORSDOF 4
ENDMDL
