MODEL 1
REMARK VINA RESULT:      -4.2      0.000      0.000
REMARK  13 active torsions:
REMARK  status: ('A' for Active; 'I' for Inactive)
REMARK    1  A    between atoms: N1_1  and  C2_2 
REMARK    2  A    between atoms: C2_2  and  C3_3 
REMARK    3  A    between atoms: C3_3  and  C4_4 
REMARK    4  A    between atoms: C4_4  and  N5_5 
REMARK    5  A    between atoms: N5_5  and  C6_6 
REMARK    6  A    between atoms: C6_6  and  C7_7 
REMARK    7  A    between atoms: C7_7  and  C8_8 
REMARK    8  A    between atoms: C8_8  and  C9_9 
REMARK    9  A    between atoms: C9_9  and  N10_10 
REMARK   10  A    between atoms: N10_10  and  C11_11 
REMARK   11  A    between atoms: C11_11  and  C12_12 
REMARK   12  A    between atoms: C12_12  and  C13_13 
REMARK   13  A    between atoms: C13_13  and  N14_14 
ROOT
ATOM      1  C7  SPM d          -5.479   5.480  14.735  0.00  0.00    -0.041 C 
ATOM      2  H14 SPM d          -4.400   5.544  14.536  0.00  0.00     0.035 H 
ATOM      3  H15 SPM d          -5.699   5.935  15.712  0.00  0.00     0.035 H 
ENDROOT
BRANCH   1   4
ATOM      4  C6  SPM d          -5.951   4.042  14.692  0.00  0.00     0.082 C 
ATOM      5  H12 SPM d          -6.773   3.930  15.416  0.00  0.00     0.075 H 
ATOM      6  H13 SPM d          -6.325   3.835  13.679  0.00  0.00     0.075 H 
BRANCH   4   7
ATOM      7  N5  SPM d          -4.933   3.055  15.008  0.00  0.00    -0.075 N 
ATOM      8  H10 SPM d          -4.904   2.398  14.244  0.00  0.00     0.277 HD
ATOM      9  H11 SPM d          -4.052   3.540  15.067  0.00  0.00     0.277 HD
BRANCH   7  10
ATOM     10  C4  SPM d          -5.087   2.293  16.225  0.00  0.00     0.083 C 
ATOM     11  H8  SPM d          -4.990   1.226  15.975  0.00  0.00     0.075 H 
ATOM     12  H9  SPM d          -4.280   2.582  16.914  0.00  0.00     0.075 H 
BRANCH  10  13
ATOM     13  C3  SPM d          -6.424   2.495  16.945  0.00  0.00    -0.020 C 
ATOM     14  H6  SPM d          -6.249   3.062  17.871  0.00  0.00     0.037 H 
ATOM     15  H7  SPM d          -7.099   3.065  16.289  0.00  0.00     0.037 H 
BRANCH  13  16
ATOM     16  C2  SPM d          -7.078   1.176  17.294  0.00  0.00     0.081 C 
ATOM     17  H4  SPM d          -7.813   1.324  18.099  0.00  0.00     0.075 H 
ATOM     18  H5  SPM d          -7.582   0.763  16.409  0.00  0.00     0.075 H 
BRANCH  16  19
ATOM     19  N1  SPM d          -6.044   0.273  17.736  0.00  0.00    -0.079 N 
ATOM     20  H1  SPM d          -5.225   0.392  17.160  0.00  0.00     0.274 HD
ATOM     21  H2  SPM d          -6.372  -0.677  17.661  0.00  0.00     0.274 HD
ATOM     22  H3  SPM d          -5.811   0.473  18.696  0.00  0.00     0.274 HD
ENDBRANCH  16  19
ENDBRANCH  13  16
ENDBRANCH  10  13
ENDBRANCH   7  10
ENDBRANCH   4   7
ENDBRANCH   1   4
BRANCH   1  23
ATOM     23  C8  SPM d          -6.273   6.157  13.632  0.00  0.00    -0.041 C 
ATOM     24  H16 SPM d          -6.833   7.011  14.040  0.00  0.00     0.035 H 
ATOM     25  H17 SPM d          -6.974   5.443  13.176  0.00  0.00     0.035 H 
BRANCH  23  26
ATOM     26  C9  SPM d          -5.279   6.631  12.608  0.00  0.00     0.082 C 
ATOM     27  H18 SPM d          -5.279   7.731  12.583  0.00  0.00     0.075 H 
ATOM     28  H19 SPM d          -5.563   6.242  11.619  0.00  0.00     0.075 H 
BRANCH  26  29
ATOM     29  N10 SPM d          -3.956   6.161  12.942  0.00  0.00    -0.075 N 
ATOM     30  H20 SPM d          -4.061   5.624  13.789  0.00  0.00     0.277 HD
ATOM     31  H21 SPM d          -3.412   6.988  13.134  0.00  0.00     0.277 HD
BRANCH  29  32
ATOM     32  C11 SPM d          -3.151   5.359  12.070  0.00  0.00     0.083 C 
ATOM     33  H22 SPM d          -2.586   6.013  11.391  0.00  0.00     0.075 H 
ATOM     34  H23 SPM d          -3.802   4.694  11.483  0.00  0.00     0.075 H 
BRANCH  32  35
ATOM     35  C12 SPM d          -2.184   4.525  12.884  0.00  0.00    -0.020 C 
ATOM     36  H24 SPM d          -1.262   4.383  12.301  0.00  0.00     0.037 H 
ATOM     37  H25 SPM d          -2.645   3.546  13.085  0.00  0.00     0.037 H 
BRANCH  35  38
ATOM     38  C13 SPM d          -1.825   5.180  14.216  0.00  0.00     0.081 C 
ATOM     39  H26 SPM d          -2.662   5.817  14.539  0.00  0.00     0.075 H 
ATOM     40  H27 SPM d          -0.925   5.799  14.080  0.00  0.00     0.075 H 
BRANCH  38  41
ATOM     41  N14 SPM d          -1.567   4.186  15.236  0.00  0.00    -0.079 N 
ATOM     42  H28 SPM d          -1.264   4.644  16.082  0.00  0.00     0.274 HD
ATOM     43  H29 SPM d          -0.846   3.557  14.919  0.00  0.00     0.274 HD
ATOM     44  H30 SPM d          -2.410   3.664  15.419  0.00  0.00     0.274 HD
ENDBRANCH  38  41
ENDBRANCH  35  38
ENDBRANCH  32  35
ENDBRANCH  29  32
ENDBRANCH  26  29
ENDBRANCH  23  26
ENDBRANCH   1  23
TORSDOF 13
ENDMDL
MODEL 2
REMARK VINA RESULT:      -4.0      0.533      5.342
REMARK  13 active torsions:
REMARK  status: ('A' for Active; 'I' for Inactive)
REMARK    1  A    between atoms: N1_1  and  C2_2 
REMARK    2  A    between atoms: C2_2  and  C3_3 
REMARK    3  A    between atoms: C3_3  and  C4_4 
REMARK    4  A    between atoms: C4_4  and  N5_5 
REMARK    5  A    between atoms: N5_5  and  C6_6 
REMARK    6  A    between atoms: C6_6  and  C7_7 
REMARK    7  A    between atoms: C7_7  and  C8_8 
REMARK    8  A    between atoms: C8_8  and  C9_9 
REMARK    9  A    between atoms: C9_9  and  N10_10 
REMARK   10  A    between atoms: N10_10  and  C11_11 
REMARK   11  A    between atoms: C11_11  and  C12_12 
REMARK   12  A    between atoms: C12_12  and  C13_13 
REMARK   13  A    between atoms: C13_13  and  N14_14 
ROOT
ATOM      1  C7  SPM d          -5.899   6.166  13.677  0.00  0.00    -0.041 C 
ATOM      2  H14 SPM d          -6.921   5.946  13.335  0.00  0.00     0.035 H 
ATOM      3  H15 SPM d          -5.814   7.237  13.911  0.00  0.00     0.035 H 
ENDROOT
BRANCH   1   4
ATOM      4  C6  SPM d          -4.882   5.760  12.631  0.00  0.00     0.082 C 
ATOM      5  H12 SPM d          -4.404   4.827  12.963  0.00  0.00     0.075 H 
ATOM      6  H13 SPM d          -5.416   5.582  11.686  0.00  0.00     0.075 H 
BRANCH   4   7
ATOM      7  N5  SPM d          -3.838   6.739  12.382  0.00  0.00    -0.075 N 
ATOM      8  H10 SPM d          -4.045   7.182  11.500  0.00  0.00     0.277 HD
ATOM      9  H11 SPM d          -3.885   7.424  13.120  0.00  0.00     0.277 HD
BRANCH   7  10
ATOM     10  C4  SPM d          -2.474   6.268  12.318  0.00  0.00     0.083 C 
ATOM     11  H8  SPM d          -2.243   6.030  11.269  0.00  0.00     0.075 H 
ATOM     12  H9  SPM d          -1.816   7.079  12.663  0.00  0.00     0.075 H 
BRANCH  10  13
ATOM     13  C3  SPM d          -2.183   5.025  13.164  0.00  0.00    -0.020 C 
ATOM     14  H6  SPM d          -3.071   4.376  13.161  0.00  0.00     0.037 H 
ATOM     15  H7  SPM d          -1.332   4.484  12.723  0.00  0.00     0.037 H 
BRANCH  13  16
ATOM     16  C2  SPM d          -1.845   5.387  14.594  0.00  0.00     0.081 C 
ATOM     17  H4  SPM d          -0.988   6.077  14.613  0.00  0.00     0.075 H 
ATOM     18  H5  SPM d          -2.712   5.867  15.072  0.00  0.00     0.075 H 
BRANCH  16  19
ATOM     19  N1  SPM d          -1.511   4.170  15.292  0.00  0.00    -0.079 N 
ATOM     20  H1  SPM d          -2.341   3.609  15.405  0.00  0.00     0.274 HD
ATOM     21  H2  SPM d          -1.131   4.396  16.197  0.00  0.00     0.274 HD
ATOM     22  H3  SPM d          -0.827   3.655  14.760  0.00  0.00     0.274 HD
ENDBRANCH  16  19
ENDBRANCH  13  16
ENDBRANCH  10  13
ENDBRANCH   7  10
ENDBRANCH   4   7
ENDBRANCH   1   4
BRANCH   1  23
ATOM     23  C8  SPM d          -5.539   5.319  14.884  0.00  0.00    -0.041 C 
ATOM     24  H16 SPM d          -6.163   5.603  15.744  0.00  0.00     0.035 H 
ATOM     25  H17 SPM d          -4.478   5.455  15.140  0.00  0.00     0.035 H 
BRANCH  23  26
ATOM     26  C9  SPM d          -5.800   3.887  14.505  0.00  0.00     0.082 C 
ATOM     27  H18 SPM d          -5.684   3.772  13.417  0.00  0.00     0.075 H 
ATOM     28  H19 SPM d          -6.827   3.616  14.795  0.00  0.00     0.075 H 
BRANCH  26  29
ATOM     29  N10 SPM d          -4.869   3.015  15.180  0.00  0.00    -0.075 N 
ATOM     30  H20 SPM d          -4.042   3.569  15.340  0.00  0.00     0.277 HD
ATOM     31  H21 SPM d          -4.659   2.279  14.524  0.00  0.00     0.277 HD
BRANCH  29  32
ATOM     32  C11 SPM d          -5.147   2.361  16.423  0.00  0.00     0.083 C 
ATOM     33  H22 SPM d          -4.631   2.891  17.237  0.00  0.00     0.075 H 
ATOM     34  H23 SPM d          -4.790   1.321  16.377  0.00  0.00     0.075 H 
BRANCH  32  35
ATOM     35  C12 SPM d          -6.639   2.368  16.686  0.00  0.00    -0.020 C 
ATOM     36  H24 SPM d          -7.168   2.395  15.722  0.00  0.00     0.037 H 
ATOM     37  H25 SPM d          -6.891   3.268  17.267  0.00  0.00     0.037 H 
BRANCH  35  38
ATOM     38  C13 SPM d          -7.101   1.138  17.464  0.00  0.00     0.081 C 
ATOM     39  H26 SPM d          -7.888   0.626  16.891  0.00  0.00     0.075 H 
ATOM     40  H27 SPM d          -7.504   1.458  18.436  0.00  0.00     0.075 H 
BRANCH  38  41
ATOM     41  N14 SPM d          -6.005   0.218  17.687  0.00  0.00    -0.079 N 
ATOM     42  H28 SPM d          -5.591   0.401  18.588  0.00  0.00     0.274 HD
ATOM     43  H29 SPM d          -5.310   0.341  16.967  0.00  0.00     0.274 HD
ATOM     44  H30 SPM d          -6.350  -0.729  17.661  0.00  0.00     0.274 HD
ENDBRANCH  38  41
ENDBRANCH  35  38
ENDBRANCH  32  35
ENDBRANCH  29  32
ENDBRANCH  26  29
ENDBRANCH  23  26
ENDBRANCH   1  23
TORSDOF 13
ENDMDL
MODEL 3
REMARK VINA RESULT:      -4.0      1.527      3.020
REMARK  13 active torsions:
REMARK  status: ('A' for Active; 'I' for Inactive)
REMARK    1  A    between atoms: N1_1  and  C2_2 
REMARK    2  A    between atoms: C2_2  and  C3_3 
REMARK    3  A    between atoms: C3_3  and  C4_4 
REMARK    4  A    between atoms: C4_4  and  N5_5 
REMARK    5  A    between atoms: N5_5  and  C6_6 
REMARK    6  A    between atoms: C6_6  and  C7_7 
REMARK    7  A    between atoms: C7_7  and  C8_8 
REMARK    8  A    between atoms: C8_8  and  C9_9 
REMARK    9  A    between atoms: C9_9  and  N10_10 
REMARK   10  A    between atoms: N10_10  and  C11_11 
REMARK   11  A    between atoms: C11_11  and  C12_12 
REMARK   12  A    between atoms: C12_12  and  C13_13 
REMARK   13  A    between atoms: C13_13  and  N14_14 
ROOT
ATOM      1  C7  SPM d          -4.142   2.995  11.986  0.00  0.00    -0.041 C 
ATOM      2  H14 SPM d          -4.379   4.043  11.752  0.00  0.00     0.035 H 
ATOM      3  H15 SPM d          -4.496   2.348  11.170  0.00  0.00     0.035 H 
ENDROOT
BRANCH   1   4
ATOM      4  C6  SPM d          -4.761   2.584  13.306  0.00  0.00     0.082 C 
ATOM      5  H12 SPM d          -4.621   3.409  14.021  0.00  0.00     0.075 H 
ATOM      6  H13 SPM d          -5.837   2.421  13.142  0.00  0.00     0.075 H 
BRANCH   4   7
ATOM      7  N5  SPM d          -4.205   1.378  13.893  0.00  0.00    -0.075 N 
ATOM      8  H10 SPM d          -4.533   0.598  13.344  0.00  0.00     0.277 HD
ATOM      9  H11 SPM d          -3.202   1.442  13.819  0.00  0.00     0.277 HD
BRANCH   7  10
ATOM     10  C4  SPM d          -4.518   1.093  15.274  0.00  0.00     0.083 C 
ATOM     11  H8  SPM d          -5.353   0.377  15.295  0.00  0.00     0.075 H 
ATOM     12  H9  SPM d          -3.631   0.637  15.738  0.00  0.00     0.075 H 
BRANCH  10  13
ATOM     13  C3  SPM d          -4.916   2.316  16.107  0.00  0.00    -0.020 C 
ATOM     14  H6  SPM d          -4.005   2.843  16.426  0.00  0.00     0.037 H 
ATOM     15  H7  SPM d          -5.528   2.987  15.485  0.00  0.00     0.037 H 
BRANCH  13  16
ATOM     16  C2  SPM d          -5.711   1.924  17.333  0.00  0.00     0.081 C 
ATOM     17  H4  SPM d          -5.154   2.196  18.242  0.00  0.00     0.075 H 
ATOM     18  H5  SPM d          -6.682   2.439  17.330  0.00  0.00     0.075 H 
BRANCH  16  19
ATOM     19  N1  SPM d          -5.913   0.496  17.291  0.00  0.00    -0.079 N 
ATOM     20  H1  SPM d          -5.097   0.053  16.898  0.00  0.00     0.274 HD
ATOM     21  H2  SPM d          -6.717   0.287  16.721  0.00  0.00     0.274 HD
ATOM     22  H3  SPM d          -6.066   0.152  18.226  0.00  0.00     0.274 HD
ENDBRANCH  16  19
ENDBRANCH  13  16
ENDBRANCH  10  13
ENDBRANCH   7  10
ENDBRANCH   4   7
ENDBRANCH   1   4
BRANCH   1  23
ATOM     23  C8  SPM d          -2.652   2.815  12.211  0.00  0.00    -0.041 C 
ATOM     24  H16 SPM d          -2.208   2.257  11.373  0.00  0.00     0.035 H 
ATOM     25  H17 SPM d          -2.473   2.270  13.150  0.00  0.00     0.035 H 
BRANCH  23  26
ATOM     26  C9  SPM d          -2.053   4.192  12.291  0.00  0.00     0.082 C 
ATOM     27  H18 SPM d          -2.846   4.941  12.149  0.00  0.00     0.075 H 
ATOM     28  H19 SPM d          -1.296   4.306  11.500  0.00  0.00     0.075 H 
BRANCH  26  29
ATOM     29  N10 SPM d          -1.432   4.392  13.578  0.00  0.00    -0.075 N 
ATOM     30  H20 SPM d          -0.730   5.103  13.436  0.00  0.00     0.277 HD
ATOM     31  H21 SPM d          -0.985   3.518  13.805  0.00  0.00     0.277 HD
BRANCH  29  32
ATOM     32  C11 SPM d          -2.148   4.782  14.756  0.00  0.00     0.083 C 
ATOM     33  H22 SPM d          -1.445   4.869  15.597  0.00  0.00     0.075 H 
ATOM     34  H23 SPM d          -2.908   4.021  14.989  0.00  0.00     0.075 H 
BRANCH  32  35
ATOM     35  C12 SPM d          -2.827   6.117  14.528  0.00  0.00    -0.020 C 
ATOM     36  H24 SPM d          -2.511   6.512  13.551  0.00  0.00     0.037 H 
ATOM     37  H25 SPM d          -2.515   6.811  15.323  0.00  0.00     0.037 H 
BRANCH  35  38
ATOM     38  C13 SPM d          -4.350   6.007  14.543  0.00  0.00     0.081 C 
ATOM     39  H26 SPM d          -4.753   6.709  15.286  0.00  0.00     0.075 H 
ATOM     40  H27 SPM d          -4.633   4.979  14.818  0.00  0.00     0.075 H 
BRANCH  38  41
ATOM     41  N14 SPM d          -4.910   6.320  13.244  0.00  0.00    -0.079 N 
ATOM     42  H28 SPM d          -5.731   5.757  13.089  0.00  0.00     0.274 HD
ATOM     43  H29 SPM d          -4.228   6.124  12.528  0.00  0.00     0.274 HD
ATOM     44  H30 SPM d          -5.159   7.296  13.212  0.00  0.00     0.274 HD
ENDBRANCH  38  41
ENDBRANCH  35  38
ENDBRANCH  32  35
ENDBRANCH  29  32
ENDBRANCH  26  29
ENDBRANCH  23  26
ENDBRANCH   1  23
TORSDOF 13
ENDMDL
MODEL 4
REMARK VINA RESULT:      -4.0      1.784      2.515
REMARK  13 active torsions:
REMARK  status: ('A' for Active; 'I' for Inactive)
REMARK    1  A    between atoms: N1_1  and  C2_2 
REMARK    2  A    between atoms: C2_2  and  C3_3 
REMARK    3  A    between atoms: C3_3  and  C4_4 
REMARK    4  A    between atoms: C4_4  and  N5_5 
REMARK    5  A    between atoms: N5_5  and  C6_6 
REMARK    6  A    between atoms: C6_6  and  C7_7 
REMARK    7  A    between atoms: C7_7  and  C8_8 
REMARK    8  A    between atoms: C8_8  and  C9_9 
REMARK    9  A    between atoms: C9_9  and  N10_10 
REMARK   10  A    between atoms: N10_10  and  C11_11 
REMARK   11  A    between atoms: C11_11  and  C12_12 
REMARK   12  A    between atoms: C12_12  and  C13_13 
REMARK   13  A    between atoms: C13_13  and  N14_14 
ROOT
ATOM      1  C7  SPM d          -4.509   1.901  13.685  0.00  0.00    -0.041 C 
ATOM      2  H14 SPM d          -5.223   1.070  13.786  0.00  0.00     0.035 H 
ATOM      3  H15 SPM d          -3.705   1.784  14.427  0.00  0.00     0.035 H 
ENDROOT
BRANCH   1   4
ATOM      4  C6  SPM d          -5.207   3.234  13.852  0.00  0.00     0.082 C 
ATOM      5  H12 SPM d          -4.557   4.015  13.430  0.00  0.00     0.075 H 
ATOM      6  H13 SPM d          -6.151   3.198  13.288  0.00  0.00     0.075 H 
BRANCH   4   7
ATOM      7  N5  SPM d          -5.515   3.595  15.225  0.00  0.00    -0.075 N 
ATOM      8  H10 SPM d          -4.807   4.246  15.531  0.00  0.00     0.277 HD
ATOM      9  H11 SPM d          -6.412   4.053  15.221  0.00  0.00     0.277 HD
BRANCH   7  10
ATOM     10  C4  SPM d          -5.576   2.535  16.204  0.00  0.00     0.083 C 
ATOM     11  H8  SPM d          -5.486   1.575  15.675  0.00  0.00     0.075 H 
ATOM     12  H9  SPM d          -4.727   2.656  16.893  0.00  0.00     0.075 H 
BRANCH  10  13
ATOM     13  C3  SPM d          -6.863   2.503  17.035  0.00  0.00    -0.020 C 
ATOM     14  H6  SPM d          -6.731   3.142  17.921  0.00  0.00     0.037 H 
ATOM     15  H7  SPM d          -7.692   2.891  16.424  0.00  0.00     0.037 H 
BRANCH  13  16
ATOM     16  C2  SPM d          -7.202   1.100  17.489  0.00  0.00     0.081 C 
ATOM     17  H4  SPM d          -7.721   1.135  18.458  0.00  0.00     0.075 H 
ATOM     18  H5  SPM d          -7.849   0.613  16.745  0.00  0.00     0.075 H 
BRANCH  16  19
ATOM     19  N1  SPM d          -5.967   0.367  17.620  0.00  0.00    -0.079 N 
ATOM     20  H1  SPM d          -5.537   0.588  18.504  0.00  0.00     0.274 HD
ATOM     21  H2  SPM d          -5.344   0.622  16.870  0.00  0.00     0.274 HD
ATOM     22  H3  SPM d          -6.158  -0.622  17.576  0.00  0.00     0.274 HD
ENDBRANCH  16  19
ENDBRANCH  13  16
ENDBRANCH  10  13
ENDBRANCH   7  10
ENDBRANCH   4   7
ENDBRANCH   1   4
BRANCH   1  23
ATOM     23  C8  SPM d          -3.942   1.959  12.278  0.00  0.00    -0.041 C 
ATOM     24  H16 SPM d          -4.717   1.688  11.547  0.00  0.00     0.035 H 
ATOM     25  H17 SPM d          -3.091   1.268  12.184  0.00  0.00     0.035 H 
BRANCH  23  26
ATOM     26  C9  SPM d          -3.487   3.374  12.050  0.00  0.00     0.082 C 
ATOM     27  H18 SPM d          -4.069   4.051  12.693  0.00  0.00     0.075 H 
ATOM     28  H19 SPM d          -3.648   3.642  10.995  0.00  0.00     0.075 H 
BRANCH  26  29
ATOM     29  N10 SPM d          -2.085   3.504  12.366  0.00  0.00    -0.075 N 
ATOM     30  H20 SPM d          -1.591   3.304  11.510  0.00  0.00     0.277 HD
ATOM     31  H21 SPM d          -1.889   2.785  13.044  0.00  0.00     0.277 HD
BRANCH  29  32
ATOM     32  C11 SPM d          -1.493   4.701  12.886  0.00  0.00     0.083 C 
ATOM     33  H22 SPM d          -1.774   5.553  12.250  0.00  0.00     0.075 H 
ATOM     34  H23 SPM d          -0.398   4.593  12.892  0.00  0.00     0.075 H 
BRANCH  32  35
ATOM     35  C12 SPM d          -1.982   4.945  14.299  0.00  0.00    -0.020 C 
ATOM     36  H24 SPM d          -1.150   4.768  14.996  0.00  0.00     0.037 H 
ATOM     37  H25 SPM d          -2.800   4.242  14.516  0.00  0.00     0.037 H 
BRANCH  35  38
ATOM     38  C13 SPM d          -2.495   6.370  14.500  0.00  0.00     0.081 C 
ATOM     39  H26 SPM d          -1.739   7.078  14.131  0.00  0.00     0.075 H 
ATOM     40  H27 SPM d          -2.665   6.541  15.573  0.00  0.00     0.075 H 
BRANCH  38  41
ATOM     41  N14 SPM d          -3.735   6.586  13.784  0.00  0.00    -0.079 N 
ATOM     42  H28 SPM d          -4.502   6.596  14.438  0.00  0.00     0.274 HD
ATOM     43  H29 SPM d          -3.872   5.843  13.116  0.00  0.00     0.274 HD
ATOM     44  H30 SPM d          -3.694   7.469  13.300  0.00  0.00     0.274 HD
ENDBRANCH  38  41
ENDBRANCH  35  38
ENDBRANCH  32  35
ENDBRANCH  29  32
ENDBRANCH  26  29
ENDBRANCH  23  26
ENDBRANCH   1  23
TORSDOF 13
ENDMDL
MODEL 5
REMARK VINA RESULT:      -3.9      1.810      5.517
REMARK  13 active torsions:
REMARK  status: ('A' for Active; 'I' for Inactive)
REMARK    1  A    between atoms: N1_1  and  C2_2 
REMARK    2  A    between atoms: C2_2  and  C3_3 
REMARK    3  A    between atoms: C3_3  and  C4_4 
REMARK    4  A    between atoms: C4_4  and  N5_5 
REMARK    5  A    between atoms: N5_5  and  C6_6 
REMARK    6  A    between atoms: C6_6  and  C7_7 
REMARK    7  A    between atoms: C7_7  and  C8_8 
REMARK    8  A    between atoms: C8_8  and  C9_9 
REMARK    9  A    between atoms: C9_9  and  N10_10 
REMARK   10  A    between atoms: N10_10  and  C11_11 
REMARK   11  A    between atoms: C11_11  and  C12_12 
REMARK   12  A    between atoms: C12_12  and  C13_13 
REMARK   13  A    between atoms: C13_13  and  N14_14 
ROOT
ATOM      1  C7  SPM d          -3.211   3.516  11.918  0.00  0.00    -0.041 C 
ATOM      2  H14 SPM d          -3.472   3.760  10.878  0.00  0.00     0.035 H 
ATOM      3  H15 SPM d          -3.527   4.338  12.577  0.00  0.00     0.035 H 
ENDROOT
BRANCH   1   4
ATOM      4  C6  SPM d          -1.725   3.257  12.054  0.00  0.00     0.082 C 
ATOM      5  H12 SPM d          -1.591   2.272  12.525  0.00  0.00     0.075 H 
ATOM      6  H13 SPM d          -1.287   3.243  11.045  0.00  0.00     0.075 H 
BRANCH   4   7
ATOM      7  N5  SPM d          -1.004   4.238  12.846  0.00  0.00    -0.075 N 
ATOM      8  H10 SPM d          -0.727   3.787  13.704  0.00  0.00     0.277 HD
ATOM      9  H11 SPM d          -0.182   4.499  12.324  0.00  0.00     0.277 HD
BRANCH   7  10
ATOM     10  C4  SPM d          -1.693   5.456  13.203  0.00  0.00     0.083 C 
ATOM     11  H8  SPM d          -0.975   6.288  13.134  0.00  0.00     0.075 H 
ATOM     12  H9  SPM d          -2.506   5.613  12.479  0.00  0.00     0.075 H 
BRANCH  10  13
ATOM     13  C3  SPM d          -2.299   5.462  14.610  0.00  0.00    -0.020 C 
ATOM     14  H6  SPM d          -2.724   4.470  14.819  0.00  0.00     0.037 H 
ATOM     15  H7  SPM d          -1.504   5.681  15.339  0.00  0.00     0.037 H 
BRANCH  13  16
ATOM     16  C2  SPM d          -3.389   6.502  14.746  0.00  0.00     0.081 C 
ATOM     17  H4  SPM d          -3.395   6.907  15.768  0.00  0.00     0.075 H 
ATOM     18  H5  SPM d          -3.219   7.318  14.029  0.00  0.00     0.075 H 
BRANCH  16  19
ATOM     19  N1  SPM d          -4.650   5.860  14.467  0.00  0.00    -0.079 N 
ATOM     20  H1  SPM d          -5.206   6.455  13.873  0.00  0.00     0.274 HD
ATOM     21  H2  SPM d          -5.141   5.694  15.331  0.00  0.00     0.274 HD
ATOM     22  H3  SPM d          -4.483   4.981  14.002  0.00  0.00     0.274 HD
ENDBRANCH  16  19
ENDBRANCH  13  16
ENDBRANCH  10  13
ENDBRANCH   7  10
ENDBRANCH   4   7
ENDBRANCH   1   4
BRANCH   1  23
ATOM     23  C8  SPM d          -3.850   2.206  12.343  0.00  0.00    -0.041 C 
ATOM     24  H16 SPM d          -3.073   1.475  12.607  0.00  0.00     0.035 H 
ATOM     25  H17 SPM d          -4.470   1.804  11.527  0.00  0.00     0.035 H 
BRANCH  23  26
ATOM     26  C9  SPM d          -4.706   2.507  13.542  0.00  0.00     0.082 C 
ATOM     27  H18 SPM d          -5.758   2.294  13.301  0.00  0.00     0.075 H 
ATOM     28  H19 SPM d          -4.599   3.570  13.808  0.00  0.00     0.075 H 
BRANCH  26  29
ATOM     29  N10 SPM d          -4.299   1.693  14.663  0.00  0.00    -0.075 N 
ATOM     30  H20 SPM d          -3.300   1.588  14.577  0.00  0.00     0.277 HD
ATOM     31  H21 SPM d          -4.744   0.799  14.527  0.00  0.00     0.277 HD
BRANCH  29  32
ATOM     32  C11 SPM d          -4.538   2.044  16.030  0.00  0.00     0.083 C 
ATOM     33  H22 SPM d          -3.873   2.873  16.315  0.00  0.00     0.075 H 
ATOM     34  H23 SPM d          -4.334   1.173  16.671  0.00  0.00     0.075 H 
BRANCH  32  35
ATOM     35  C12 SPM d          -5.979   2.473  16.208  0.00  0.00    -0.020 C 
ATOM     36  H24 SPM d          -6.422   2.645  15.216  0.00  0.00     0.037 H 
ATOM     37  H25 SPM d          -6.000   3.409  16.787  0.00  0.00     0.037 H 
BRANCH  35  38
ATOM     38  C13 SPM d          -6.813   1.425  16.942  0.00  0.00     0.081 C 
ATOM     39  H26 SPM d          -7.417   0.870  16.209  0.00  0.00     0.075 H 
ATOM     40  H27 SPM d          -7.479   1.932  17.656  0.00  0.00     0.075 H 
BRANCH  38  41
ATOM     41  N14 SPM d          -5.970   0.493  17.661  0.00  0.00    -0.079 N 
ATOM     42  H28 SPM d          -5.500   0.976  18.411  0.00  0.00     0.274 HD
ATOM     43  H29 SPM d          -5.285   0.105  17.031  0.00  0.00     0.274 HD
ATOM     44  H30 SPM d          -6.536  -0.249  18.040  0.00  0.00     0.274 HD
ENDBRANCH  38  41
ENDBRANCH  35  38
ENDBRANCH  32  35
ENDBRANCH  29  32
ENDBRANCH  26  29
ENDBRANCH  23  26
ENDBRANCH   1  23
TORSDOF 13
ENDMDL
MODEL 6
REMARK VINA RESULT:      -3.5      1.845      2.642
REMARK  13 active torsions:
REMARK  status: ('A' for Active; 'I' for Inactive)
REMARK    1  A    between atoms: N1_1  and  C2_2 
REMARK    2  A    between atoms: C2_2  and  C3_3 
REMARK    3  A    between atoms: C3_3  and  C4_4 
REMARK    4  A    between atoms: C4_4  and  N5_5 
REMARK    5  A    between atoms: N5_5  and  C6_6 
REMARK    6  A    between atoms: C6_6  and  C7_7 
REMARK    7  A    between atoms: C7_7  and  C8_8 
REMARK    8  A    between atoms: C8_8  and  C9_9 
REMARK    9  A    between atoms: C9_9  and  N10_10 
REMARK   10  A    between atoms: N10_10  and  C11_11 
REMARK   11  A    between atoms: C11_11  and  C12_12 
REMARK   12  A    between atoms: C12_12  and  C13_13 
REMARK   13  A    between atoms: C13_13  and  N14_14 
ROOT
ATOM      1  C7  SPM d          -5.397   5.285  14.778  0.00  0.00    -0.041 C 
ATOM      2  H14 SPM d          -4.353   5.103  14.484  0.00  0.00     0.035 H 
ATOM      3  H15 SPM d          -5.420   5.770  15.765  0.00  0.00     0.035 H 
ENDROOT
BRANCH   1   4
ATOM      4  C6  SPM d          -6.185   3.993  14.795  0.00  0.00     0.082 C 
ATOM      5  H12 SPM d          -7.004   4.101  15.522  0.00  0.00     0.075 H 
ATOM      6  H13 SPM d          -6.606   3.837  13.790  0.00  0.00     0.075 H 
BRANCH   4   7
ATOM      7  N5  SPM d          -5.417   2.813  15.151  0.00  0.00    -0.075 N 
ATOM      8  H10 SPM d          -4.972   3.000  16.037  0.00  0.00     0.277 HD
ATOM      9  H11 SPM d          -6.068   2.051  15.257  0.00  0.00     0.277 HD
BRANCH   7  10
ATOM     10  C4  SPM d          -4.388   2.375  14.236  0.00  0.00     0.083 C 
ATOM     11  H8  SPM d          -3.464   2.924  14.474  0.00  0.00     0.075 H 
ATOM     12  H9  SPM d          -4.227   1.299  14.393  0.00  0.00     0.075 H 
BRANCH  10  13
ATOM     13  C3  SPM d          -4.709   2.599  12.755  0.00  0.00    -0.020 C 
ATOM     14  H6  SPM d          -5.766   2.889  12.659  0.00  0.00     0.037 H 
ATOM     15  H7  SPM d          -4.071   3.409  12.370  0.00  0.00     0.037 H 
BRANCH  13  16
ATOM     16  C2  SPM d          -4.466   1.351  11.935  0.00  0.00     0.081 C 
ATOM     17  H4  SPM d          -5.399   1.040  11.442  0.00  0.00     0.075 H 
ATOM     18  H5  SPM d          -3.698   1.549  11.173  0.00  0.00     0.075 H 
BRANCH  16  19
ATOM     19  N1  SPM d          -4.014   0.315  12.829  0.00  0.00    -0.079 N 
ATOM     20  H1  SPM d          -3.584  -0.425  12.297  0.00  0.00     0.274 HD
ATOM     21  H2  SPM d          -4.800  -0.053  13.342  0.00  0.00     0.274 HD
ATOM     22  H3  SPM d          -3.343   0.698  13.476  0.00  0.00     0.274 HD
ENDBRANCH  16  19
ENDBRANCH  13  16
ENDBRANCH  10  13
ENDBRANCH   7  10
ENDBRANCH   4   7
ENDBRANCH   1   4
BRANCH   1  23
ATOM     23  C8  SPM d          -6.110   6.135  13.742  0.00  0.00    -0.041 C 
ATOM     24  H16 SPM d          -6.510   7.045  14.211  0.00  0.00     0.035 H 
ATOM     25  H17 SPM d          -6.934   5.565  13.286  0.00  0.00     0.035 H 
BRANCH  23  26
ATOM     26  C9  SPM d          -5.091   6.496  12.697  0.00  0.00     0.082 C 
ATOM     27  H18 SPM d          -5.494   7.293  12.056  0.00  0.00     0.075 H 
ATOM     28  H19 SPM d          -4.869   5.609  12.084  0.00  0.00     0.075 H 
BRANCH  26  29
ATOM     29  N10 SPM d          -3.875   6.957  13.324  0.00  0.00    -0.075 N 
ATOM     30  H20 SPM d          -3.787   6.425  14.176  0.00  0.00     0.277 HD
ATOM     31  H21 SPM d          -4.034   7.927  13.549  0.00  0.00     0.277 HD
BRANCH  29  32
ATOM     32  C11 SPM d          -2.588   6.908  12.698  0.00  0.00     0.083 C 
ATOM     33  H22 SPM d          -2.273   7.928  12.432  0.00  0.00     0.075 H 
ATOM     34  H23 SPM d          -2.648   6.293  11.788  0.00  0.00     0.075 H 
BRANCH  32  35
ATOM     35  C12 SPM d          -1.576   6.302  13.649  0.00  0.00    -0.020 C 
ATOM     36  H24 SPM d          -1.744   6.715  14.654  0.00  0.00     0.037 H 
ATOM     37  H25 SPM d          -0.566   6.569  13.306  0.00  0.00     0.037 H 
BRANCH  35  38
ATOM     38  C13 SPM d          -1.682   4.780  13.721  0.00  0.00     0.081 C 
ATOM     39  H26 SPM d          -0.893   4.336  13.098  0.00  0.00     0.075 H 
ATOM     40  H27 SPM d          -2.667   4.471  13.340  0.00  0.00     0.075 H 
BRANCH  38  41
ATOM     41  N14 SPM d          -1.531   4.309  15.082  0.00  0.00    -0.079 N 
ATOM     42  H28 SPM d          -0.569   4.059  15.246  0.00  0.00     0.274 HD
ATOM     43  H29 SPM d          -2.117   3.500  15.225  0.00  0.00     0.274 HD
ATOM     44  H30 SPM d          -1.804   5.038  15.722  0.00  0.00     0.274 HD
ENDBRANCH  38  41
ENDBRANCH  35  38
ENDBRANCH  32  35
ENDBRANCH  29  32
ENDBRANCH  26  29
ENDBRANCH  23  26
ENDBRANCH   1  23
TORSDOF 13
ENDMDL
MODEL 7
REMARK VINA RESULT:      -3.4      1.835      5.957
REMARK  13 active torsions:
REMARK  status: ('A' for Active; 'I' for Inactive)
REMARK    1  A    between atoms: N1_1  and  C2_2 
REMARK    2  A    between atoms: C2_2  and  C3_3 
REMARK    3  A    between atoms: C3_3  and  C4_4 
REMARK    4  A    between atoms: C4_4  and  N5_5 
REMARK    5  A    between atoms: N5_5  and  C6_6 
REMARK    6  A    between atoms: C6_6  and  C7_7 
REMARK    7  A    between atoms: C7_7  and  C8_8 
REMARK    8  A    between atoms: C8_8  and  C9_9 
REMARK    9  A    between atoms: C9_9  and  N10_10 
REMARK   10  A    between atoms: N10_10  and  C11_11 
REMARK   11  A    between atoms: C11_11  and  C12_12 
REMARK   12  A    between atoms: C12_12  and  C13_13 
REMARK   13  A    between atoms: C13_13  and  N14_14 
ROOT
ATOM      1  C7  SPM d          -3.918   3.606  14.980  0.00  0.00    -0.041 C 
ATOM      2  H14 SPM d          -3.780   4.544  15.538  0.00  0.00     0.035 H 
ATOM      3  H15 SPM d          -3.149   3.529  14.197  0.00  0.00     0.035 H 
ENDROOT
BRANCH   1   4
ATOM      4  C6  SPM d          -5.306   3.536  14.380  0.00  0.00     0.082 C 
ATOM      5  H12 SPM d          -5.212   3.195  13.338  0.00  0.00     0.075 H 
ATOM      6  H13 SPM d          -5.890   2.802  14.954  0.00  0.00     0.075 H 
BRANCH   4   7
ATOM      7  N5  SPM d          -6.036   4.792  14.379  0.00  0.00    -0.075 N 
ATOM      8  H10 SPM d          -6.656   4.779  13.584  0.00  0.00     0.277 HD
ATOM      9  H11 SPM d          -6.579   4.825  15.228  0.00  0.00     0.277 HD
BRANCH   7  10
ATOM     10  C4  SPM d          -5.273   6.016  14.310  0.00  0.00     0.083 C 
ATOM     11  H8  SPM d          -5.819   6.792  14.865  0.00  0.00     0.075 H 
ATOM     12  H9  SPM d          -4.298   5.839  14.788  0.00  0.00     0.075 H 
BRANCH  10  13
ATOM     13  C3  SPM d          -5.019   6.535  12.890  0.00  0.00    -0.020 C 
ATOM     14  H6  SPM d          -5.092   5.694  12.185  0.00  0.00     0.037 H 
ATOM     15  H7  SPM d          -5.784   7.287  12.644  0.00  0.00     0.037 H 
BRANCH  13  16
ATOM     16  C2  SPM d          -3.650   7.166  12.760  0.00  0.00     0.081 C 
ATOM     17  H4  SPM d          -3.078   6.659  11.969  0.00  0.00     0.075 H 
ATOM     18  H5  SPM d          -3.753   8.232  12.513  0.00  0.00     0.075 H 
BRANCH  16  19
ATOM     19  N1  SPM d          -2.973   7.018  14.025  0.00  0.00    -0.079 N 
ATOM     20  H1  SPM d          -2.189   7.651  14.062  0.00  0.00     0.274 HD
ATOM     21  H2  SPM d          -2.645   6.070  14.122  0.00  0.00     0.274 HD
ATOM     22  H3  SPM d          -3.613   7.230  14.775  0.00  0.00     0.274 HD
ENDBRANCH  16  19
ENDBRANCH  13  16
ENDBRANCH  10  13
ENDBRANCH   7  10
ENDBRANCH   4   7
ENDBRANCH   1   4
BRANCH   1  23
ATOM     23  C8  SPM d          -3.862   2.409  15.912  0.00  0.00    -0.041 C 
ATOM     24  H16 SPM d          -4.162   2.707  16.927  0.00  0.00     0.035 H 
ATOM     25  H17 SPM d          -2.843   1.995  15.937  0.00  0.00     0.035 H 
BRANCH  23  26
ATOM     26  C9  SPM d          -4.822   1.387  15.367  0.00  0.00     0.082 C 
ATOM     27  H18 SPM d          -4.363   0.881  14.505  0.00  0.00     0.075 H 
ATOM     28  H19 SPM d          -5.746   1.892  15.046  0.00  0.00     0.075 H 
BRANCH  26  29
ATOM     29  N10 SPM d          -5.140   0.411  16.381  0.00  0.00    -0.075 N 
ATOM     30  H20 SPM d          -4.273   0.221  16.860  0.00  0.00     0.277 HD
ATOM     31  H21 SPM d          -5.436  -0.414  15.883  0.00  0.00     0.277 HD
BRANCH  29  32
ATOM     32  C11 SPM d          -6.115   0.618  17.409  0.00  0.00     0.083 C 
ATOM     33  H22 SPM d          -5.633   1.080  18.282  0.00  0.00     0.075 H 
ATOM     34  H23 SPM d          -6.550  -0.351  17.699  0.00  0.00     0.075 H 
BRANCH  32  35
ATOM     35  C12 SPM d          -7.213   1.529  16.900  0.00  0.00    -0.020 C 
ATOM     36  H24 SPM d          -8.187   1.092  17.167  0.00  0.00     0.037 H 
ATOM     37  H25 SPM d          -7.131   1.604  15.806  0.00  0.00     0.037 H 
BRANCH  35  38
ATOM     38  C13 SPM d          -7.128   2.933  17.495  0.00  0.00     0.081 C 
ATOM     39  H26 SPM d          -8.137   3.265  17.779  0.00  0.00     0.075 H 
ATOM     40  H27 SPM d          -6.716   3.619  16.739  0.00  0.00     0.075 H 
BRANCH  38  41
ATOM     41  N14 SPM d          -6.277   2.955  18.667  0.00  0.00    -0.079 N 
ATOM     42  H28 SPM d          -6.684   2.380  19.388  0.00  0.00     0.274 HD
ATOM     43  H29 SPM d          -6.190   3.902  19.002  0.00  0.00     0.274 HD
ATOM     44  H30 SPM d          -5.365   2.599  18.427  0.00  0.00     0.274 HD
ENDBRANCH  38  41
ENDBRANCH  35  38
ENDBRANCH  32  35
ENDBRANCH  29  32
ENDBRANCH  26  29
ENDBRANCH  23  26
ENDBRANCH   1  23
TORSDOF 13
ENDMDL
MODEL 8
REMARK VINA RESULT:      -3.3      1.524      2.893
REMARK  13 active torsions:
REMARK  status: ('A' for Active; 'I' for Inactive)
REMARK    1  A    between atoms: N1_1  and  C2_2 
REMARK    2  A    between atoms: C2_2  and  C3_3 
REMARK    3  A    between atoms: C3_3  and  C4_4 
REMARK    4  A    between atoms: C4_4  and  N5_5 
REMARK    5  A    between atoms: N5_5  and  C6_6 
REMARK    6  A    between atoms: C6_6  and  C7_7 
REMARK    7  A    between atoms: C7_7  and  C8_8 
REMARK    8  A    between atoms: C8_8  and  C9_9 
REMARK    9  A    between atoms: C9_9  and  N10_10 
REMARK   10  A    between atoms: N10_10  and  C11_11 
REMARK   11  A    between atoms: C11_11  and  C12_12 
REMARK   12  A    between atoms: C12_12  and  C13_13 
REMARK   13  A    between atoms: C13_13  and  N14_14 
ROOT
ATOM      1  C7  SPM d          -3.357   3.931  15.216  0.00  0.00    -0.041 C 
ATOM      2  H14 SPM d          -2.276   3.805  15.374  0.00  0.00     0.035 H 
ATOM      3  H15 SPM d          -3.715   4.789  15.802  0.00  0.00     0.035 H 
ENDROOT
BRANCH   1   4
ATOM      4  C6  SPM d          -4.107   2.671  15.591  0.00  0.00     0.082 C 
ATOM      5  H12 SPM d          -3.614   1.819  15.098  0.00  0.00     0.075 H 
ATOM      6  H13 SPM d          -4.044   2.548  16.682  0.00  0.00     0.075 H 
BRANCH   4   7
ATOM      7  N5  SPM d          -5.510   2.660  15.216  0.00  0.00    -0.075 N 
ATOM      8  H10 SPM d          -5.583   3.096  14.310  0.00  0.00     0.277 HD
ATOM      9  H11 SPM d          -5.796   1.696  15.148  0.00  0.00     0.277 HD
BRANCH   7  10
ATOM     10  C4  SPM d          -6.448   3.326  16.090  0.00  0.00     0.083 C 
ATOM     11  H8  SPM d          -6.049   4.325  16.321  0.00  0.00     0.075 H 
ATOM     12  H9  SPM d          -7.403   3.427  15.554  0.00  0.00     0.075 H 
BRANCH  10  13
ATOM     13  C3  SPM d          -6.717   2.602  17.413  0.00  0.00    -0.020 C 
ATOM     14  H6  SPM d          -5.818   2.664  18.044  0.00  0.00     0.037 H 
ATOM     15  H7  SPM d          -7.558   3.095  17.924  0.00  0.00     0.037 H 
BRANCH  13  16
ATOM     16  C2  SPM d          -7.062   1.145  17.194  0.00  0.00     0.081 C 
ATOM     17  H4  SPM d          -8.017   0.908  17.687  0.00  0.00     0.075 H 
ATOM     18  H5  SPM d          -7.144   0.938  16.117  0.00  0.00     0.075 H 
BRANCH  16  19
ATOM     19  N1  SPM d          -6.004   0.349  17.767  0.00  0.00    -0.079 N 
ATOM     20  H1  SPM d          -5.665  -0.304  17.078  0.00  0.00     0.274 HD
ATOM     21  H2  SPM d          -6.358  -0.155  18.564  0.00  0.00     0.274 HD
ATOM     22  H3  SPM d          -5.251   0.952  18.058  0.00  0.00     0.274 HD
ENDBRANCH  16  19
ENDBRANCH  13  16
ENDBRANCH  10  13
ENDBRANCH   7  10
ENDBRANCH   4   7
ENDBRANCH   1   4
BRANCH   1  23
ATOM     23  C8  SPM d          -3.669   4.116  13.741  0.00  0.00    -0.041 C 
ATOM     24  H16 SPM d          -4.513   4.810  13.618  0.00  0.00     0.035 H 
ATOM     25  H17 SPM d          -3.920   3.148  13.283  0.00  0.00     0.035 H 
BRANCH  23  26
ATOM     26  C9  SPM d          -2.433   4.686  13.102  0.00  0.00     0.082 C 
ATOM     27  H18 SPM d          -2.135   4.049  12.256  0.00  0.00     0.075 H 
ATOM     28  H19 SPM d          -1.620   4.713  13.843  0.00  0.00     0.075 H 
BRANCH  26  29
ATOM     29  N10 SPM d          -2.689   6.023  12.625  0.00  0.00    -0.075 N 
ATOM     30  H20 SPM d          -2.817   5.939  11.628  0.00  0.00     0.277 HD
ATOM     31  H21 SPM d          -1.848   6.547  12.813  0.00  0.00     0.277 HD
BRANCH  29  32
ATOM     32  C11 SPM d          -3.769   6.841  13.089  0.00  0.00     0.083 C 
ATOM     33  H22 SPM d          -3.363   7.726  13.601  0.00  0.00     0.075 H 
ATOM     34  H23 SPM d          -4.388   6.263  13.792  0.00  0.00     0.075 H 
BRANCH  32  35
ATOM     35  C12 SPM d          -4.620   7.285  11.917  0.00  0.00    -0.020 C 
ATOM     36  H24 SPM d          -4.323   6.711  11.027  0.00  0.00     0.037 H 
ATOM     37  H25 SPM d          -4.442   8.356  11.739  0.00  0.00     0.037 H 
BRANCH  35  38
ATOM     38  C13 SPM d          -6.111   7.071  12.164  0.00  0.00     0.081 C 
ATOM     39  H26 SPM d          -6.519   6.436  11.364  0.00  0.00     0.075 H 
ATOM     40  H27 SPM d          -6.621   8.046  12.154  0.00  0.00     0.075 H 
BRANCH  38  41
ATOM     41  N14 SPM d          -6.343   6.429  13.442  0.00  0.00    -0.079 N 
ATOM     42  H28 SPM d          -6.123   7.073  14.185  0.00  0.00     0.274 HD
ATOM     43  H29 SPM d          -5.758   5.612  13.520  0.00  0.00     0.274 HD
ATOM     44  H30 SPM d          -7.311   6.155  13.509  0.00  0.00     0.274 HD
ENDBRANCH  38  41
ENDBRANCH  35  38
ENDBRANCH  32  35
ENDBRANCH  29  32
ENDBRANCH  26  29
ENDBRANCH  23  26
ENDBRANCH   1  23
TORSDOF 13
ENDMDL
MODEL 9
REMARK VINA RESULT:      -3.1      1.880      2.623
REMARK  13 active torsions:
REMARK  status: ('A' for Active; 'I' for Inactive)
REMARK    1  A    between atoms: N1_1  and  C2_2 
REMARK    2  A    between atoms: C2_2  and  C3_3 
REMARK    3  A    between atoms: C3_3  and  C4_4 
REMARK    4  A    between atoms: C4_4  and  N5_5 
REMARK    5  A    between atoms: N5_5  and  C6_6 
REMARK    6  A    between atoms: C6_6  and  C7_7 
REMARK    7  A    between atoms: C7_7  and  C8_8 
REMARK    8  A    between atoms: C8_8  and  C9_9 
REMARK    9  A    between atoms: C9_9  and  N10_10 
REMARK   10  A    between atoms: N10_10  and  C11_11 
REMARK   11  A    between atoms: C11_11  and  C12_12 
REMARK   12  A    between atoms: C12_12  and  C13_13 
REMARK   13  A    between atoms: C13_13  and  N14_14 
ROOT
ATOM      1  C7  SPM d          -4.351   2.928  12.455  0.00  0.00    -0.041 C 
ATOM      2  H14 SPM d          -4.974   3.817  12.277  0.00  0.00     0.035 H 
ATOM      3  H15 SPM d          -4.792   2.063  11.939  0.00  0.00     0.035 H 
ENDROOT
BRANCH   1   4
ATOM      4  C6  SPM d          -4.212   2.657  13.938  0.00  0.00     0.082 C 
ATOM      5  H12 SPM d          -3.281   3.130  14.286  0.00  0.00     0.075 H 
ATOM      6  H13 SPM d          -5.069   3.116  14.452  0.00  0.00     0.075 H 
BRANCH   4   7
ATOM      7  N5  SPM d          -4.168   1.251  14.301  0.00  0.00    -0.075 N 
ATOM      8  H10 SPM d          -4.721   0.749  13.624  0.00  0.00     0.277 HD
ATOM      9  H11 SPM d          -3.207   0.954  14.237  0.00  0.00     0.277 HD
BRANCH   7  10
ATOM     10  C4  SPM d          -4.647   0.877  15.611  0.00  0.00     0.083 C 
ATOM     11  H8  SPM d          -5.575   0.299  15.484  0.00  0.00     0.075 H 
ATOM     12  H9  SPM d          -3.883   0.245  16.087  0.00  0.00     0.075 H 
BRANCH  10  13
ATOM     13  C3  SPM d          -4.943   2.054  16.547  0.00  0.00    -0.020 C 
ATOM     14  H6  SPM d          -4.297   1.977  17.433  0.00  0.00     0.037 H 
ATOM     15  H7  SPM d          -4.727   2.994  16.017  0.00  0.00     0.037 H 
BRANCH  13  16
ATOM     16  C2  SPM d          -6.388   2.065  16.994  0.00  0.00     0.081 C 
ATOM     17  H4  SPM d          -6.931   2.875  16.486  0.00  0.00     0.075 H 
ATOM     18  H5  SPM d          -6.861   1.101  16.754  0.00  0.00     0.075 H 
BRANCH  16  19
ATOM     19  N1  SPM d          -6.409   2.279  18.420  0.00  0.00    -0.079 N 
ATOM     20  H1  SPM d          -7.339   2.541  18.707  0.00  0.00     0.274 HD
ATOM     21  H2  SPM d          -5.763   3.016  18.658  0.00  0.00     0.274 HD
ATOM     22  H3  SPM d          -6.137   1.431  18.891  0.00  0.00     0.274 HD
ENDBRANCH  16  19
ENDBRANCH  13  16
ENDBRANCH  10  13
ENDBRANCH   7  10
ENDBRANCH   4   7
ENDBRANCH   1   4
BRANCH   1  23
ATOM     23  C8  SPM d          -2.925   3.165  11.992  0.00  0.00    -0.041 C 
ATOM     24  H16 SPM d          -2.816   2.869  10.939  0.00  0.00     0.035 H 
ATOM     25  H17 SPM d          -2.224   2.585  12.611  0.00  0.00     0.035 H 
BRANCH  23  26
ATOM     26  C9  SPM d          -2.656   4.637  12.146  0.00  0.00     0.082 C 
ATOM     27  H18 SPM d          -1.979   4.968  11.344  0.00  0.00     0.075 H 
ATOM     28  H19 SPM d          -2.183   4.819  13.123  0.00  0.00     0.075 H 
BRANCH  26  29
ATOM     29  N10 SPM d          -3.890   5.381  12.067  0.00  0.00    -0.075 N 
ATOM     30  H20 SPM d          -4.626   4.708  12.216  0.00  0.00     0.277 HD
ATOM     31  H21 SPM d          -3.939   5.730  11.123  0.00  0.00     0.277 HD
BRANCH  29  32
ATOM     32  C11 SPM d          -4.203   6.495  12.911  0.00  0.00     0.083 C 
ATOM     33  H22 SPM d          -5.290   6.662  12.905  0.00  0.00     0.075 H 
ATOM     34  H23 SPM d          -3.691   7.393  12.535  0.00  0.00     0.075 H 
BRANCH  32  35
ATOM     35  C12 SPM d          -3.747   6.212  14.328  0.00  0.00    -0.020 C 
ATOM     36  H24 SPM d          -3.225   5.244  14.344  0.00  0.00     0.037 H 
ATOM     37  H25 SPM d          -4.631   6.164  14.980  0.00  0.00     0.037 H 
BRANCH  35  38
ATOM     38  C13 SPM d          -2.803   7.287  14.861  0.00  0.00     0.081 C 
ATOM     39  H26 SPM d          -2.604   7.094  15.926  0.00  0.00     0.075 H 
ATOM     40  H27 SPM d          -3.280   8.272  14.751  0.00  0.00     0.075 H 
BRANCH  38  41
ATOM     41  N14 SPM d          -1.547   7.287  14.140  0.00  0.00    -0.079 N 
ATOM     42  H28 SPM d          -0.929   6.600  14.543  0.00  0.00     0.274 HD
ATOM     43  H29 SPM d          -1.123   8.199  14.202  0.00  0.00     0.274 HD
ATOM     44  H30 SPM d          -1.716   7.061  13.172  0.00  0.00     0.274 HD
ENDBRANCH  38  41
ENDBRANCH  35  38
ENDBRANCH  32  35
ENDBRANCH  29  32
ENDBRANCH  26  29
ENDBRANCH  23  26
ENDBRANCH   1  23
TORSDOF 13
ENDMDL
MODEL 10
REMARK VINA RESULT:      -2.6      1.691      1.918
REMARK  13 active torsions:
REMARK  status: ('A' for Active; 'I' for Inactive)
REMARK    1  A    between atoms: N1_1  and  C2_2 
REMARK    2  A    between atoms: C2_2  and  C3_3 
REMARK    3  A    between atoms: C3_3  and  C4_4 
REMARK    4  A    between atoms: C4_4  and  N5_5 
REMARK    5  A    between atoms: N5_5  and  C6_6 
REMARK    6  A    between atoms: C6_6  and  C7_7 
REMARK    7  A    between atoms: C7_7  and  C8_8 
REMARK    8  A    between atoms: C8_8  and  C9_9 
REMARK    9  A    between atoms: C9_9  and  N10_10 
REMARK   10  A    between atoms: N10_10  and  C11_11 
REMARK   11  A    between atoms: C11_11  and  C12_12 
REMARK   12  A    between atoms: C12_12  and  C13_13 
REMARK   13  A    between atoms: C13_13  and  N14_14 
ROOT
ATOM      1  C7  SPM d          -5.427   3.943  14.698  0.00  0.00    -0.041 C 
ATOM      2  H14 SPM d          -5.572   4.169  15.764  0.00  0.00     0.035 H 
ATOM      3  H15 SPM d          -6.348   4.181  14.144  0.00  0.00     0.035 H 
ENDROOT
BRANCH   1   4
ATOM      4  C6  SPM d          -5.040   2.493  14.501  0.00  0.00     0.082 C 
ATOM      5  H12 SPM d          -5.964   1.899  14.427  0.00  0.00     0.075 H 
ATOM      6  H13 SPM d          -4.478   2.414  13.559  0.00  0.00     0.075 H 
BRANCH   4   7
ATOM      7  N5  SPM d          -4.225   1.929  15.563  0.00  0.00    -0.075 N 
ATOM      8  H10 SPM d          -3.434   1.480  15.128  0.00  0.00     0.277 HD
ATOM      9  H11 SPM d          -3.904   2.695  16.134  0.00  0.00     0.277 HD
BRANCH   7  10
ATOM     10  C4  SPM d          -4.838   0.962  16.444  0.00  0.00     0.083 C 
ATOM     11  H8  SPM d          -5.519   0.338  15.845  0.00  0.00     0.075 H 
ATOM     12  H9  SPM d          -4.042   0.333  16.868  0.00  0.00     0.075 H 
BRANCH  10  13
ATOM     13  C3  SPM d          -5.638   1.566  17.602  0.00  0.00    -0.020 C 
ATOM     14  H6  SPM d          -5.901   0.766  18.310  0.00  0.00     0.037 H 
ATOM     15  H7  SPM d          -5.016   2.316  18.112  0.00  0.00     0.037 H 
BRANCH  13  16
ATOM     16  C2  SPM d          -6.909   2.229  17.119  0.00  0.00     0.081 C 
ATOM     17  H4  SPM d          -7.185   3.049  17.800  0.00  0.00     0.075 H 
ATOM     18  H5  SPM d          -6.760   2.630  16.106  0.00  0.00     0.075 H 
BRANCH  16  19
ATOM     19  N1  SPM d          -7.951   1.232  17.105  0.00  0.00    -0.079 N 
ATOM     20  H1  SPM d          -8.242   1.036  18.050  0.00  0.00     0.274 HD
ATOM     21  H2  SPM d          -7.602   0.388  16.679  0.00  0.00     0.274 HD
ATOM     22  H3  SPM d          -8.736   1.575  16.574  0.00  0.00     0.274 HD
ENDBRANCH  16  19
ENDBRANCH  13  16
ENDBRANCH  10  13
ENDBRANCH   7  10
ENDBRANCH   4   7
ENDBRANCH   1   4
BRANCH   1  23
ATOM     23  C8  SPM d          -4.246   4.715  14.138  0.00  0.00    -0.041 C 
ATOM     24  H16 SPM d          -3.489   4.018  13.751  0.00  0.00     0.035 H 
ATOM     25  H17 SPM d          -3.799   5.345  14.921  0.00  0.00     0.035 H 
BRANCH  23  26
ATOM     26  C9  SPM d          -4.775   5.575  13.023  0.00  0.00     0.082 C 
ATOM     27  H18 SPM d          -5.865   5.680  13.132  0.00  0.00     0.075 H 
ATOM     28  H19 SPM d          -4.547   5.100  12.057  0.00  0.00     0.075 H 
BRANCH  26  29
ATOM     29  N10 SPM d          -4.164   6.882  13.068  0.00  0.00    -0.075 N 
ATOM     30  H20 SPM d          -4.003   7.076  14.044  0.00  0.00     0.277 HD
ATOM     31  H21 SPM d          -4.855   7.520  12.707  0.00  0.00     0.277 HD
BRANCH  29  32
ATOM     32  C11 SPM d          -2.941   7.212  12.398  0.00  0.00     0.083 C 
ATOM     33  H22 SPM d          -3.051   8.185  11.898  0.00  0.00     0.075 H 
ATOM     34  H23 SPM d          -2.715   6.438  11.649  0.00  0.00     0.075 H 
BRANCH  32  35
ATOM     35  C12 SPM d          -1.809   7.287  13.401  0.00  0.00    -0.020 C 
ATOM     36  H24 SPM d          -2.232   7.252  14.416  0.00  0.00     0.037 H 
ATOM     37  H25 SPM d          -1.274   8.238  13.259  0.00  0.00     0.037 H 
BRANCH  35  38
ATOM     38  C13 SPM d          -0.814   6.138  13.246  0.00  0.00     0.081 C 
ATOM     39  H26 SPM d          -0.791   5.556  14.178  0.00  0.00     0.075 H 
ATOM     40  H27 SPM d           0.185   6.554  13.049  0.00  0.00     0.075 H 
BRANCH  38  41
ATOM     41  N14 SPM d          -1.189   5.266  12.153  0.00  0.00    -0.079 N 
ATOM     42  H28 SPM d          -1.611   5.811  11.418  0.00  0.00     0.274 HD
ATOM     43  H29 SPM d          -1.849   4.578  12.482  0.00  0.00     0.274 HD
ATOM     44  H30 SPM d          -0.368   4.800  11.798  0.00  0.00     0.274 HD
ENDBRANCH  38  41
ENDBRANCH  35  38
ENDBRANCH  32  35
ENDBRANCH  29  32
ENDBRANCH  26  29
ENDBRANCH  23  26
ENDBRANCH   1  23
TORSDOF 13
ENDMDL
