MODEL 1
REMARK VINA RESULT:      -9.6      0.000      0.000
REMARK  8 active torsions:
REMARK  status: ('A' for Active; 'I' for Inactive)
REMARK    1  A    between atoms: CAA_1  and  NH_2 
REMARK    2  A    between atoms: NH_2  and  CAH_3 
REMARK    3  A    between atoms: CAG_4  and  OAC_5 
REMARK    4  A    between atoms: CAK_12  and  CAE_13 
REMARK    5  A    between atoms: CAK_12  and  CB_16 
REMARK    6  A    between atoms: CB_16  and  CA_17 
REMARK    7  A    between atoms: CA_17  and  C_18 
REMARK    8  A    between atoms: CA_17  and  N_21 
ROOT
ATOM      1  CAH DYH d          -9.912  13.178  21.159  0.00  0.00     0.155 C 
ATOM      2  CAG DYH d         -11.129  14.090  21.159  0.00  0.00     0.086 C 
ATOM      3  CAP DYH d         -11.092  15.040  22.351  0.00  0.00     0.046 C 
ATOM      4  OAQ DYH d          -9.941  15.878  22.276  0.00  0.00    -0.381 OA
ATOM      5  CAR DYH d          -8.723  15.115  22.406  0.00  0.00     0.069 C 
ATOM      6  CAS DYH d          -7.576  15.997  21.959  0.00  0.00     0.000 C 
ATOM      7  CAI DYH d          -8.639  13.975  21.400  0.00  0.00     0.095 C 
ATOM      8  OAJ DYH d          -8.281  14.614  20.175  0.00  0.00    -0.359 OA
ATOM      9  CAK DYH d          -7.541  15.819  20.442  0.00  0.00     0.154 C 
ATOM     10  H6  DYH d         -10.025  12.446  21.973  0.00  0.00     0.092 H 
ATOM     11  H7  DYH d         -12.036  13.469  21.221  0.00  0.00     0.089 H 
ATOM     12  H9  DYH d         -11.054  14.455  23.281  0.00  0.00     0.078 H 
ATOM     13  H10 DYH d         -11.997  15.664  22.346  0.00  0.00     0.078 H 
ATOM     14  H11 DYH d          -8.603  14.756  23.438  0.00  0.00     0.087 H 
ATOM     15  H12 DYH d          -6.630  15.667  22.412  0.00  0.00     0.042 H 
ATOM     16  H13 DYH d          -7.764  17.047  22.225  0.00  0.00     0.042 H 
ATOM     17  H14 DYH d          -7.851  13.276  21.718  0.00  0.00     0.090 H 
ENDROOT
BRANCH   9  18
ATOM     18  CAE DYH d          -8.253  16.995  19.783  0.00  0.00     0.209 C 
ATOM     19  OAB DYH d          -9.417  16.825  19.319  0.00  0.00    -0.646 OA
ATOM     20  OAF DYH d          -7.659  18.093  19.707  0.00  0.00    -0.646 OA
ENDBRANCH   9  18
BRANCH   9  21
ATOM     21  CB  DYH d          -6.101  15.657  19.963  0.00  0.00     0.010 C 
ATOM     22  H15 DYH d          -5.594  14.957  20.644  0.00  0.00     0.042 H 
ATOM     23  H16 DYH d          -5.612  16.640  20.018  0.00  0.00     0.042 H 
BRANCH  21  24
ATOM     24  CA  DYH d          -5.941  15.127  18.537  0.00  0.00     0.185 C 
ATOM     25  H17 DYH d          -6.603  15.698  17.869  0.00  0.00     0.101 H 
BRANCH  24  26
ATOM     26  C   DYH d          -4.516  15.347  18.131  0.00  0.00     0.204 C 
ATOM     27  OXT DYH d          -3.933  14.489  17.436  0.00  0.00    -0.646 OA
ATOM     28  O   DYH d          -3.979  16.397  18.518  0.00  0.00    -0.646 OA
ENDBRANCH  24  26
BRANCH  24  29
ATOM     29  N   DYH d          -6.281  13.713  18.423  0.00  0.00    -0.065 N 
ATOM     30  H18 DYH d          -5.632  13.167  18.967  0.00  0.00     0.275 HD
ATOM     31  H19 DYH d          -6.231  13.432  17.457  0.00  0.00     0.275 HD
ATOM     32  H20 DYH d          -7.217  13.564  18.768  0.00  0.00     0.275 HD
ENDBRANCH  24  29
ENDBRANCH  21  24
ENDBRANCH   9  21
BRANCH   1  33
ATOM     33  NH  DYH d          -9.818  12.454  19.888  0.00  0.00    -0.070 N 
ATOM     34  H4  DYH d         -10.750  12.152  19.649  0.00  0.00     0.277 HD
ATOM     35  H5  DYH d          -9.491  13.111  19.196  0.00  0.00     0.277 HD
BRANCH  33  36
ATOM     36  CAA DYH d          -8.952  11.282  19.812  0.00  0.00     0.065 C 
ATOM     37  H1  DYH d          -8.278  11.267  20.681  0.00  0.00     0.067 H 
ATOM     38  H2  DYH d          -8.358  11.325  18.887  0.00  0.00     0.067 H 
ATOM     39  H3  DYH d          -9.568  10.370  19.810  0.00  0.00     0.067 H 
ENDBRANCH  33  36
ENDBRANCH   1  33
BRANCH   2  40
ATOM     40  OAC DYH d         -11.170  14.869  19.951  0.00  0.00    -0.391 OA
ATOM     41  H8  DYH d         -10.289  14.971  19.610  0.00  0.00     0.210 HD
ENDBRANCH   2  40
TORSDOF 8
ENDMDL
