MODEL 1
REMARK VINA RESULT:      -8.0      0.000      0.000
REMARK  16 active torsions:
REMARK  status: ('A' for Active; 'I' for Inactive)
REMARK    1  A    between atoms: C2_1  and  O2_7 
REMARK    2  A    between atoms: C3_2  and  O3_8 
REMARK    3  A    between atoms: C4_3  and  O4_9 
REMARK    4  A    between atoms: C5_4  and  C6_5 
REMARK    5  A    between atoms: C6_5  and  O6_11 
REMARK    6  A    between atoms: O4_20  and  C1_6 
REMARK    7  A    between atoms: C2_12  and  O2_18 
REMARK    8  A    between atoms: C3_13  and  O3_19 
REMARK    9  A    between atoms: C4_14  and  O4_20 
REMARK   10  A    between atoms: C5_15  and  C6_16 
REMARK   11  A    between atoms: C6_16  and  O6_22 
REMARK   12  A    between atoms: O4_30  and  C1_17 
REMARK   13  A    between atoms: C5_24  and  C6_23 
REMARK   14  A    between atoms: C6_23  and  O6_28 
REMARK   15  A    between atoms: C4_25  and  O4_30 
REMARK   16  A    between atoms: C3_26  and  O3_31 
ROOT
ATOM      1  C2  MOL d          61.629  47.677  36.362  0.00  0.00     0.110 C 
ATOM      2  C3  MOL d          60.927  48.653  37.299  0.00  0.00     0.092 C 
ATOM      3  C4  MOL d          59.425  48.434  37.209  0.00  0.00     0.096 C 
ATOM      4  C5  MOL d          59.147  46.976  37.568  0.00  0.00     0.089 C 
ATOM      5  C1  MOL d          61.202  46.248  36.675  0.00  0.00     0.159 C 
ATOM      6  O5  MOL d          59.791  46.141  36.615  0.00  0.00    -0.348 OA
ATOM      7  H12 MOL d          61.338  47.917  35.328  0.00  0.00     0.094 H 
ATOM      8  H13 MOL d          61.261  48.473  38.332  0.00  0.00     0.091 H 
ATOM      9  H14 MOL d          59.076  48.636  36.186  0.00  0.00     0.091 H 
ATOM     10  H15 MOL d          59.565  46.786  38.567  0.00  0.00     0.090 H 
ATOM     11  H18 MOL d          61.571  45.946  37.666  0.00  0.00     0.133 H 
ENDROOT
BRANCH   3  12
ATOM     12  O4  MOL d          58.767  49.311  38.115  0.00  0.00    -0.348 OA
BRANCH  12  13
ATOM     13  C1  MOL d          57.732  50.116  37.553  0.00  0.00     0.159 C 
ATOM     14  C2  MOL d          56.889  50.611  38.713  0.00  0.00     0.110 C 
ATOM     15  C3  MOL d          55.861  51.615  38.226  0.00  0.00     0.092 C 
ATOM     16  H1  MOL d          57.546  51.113  39.437  0.00  0.00     0.094 H 
ATOM     17  C4  MOL d          56.488  52.702  37.375  0.00  0.00     0.090 C 
ATOM     18  H2  MOL d          55.120  51.086  37.607  0.00  0.00     0.091 H 
ATOM     19  C5  MOL d          57.360  52.075  36.305  0.00  0.00     0.089 C 
ATOM     20  H3  MOL d          57.112  53.344  38.015  0.00  0.00     0.091 H 
ATOM     21  O5  MOL d          58.324  51.204  36.878  0.00  0.00    -0.348 OA
ATOM     22  H4  MOL d          56.705  51.487  35.644  0.00  0.00     0.090 H 
ATOM     23  H7  MOL d          57.117  49.529  36.854  0.00  0.00     0.133 H 
BRANCH  14  24
ATOM     24  O2  MOL d          56.272  49.505  39.355  0.00  0.00    -0.388 OA
ATOM     25  H8  MOL d          56.880  48.774  39.377  0.00  0.00     0.210 HD
ENDBRANCH  14  24
BRANCH  15  26
ATOM     26  O3  MOL d          55.204  52.156  39.352  0.00  0.00    -0.390 OA
ATOM     27  H9  MOL d          54.291  52.310  39.141  0.00  0.00     0.210 HD
ENDBRANCH  15  26
BRANCH  17  28
ATOM     28  O4  MOL d          55.480  53.487  36.781  0.00  0.00    -0.390 OA
ATOM     29  H10 MOL d          55.253  53.121  35.933  0.00  0.00     0.210 HD
ENDBRANCH  17  28
BRANCH  19  30
ATOM     30  C6  MOL d          58.091  53.092  35.463  0.00  0.00     0.043 C 
ATOM     31  H5  MOL d          57.432  53.441  34.654  0.00  0.00     0.078 H 
ATOM     32  H6  MOL d          58.991  52.631  35.030  0.00  0.00     0.078 H 
BRANCH  30  33
ATOM     33  O6  MOL d          58.462  54.186  36.273  0.00  0.00    -0.398 OA
ATOM     34  H11 MOL d          57.822  54.297  36.966  0.00  0.00     0.209 HD
ENDBRANCH  30  33
ENDBRANCH  19  30
ENDBRANCH  12  13
ENDBRANCH   3  12
BRANCH   2  35
ATOM     35  O3  MOL d          61.245  49.984  36.931  0.00  0.00    -0.390 OA
ATOM     36  H20 MOL d          61.032  50.569  37.649  0.00  0.00     0.210 HD
ENDBRANCH   2  35
BRANCH   4  37
ATOM     37  C6  MOL d          57.694  46.585  37.580  0.00  0.00     0.043 C 
ATOM     38  H16 MOL d          57.602  45.511  37.361  0.00  0.00     0.078 H 
ATOM     39  H17 MOL d          57.153  47.163  36.817  0.00  0.00     0.078 H 
BRANCH  37  40
ATOM     40  O6  MOL d          57.142  46.855  38.859  0.00  0.00    -0.398 OA
ATOM     41  H21 MOL d          56.194  46.831  38.805  0.00  0.00     0.209 HD
ENDBRANCH  37  40
ENDBRANCH   4  37
BRANCH   1  42
ATOM     42  O2  MOL d          63.033  47.774  36.471  0.00  0.00    -0.388 OA
ATOM     43  H19 MOL d          63.391  48.102  35.655  0.00  0.00     0.210 HD
ENDBRANCH   1  42
BRANCH   5  44
ATOM     44  O4  MOL d          61.715  45.433  35.688  0.00  0.00    -0.348 OA
BRANCH  44  45
ATOM     45  C4  MOL d          61.556  44.042  35.856  0.00  0.00     0.097 C 
ATOM     46  C5  MOL d          62.922  43.366  35.967  0.00  0.00     0.119 C 
ATOM     47  O5  MOL d          62.752  41.955  36.080  0.00  0.00    -0.195 OA
ATOM     48  H24 MOL d          63.510  43.613  35.071  0.00  0.00     0.094 H 
ATOM     49  N1  MOL d          62.171  41.434  34.876  0.00  0.00     0.042 N 
ATOM     50  C2  MOL d          60.818  41.942  34.724  0.00  0.00     0.135 C 
ATOM     51  H31 MOL d          62.728  41.720  34.085  0.00  0.00     0.315 HD
ATOM     52  H32 MOL d          62.147  40.428  34.924  0.00  0.00     0.315 HD
ATOM     53  C3  MOL d          60.855  43.472  34.622  0.00  0.00     0.088 C 
ATOM     54  H27 MOL d          60.370  41.524  33.810  0.00  0.00     0.084 H 
ATOM     55  H28 MOL d          60.215  41.647  35.595  0.00  0.00     0.084 H 
ATOM     56  H26 MOL d          61.399  43.785  33.718  0.00  0.00     0.089 H 
ATOM     57  H25 MOL d          60.961  43.841  36.759  0.00  0.00     0.091 H 
BRANCH  46  58
ATOM     58  C6  MOL d          63.698  43.756  37.210  0.00  0.00     0.045 C 
ATOM     59  H22 MOL d          64.372  42.933  37.489  0.00  0.00     0.078 H 
ATOM     60  H23 MOL d          62.992  43.946  38.032  0.00  0.00     0.078 H 
BRANCH  58  61
ATOM     61  O6  MOL d          64.469  44.936  36.972  0.00  0.00    -0.398 OA
ATOM     62  H29 MOL d          64.412  45.508  37.727  0.00  0.00     0.209 HD
ENDBRANCH  58  61
ENDBRANCH  46  58
BRANCH  53  63
ATOM     63  O3  MOL d          59.497  43.891  34.539  0.00  0.00    -0.391 OA
ATOM     64  H30 MOL d          59.324  44.231  33.669  0.00  0.00     0.210 HD
ENDBRANCH  53  63
ENDBRANCH  44  45
ENDBRANCH   5  44
TORSDOF 16
ENDMDL
MODEL 2
REMARK VINA RESULT:      -7.4      0.708      1.943
REMARK  16 active torsions:
REMARK  status: ('A' for Active; 'I' for Inactive)
REMARK    1  A    between atoms: C2_1  and  O2_7 
REMARK    2  A    between atoms: C3_2  and  O3_8 
REMARK    3  A    between atoms: C4_3  and  O4_9 
REMARK    4  A    between atoms: C5_4  and  C6_5 
REMARK    5  A    between atoms: C6_5  and  O6_11 
REMARK    6  A    between atoms: O4_20  and  C1_6 
REMARK    7  A    between atoms: C2_12  and  O2_18 
REMARK    8  A    between atoms: C3_13  and  O3_19 
REMARK    9  A    between atoms: C4_14  and  O4_20 
REMARK   10  A    between atoms: C5_15  and  C6_16 
REMARK   11  A    between atoms: C6_16  and  O6_22 
REMARK   12  A    between atoms: O4_30  and  C1_17 
REMARK   13  A    between atoms: C5_24  and  C6_23 
REMARK   14  A    between atoms: C6_23  and  O6_28 
REMARK   15  A    between atoms: C4_25  and  O4_30 
REMARK   16  A    between atoms: C3_26  and  O3_31 
ROOT
ATOM      1  C2  MOL d          61.645  47.615  36.241  0.00  0.00     0.110 C 
ATOM      2  C3  MOL d          60.975  48.541  37.250  0.00  0.00     0.092 C 
ATOM      3  C4  MOL d          59.475  48.296  37.227  0.00  0.00     0.096 C 
ATOM      4  C5  MOL d          59.242  46.820  37.543  0.00  0.00     0.089 C 
ATOM      5  C1  MOL d          61.261  46.167  36.519  0.00  0.00     0.159 C 
ATOM      6  O5  MOL d          59.851  46.034  36.527  0.00  0.00    -0.348 OA
ATOM      7  H12 MOL d          61.298  47.889  35.234  0.00  0.00     0.094 H 
ATOM      8  H13 MOL d          61.365  48.328  38.257  0.00  0.00     0.091 H 
ATOM      9  H14 MOL d          59.070  48.530  36.232  0.00  0.00     0.091 H 
ATOM     10  H15 MOL d          59.714  46.601  38.512  0.00  0.00     0.090 H 
ATOM     11  H18 MOL d          61.685  45.835  37.478  0.00  0.00     0.133 H 
ENDROOT
BRANCH   3  12
ATOM     12  O4  MOL d          58.848  49.125  38.199  0.00  0.00    -0.348 OA
BRANCH  12  13
ATOM     13  C1  MOL d          57.802  49.964  37.712  0.00  0.00     0.159 C 
ATOM     14  C2  MOL d          57.095  50.527  38.930  0.00  0.00     0.110 C 
ATOM     15  C3  MOL d          56.072  51.566  38.512  0.00  0.00     0.092 C 
ATOM     16  H1  MOL d          57.839  51.014  39.577  0.00  0.00     0.094 H 
ATOM     17  C4  MOL d          56.666  52.601  37.577  0.00  0.00     0.090 C 
ATOM     18  H2  MOL d          55.254  51.059  37.980  0.00  0.00     0.091 H 
ATOM     19  C5  MOL d          57.405  51.908  36.449  0.00  0.00     0.089 C 
ATOM     20  H3  MOL d          57.375  53.228  38.139  0.00  0.00     0.091 H 
ATOM     21  O5  MOL d          58.378  51.006  36.956  0.00  0.00    -0.348 OA
ATOM     22  H4  MOL d          56.665  51.337  35.868  0.00  0.00     0.090 H 
ATOM     23  H7  MOL d          57.099  49.391  37.090  0.00  0.00     0.133 H 
BRANCH  14  24
ATOM     24  O2  MOL d          56.492  49.466  39.658  0.00  0.00    -0.388 OA
ATOM     25  H8  MOL d          56.101  48.849  39.050  0.00  0.00     0.210 HD
ENDBRANCH  14  24
BRANCH  15  26
ATOM     26  O3  MOL d          55.549  52.165  39.679  0.00  0.00    -0.390 OA
ATOM     27  H9  MOL d          54.679  52.501  39.498  0.00  0.00     0.210 HD
ENDBRANCH  15  26
BRANCH  17  28
ATOM     28  O4  MOL d          55.643  53.419  37.056  0.00  0.00    -0.390 OA
ATOM     29  H10 MOL d          55.912  54.329  37.101  0.00  0.00     0.210 HD
ENDBRANCH  17  28
BRANCH  19  30
ATOM     30  C6  MOL d          58.099  52.868  35.515  0.00  0.00     0.043 C 
ATOM     31  H5  MOL d          57.420  53.134  34.691  0.00  0.00     0.078 H 
ATOM     32  H6  MOL d          59.004  52.395  35.107  0.00  0.00     0.078 H 
BRANCH  30  33
ATOM     33  O6  MOL d          58.455  54.034  36.227  0.00  0.00    -0.398 OA
ATOM     34  H11 MOL d          57.671  54.526  36.440  0.00  0.00     0.209 HD
ENDBRANCH  30  33
ENDBRANCH  19  30
ENDBRANCH  12  13
ENDBRANCH   3  12
BRANCH   2  35
ATOM     35  O3  MOL d          61.250  49.891  36.919  0.00  0.00    -0.390 OA
ATOM     36  H20 MOL d          62.089  50.142  37.289  0.00  0.00     0.210 HD
ENDBRANCH   2  35
BRANCH   4  37
ATOM     37  C6  MOL d          57.799  46.400  37.613  0.00  0.00     0.043 C 
ATOM     38  H16 MOL d          57.724  45.314  37.451  0.00  0.00     0.078 H 
ATOM     39  H17 MOL d          57.226  46.927  36.836  0.00  0.00     0.078 H 
BRANCH  37  40
ATOM     40  O6  MOL d          57.273  46.725  38.891  0.00  0.00    -0.398 OA
ATOM     41  H21 MOL d          56.478  46.227  39.041  0.00  0.00     0.209 HD
ENDBRANCH  37  40
ENDBRANCH   4  37
BRANCH   1  42
ATOM     42  O2  MOL d          63.052  47.736  36.283  0.00  0.00    -0.388 OA
ATOM     43  H19 MOL d          63.424  46.955  36.673  0.00  0.00     0.210 HD
ENDBRANCH   1  42
BRANCH   5  44
ATOM     44  O4  MOL d          61.737  45.401  35.477  0.00  0.00    -0.348 OA
BRANCH  44  45
ATOM     45  C4  MOL d          62.358  44.179  35.809  0.00  0.00     0.097 C 
ATOM     46  C5  MOL d          61.305  43.144  36.204  0.00  0.00     0.119 C 
ATOM     47  O5  MOL d          61.946  41.931  36.591  0.00  0.00    -0.195 OA
ATOM     48  H24 MOL d          60.711  43.549  37.036  0.00  0.00     0.094 H 
ATOM     49  N1  MOL d          62.726  42.145  37.775  0.00  0.00     0.042 N 
ATOM     50  C2  MOL d          63.826  43.048  37.482  0.00  0.00     0.135 C 
ATOM     51  H31 MOL d          62.143  42.550  38.491  0.00  0.00     0.315 HD
ATOM     52  H32 MOL d          63.093  41.264  38.098  0.00  0.00     0.315 HD
ATOM     53  C3  MOL d          63.270  44.399  37.017  0.00  0.00     0.088 C 
ATOM     54  H27 MOL d          64.433  43.193  38.388  0.00  0.00     0.084 H 
ATOM     55  H28 MOL d          64.453  42.616  36.686  0.00  0.00     0.084 H 
ATOM     56  H26 MOL d          62.694  44.876  37.824  0.00  0.00     0.089 H 
ATOM     57  H25 MOL d          62.942  43.813  34.951  0.00  0.00     0.091 H 
BRANCH  46  58
ATOM     58  C6  MOL d          60.385  42.743  35.067  0.00  0.00     0.045 C 
ATOM     59  H22 MOL d          59.523  42.195  35.476  0.00  0.00     0.078 H 
ATOM     60  H23 MOL d          60.934  42.095  34.369  0.00  0.00     0.078 H 
BRANCH  58  61
ATOM     61  O6  MOL d          59.917  43.899  34.367  0.00  0.00    -0.398 OA
ATOM     62  H29 MOL d          58.969  43.887  34.338  0.00  0.00     0.209 HD
ENDBRANCH  58  61
ENDBRANCH  46  58
BRANCH  53  63
ATOM     63  O3  MOL d          64.402  45.198  36.691  0.00  0.00    -0.391 OA
ATOM     64  H30 MOL d          64.144  45.874  36.075  0.00  0.00     0.210 HD
ENDBRANCH  53  63
ENDBRANCH  44  45
ENDBRANCH   5  44
TORSDOF 16
ENDMDL
MODEL 3
REMARK VINA RESULT:      -6.5      1.831      2.628
REMARK  16 active torsions:
REMARK  status: ('A' for Active; 'I' for Inactive)
REMARK    1  A    between atoms: C2_1  and  O2_7 
REMARK    2  A    between atoms: C3_2  and  O3_8 
REMARK    3  A    between atoms: C4_3  and  O4_9 
REMARK    4  A    between atoms: C5_4  and  C6_5 
REMARK    5  A    between atoms: C6_5  and  O6_11 
REMARK    6  A    between atoms: O4_20  and  C1_6 
REMARK    7  A    between atoms: C2_12  and  O2_18 
REMARK    8  A    between atoms: C3_13  and  O3_19 
REMARK    9  A    between atoms: C4_14  and  O4_20 
REMARK   10  A    between atoms: C5_15  and  C6_16 
REMARK   11  A    between atoms: C6_16  and  O6_22 
REMARK   12  A    between atoms: O4_30  and  C1_17 
REMARK   13  A    between atoms: C5_24  and  C6_23 
REMARK   14  A    between atoms: C6_23  and  O6_28 
REMARK   15  A    between atoms: C4_25  and  O4_30 
REMARK   16  A    between atoms: C3_26  and  O3_31 
ROOT
ATOM      1  C2  MOL d          61.534  47.653  36.465  0.00  0.00     0.110 C 
ATOM      2  C3  MOL d          61.164  48.518  37.664  0.00  0.00     0.092 C 
ATOM      3  C4  MOL d          60.077  47.818  38.464  0.00  0.00     0.096 C 
ATOM      4  C5  MOL d          60.613  46.448  38.873  0.00  0.00     0.089 C 
ATOM      5  C1  MOL d          61.923  46.254  36.925  0.00  0.00     0.159 C 
ATOM      6  O5  MOL d          60.878  45.692  37.699  0.00  0.00    -0.348 OA
ATOM      7  H12 MOL d          60.657  47.581  35.804  0.00  0.00     0.094 H 
ATOM      8  H13 MOL d          62.051  48.660  38.300  0.00  0.00     0.091 H 
ATOM      9  H14 MOL d          59.176  47.694  37.845  0.00  0.00     0.091 H 
ATOM     10  H15 MOL d          61.547  46.601  39.433  0.00  0.00     0.090 H 
ATOM     11  H18 MOL d          62.858  46.286  37.503  0.00  0.00     0.133 H 
ENDROOT
BRANCH   3  12
ATOM     12  O4  MOL d          59.759  48.599  39.610  0.00  0.00    -0.348 OA
BRANCH  12  13
ATOM     13  C1  MOL d          58.393  48.993  39.729  0.00  0.00     0.159 C 
ATOM     14  C2  MOL d          58.334  50.466  39.373  0.00  0.00     0.110 C 
ATOM     15  C3  MOL d          56.892  50.935  39.306  0.00  0.00     0.092 C 
ATOM     16  H1  MOL d          58.790  50.609  38.382  0.00  0.00     0.094 H 
ATOM     17  C4  MOL d          56.041  50.028  38.439  0.00  0.00     0.090 C 
ATOM     18  H2  MOL d          56.473  50.922  40.323  0.00  0.00     0.091 H 
ATOM     19  C5  MOL d          56.250  48.583  38.850  0.00  0.00     0.089 C 
ATOM     20  H3  MOL d          56.343  50.149  37.388  0.00  0.00     0.091 H 
ATOM     21  O5  MOL d          57.627  48.238  38.817  0.00  0.00    -0.348 OA
ATOM     22  H4  MOL d          55.886  48.475  39.883  0.00  0.00     0.090 H 
ATOM     23  H7  MOL d          58.027  48.830  40.753  0.00  0.00     0.133 H 
BRANCH  14  24
ATOM     24  O2  MOL d          59.080  51.212  40.323  0.00  0.00    -0.388 OA
ATOM     25  H8  MOL d          59.017  52.138  40.118  0.00  0.00     0.210 HD
ENDBRANCH  14  24
BRANCH  15  26
ATOM     26  O3  MOL d          56.881  52.263  38.829  0.00  0.00    -0.390 OA
ATOM     27  H9  MOL d          56.684  52.854  39.546  0.00  0.00     0.210 HD
ENDBRANCH  15  26
BRANCH  17  28
ATOM     28  O4  MOL d          54.682  50.378  38.571  0.00  0.00    -0.390 OA
ATOM     29  H10 MOL d          54.190  50.012  37.844  0.00  0.00     0.210 HD
ENDBRANCH  17  28
BRANCH  19  30
ATOM     30  C6  MOL d          55.501  47.604  37.981  0.00  0.00     0.043 C 
ATOM     31  H5  MOL d          54.964  48.151  37.191  0.00  0.00     0.078 H 
ATOM     32  H6  MOL d          54.780  47.044  38.595  0.00  0.00     0.078 H 
BRANCH  30  33
ATOM     33  O6  MOL d          56.418  46.707  37.392  0.00  0.00    -0.398 OA
ATOM     34  H11 MOL d          55.988  45.874  37.237  0.00  0.00     0.209 HD
ENDBRANCH  30  33
ENDBRANCH  19  30
ENDBRANCH  12  13
ENDBRANCH   3  12
BRANCH   2  35
ATOM     35  O3  MOL d          60.702  49.782  37.220  0.00  0.00    -0.390 OA
ATOM     36  H20 MOL d          59.752  49.796  37.244  0.00  0.00     0.210 HD
ENDBRANCH   2  35
BRANCH   4  37
ATOM     37  C6  MOL d          59.682  45.624  39.722  0.00  0.00     0.043 C 
ATOM     38  H16 MOL d          59.636  46.049  40.734  0.00  0.00     0.078 H 
ATOM     39  H17 MOL d          60.054  44.590  39.775  0.00  0.00     0.078 H 
BRANCH  37  40
ATOM     40  O6  MOL d          58.385  45.631  39.145  0.00  0.00    -0.398 OA
ATOM     41  H21 MOL d          57.919  46.409  39.427  0.00  0.00     0.209 HD
ENDBRANCH  37  40
ENDBRANCH   4  37
BRANCH   1  42
ATOM     42  O2  MOL d          62.605  48.213  35.734  0.00  0.00    -0.388 OA
ATOM     43  H19 MOL d          62.822  47.645  35.005  0.00  0.00     0.210 HD
ENDBRANCH   1  42
BRANCH   5  44
ATOM     44  O4  MOL d          62.064  45.468  35.801  0.00  0.00    -0.348 OA
BRANCH  44  45
ATOM     45  C4  MOL d          61.777  44.094  35.936  0.00  0.00     0.097 C 
ATOM     46  C5  MOL d          63.068  43.308  36.160  0.00  0.00     0.119 C 
ATOM     47  O5  MOL d          62.774  41.915  36.239  0.00  0.00    -0.195 OA
ATOM     48  H24 MOL d          63.752  43.510  35.322  0.00  0.00     0.094 H 
ATOM     49  N1  MOL d          62.263  41.450  34.982  0.00  0.00     0.042 N 
ATOM     50  C2  MOL d          60.975  42.068  34.717  0.00  0.00     0.135 C 
ATOM     51  H31 MOL d          62.909  41.693  34.247  0.00  0.00     0.315 HD
ATOM     52  H32 MOL d          62.152  40.448  35.015  0.00  0.00     0.315 HD
ATOM     53  C3  MOL d          61.145  43.590  34.638  0.00  0.00     0.088 C 
ATOM     54  H27 MOL d          60.578  41.694  33.762  0.00  0.00     0.084 H 
ATOM     55  H28 MOL d          60.274  41.820  35.528  0.00  0.00     0.084 H 
ATOM     56  H26 MOL d          61.792  43.862  33.790  0.00  0.00     0.089 H 
ATOM     57  H25 MOL d          61.090  43.938  36.781  0.00  0.00     0.091 H 
BRANCH  46  58
ATOM     58  C6  MOL d          63.759  43.626  37.471  0.00  0.00     0.045 C 
ATOM     59  H22 MOL d          64.277  44.593  37.382  0.00  0.00     0.078 H 
ATOM     60  H23 MOL d          64.493  42.837  37.695  0.00  0.00     0.078 H 
BRANCH  58  61
ATOM     61  O6  MOL d          62.809  43.699  38.536  0.00  0.00    -0.398 OA
ATOM     62  H29 MOL d          62.723  42.844  38.941  0.00  0.00     0.209 HD
ENDBRANCH  58  61
ENDBRANCH  46  58
BRANCH  53  63
ATOM     63  O3  MOL d          59.839  44.120  34.441  0.00  0.00    -0.391 OA
ATOM     64  H30 MOL d          59.356  43.557  33.848  0.00  0.00     0.210 HD
ENDBRANCH  53  63
ENDBRANCH  44  45
ENDBRANCH   5  44
TORSDOF 16
ENDMDL
MODEL 4
REMARK VINA RESULT:      -5.5      3.018      8.727
REMARK  16 active torsions:
REMARK  status: ('A' for Active; 'I' for Inactive)
REMARK    1  A    between atoms: C2_1  and  O2_7 
REMARK    2  A    between atoms: C3_2  and  O3_8 
REMARK    3  A    between atoms: C4_3  and  O4_9 
REMARK    4  A    between atoms: C5_4  and  C6_5 
REMARK    5  A    between atoms: C6_5  and  O6_11 
REMARK    6  A    between atoms: O4_20  and  C1_6 
REMARK    7  A    between atoms: C2_12  and  O2_18 
REMARK    8  A    between atoms: C3_13  and  O3_19 
REMARK    9  A    between atoms: C4_14  and  O4_20 
REMARK   10  A    between atoms: C5_15  and  C6_16 
REMARK   11  A    between atoms: C6_16  and  O6_22 
REMARK   12  A    between atoms: O4_30  and  C1_17 
REMARK   13  A    between atoms: C5_24  and  C6_23 
REMARK   14  A    between atoms: C6_23  and  O6_28 
REMARK   15  A    between atoms: C4_25  and  O4_30 
REMARK   16  A    between atoms: C3_26  and  O3_31 
ROOT
ATOM      1  C2  MOL d          57.228  46.931  38.709  0.00  0.00     0.110 C 
ATOM      2  C3  MOL d          58.371  46.136  39.329  0.00  0.00     0.092 C 
ATOM      3  C4  MOL d          59.632  46.360  38.510  0.00  0.00     0.096 C 
ATOM      4  C5  MOL d          59.909  47.862  38.486  0.00  0.00     0.089 C 
ATOM      5  C1  MOL d          57.616  48.398  38.579  0.00  0.00     0.159 C 
ATOM      6  O5  MOL d          58.822  48.515  37.844  0.00  0.00    -0.348 OA
ATOM      7  H12 MOL d          57.026  46.525  37.706  0.00  0.00     0.094 H 
ATOM      8  H13 MOL d          58.539  46.481  40.360  0.00  0.00     0.091 H 
ATOM      9  H14 MOL d          59.484  45.994  37.483  0.00  0.00     0.091 H 
ATOM     10  H15 MOL d          59.987  48.210  39.526  0.00  0.00     0.090 H 
ATOM     11  H18 MOL d          57.724  48.856  39.573  0.00  0.00     0.133 H 
ENDROOT
BRANCH   3  12
ATOM     12  O4  MOL d          60.714  45.657  39.110  0.00  0.00    -0.348 OA
BRANCH  12  13
ATOM     13  C1  MOL d          61.370  44.704  38.274  0.00  0.00     0.159 C 
ATOM     14  C2  MOL d          61.146  43.344  38.909  0.00  0.00     0.110 C 
ATOM     15  C3  MOL d          61.665  42.247  37.998  0.00  0.00     0.092 C 
ATOM     16  H1  MOL d          60.066  43.195  39.051  0.00  0.00     0.094 H 
ATOM     17  C4  MOL d          61.142  42.391  36.583  0.00  0.00     0.090 C 
ATOM     18  H2  MOL d          62.762  42.311  37.962  0.00  0.00     0.091 H 
ATOM     19  C5  MOL d          61.361  43.811  36.099  0.00  0.00     0.089 C 
ATOM     20  H3  MOL d          60.064  42.170  36.573  0.00  0.00     0.091 H 
ATOM     21  O5  MOL d          60.782  44.750  36.994  0.00  0.00    -0.348 OA
ATOM     22  H4  MOL d          62.446  43.987  36.060  0.00  0.00     0.090 H 
ATOM     23  H7  MOL d          62.446  44.923  38.203  0.00  0.00     0.133 H 
BRANCH  14  24
ATOM     24  O2  MOL d          61.777  43.307  40.180  0.00  0.00    -0.388 OA
ATOM     25  H8  MOL d          62.191  42.460  40.303  0.00  0.00     0.210 HD
ENDBRANCH  14  24
BRANCH  15  26
ATOM     26  O3  MOL d          61.303  41.002  38.557  0.00  0.00    -0.390 OA
ATOM     27  H9  MOL d          61.074  40.398  37.861  0.00  0.00     0.210 HD
ENDBRANCH  15  26
BRANCH  17  28
ATOM     28  O4  MOL d          61.804  41.482  35.733  0.00  0.00    -0.390 OA
ATOM     29  H10 MOL d          61.382  41.481  34.881  0.00  0.00     0.210 HD
ENDBRANCH  17  28
BRANCH  19  30
ATOM     30  C6  MOL d          60.792  44.064  34.724  0.00  0.00     0.043 C 
ATOM     31  H5  MOL d          60.865  45.136  34.487  0.00  0.00     0.078 H 
ATOM     32  H6  MOL d          59.737  43.754  34.700  0.00  0.00     0.078 H 
BRANCH  30  33
ATOM     33  O6  MOL d          61.525  43.321  33.773  0.00  0.00    -0.398 OA
ATOM     34  H11 MOL d          61.105  43.395  32.924  0.00  0.00     0.209 HD
ENDBRANCH  30  33
ENDBRANCH  19  30
ENDBRANCH  12  13
ENDBRANCH   3  12
BRANCH   2  35
ATOM     35  O3  MOL d          58.044  44.758  39.347  0.00  0.00    -0.390 OA
ATOM     36  H20 MOL d          57.314  44.599  38.758  0.00  0.00     0.210 HD
ENDBRANCH   2  35
BRANCH   4  37
ATOM     37  C6  MOL d          61.158  48.272  37.754  0.00  0.00     0.043 C 
ATOM     38  H16 MOL d          61.373  47.543  36.959  0.00  0.00     0.078 H 
ATOM     39  H17 MOL d          62.001  48.306  38.460  0.00  0.00     0.078 H 
BRANCH  37  40
ATOM     40  O6  MOL d          60.970  49.556  37.180  0.00  0.00    -0.398 OA
ATOM     41  H21 MOL d          61.792  50.031  37.193  0.00  0.00     0.209 HD
ENDBRANCH  37  40
ENDBRANCH   4  37
BRANCH   1  42
ATOM     42  O2  MOL d          56.050  46.831  39.482  0.00  0.00    -0.388 OA
ATOM     43  H19 MOL d          55.692  47.699  39.624  0.00  0.00     0.210 HD
ENDBRANCH   1  42
BRANCH   5  44
ATOM     44  O4  MOL d          56.631  49.028  37.848  0.00  0.00    -0.348 OA
BRANCH  44  45
ATOM     45  C4  MOL d          56.119  50.235  38.367  0.00  0.00     0.097 C 
ATOM     46  C5  MOL d          57.141  51.357  38.195  0.00  0.00     0.119 C 
ATOM     47  O5  MOL d          56.637  52.560  38.772  0.00  0.00    -0.195 OA
ATOM     48  H24 MOL d          58.078  51.057  38.687  0.00  0.00     0.094 H 
ATOM     49  N1  MOL d          56.491  52.398  40.190  0.00  0.00     0.042 N 
ATOM     50  C2  MOL d          55.460  51.412  40.468  0.00  0.00     0.135 C 
ATOM     51  H31 MOL d          57.366  52.087  40.583  0.00  0.00     0.315 HD
ATOM     52  H32 MOL d          56.231  53.280  40.603  0.00  0.00     0.315 HD
ATOM     53  C3  MOL d          55.867  50.062  39.866  0.00  0.00     0.088 C 
ATOM     54  H27 MOL d          55.337  51.307  41.556  0.00  0.00     0.084 H 
ATOM     55  H28 MOL d          54.509  51.740  40.023  0.00  0.00     0.084 H 
ATOM     56  H26 MOL d          56.782  49.686  40.347  0.00  0.00     0.089 H 
ATOM     57  H25 MOL d          55.183  50.495  37.850  0.00  0.00     0.091 H 
BRANCH  46  58
ATOM     58  C6  MOL d          57.417  51.717  36.748  0.00  0.00     0.045 C 
ATOM     59  H22 MOL d          57.652  52.789  36.680  0.00  0.00     0.078 H 
ATOM     60  H23 MOL d          56.524  51.499  36.144  0.00  0.00     0.078 H 
BRANCH  58  61
ATOM     61  O6  MOL d          58.521  50.961  36.243  0.00  0.00    -0.398 OA
ATOM     62  H29 MOL d          58.302  50.619  35.385  0.00  0.00     0.209 HD
ENDBRANCH  58  61
ENDBRANCH  46  58
BRANCH  53  63
ATOM     63  O3  MOL d          54.784  49.176  40.125  0.00  0.00    -0.391 OA
ATOM     64  H30 MOL d          54.552  49.221  41.045  0.00  0.00     0.210 HD
ENDBRANCH  53  63
ENDBRANCH  44  45
ENDBRANCH   5  44
TORSDOF 16
ENDMDL
MODEL 5
REMARK VINA RESULT:      -5.3      3.152      8.746
REMARK  16 active torsions:
REMARK  status: ('A' for Active; 'I' for Inactive)
REMARK    1  A    between atoms: C2_1  and  O2_7 
REMARK    2  A    between atoms: C3_2  and  O3_8 
REMARK    3  A    between atoms: C4_3  and  O4_9 
REMARK    4  A    between atoms: C5_4  and  C6_5 
REMARK    5  A    between atoms: C6_5  and  O6_11 
REMARK    6  A    between atoms: O4_20  and  C1_6 
REMARK    7  A    between atoms: C2_12  and  O2_18 
REMARK    8  A    between atoms: C3_13  and  O3_19 
REMARK    9  A    between atoms: C4_14  and  O4_20 
REMARK   10  A    between atoms: C5_15  and  C6_16 
REMARK   11  A    between atoms: C6_16  and  O6_22 
REMARK   12  A    between atoms: O4_30  and  C1_17 
REMARK   13  A    between atoms: C5_24  and  C6_23 
REMARK   14  A    between atoms: C6_23  and  O6_28 
REMARK   15  A    between atoms: C4_25  and  O4_30 
REMARK   16  A    between atoms: C3_26  and  O3_31 
ROOT
ATOM      1  C2  MOL d          60.204  48.952  37.698  0.00  0.00     0.110 C 
ATOM      2  C3  MOL d          60.409  47.527  37.196  0.00  0.00     0.092 C 
ATOM      3  C4  MOL d          59.345  46.628  37.805  0.00  0.00     0.096 C 
ATOM      4  C5  MOL d          57.981  47.196  37.416  0.00  0.00     0.089 C 
ATOM      5  C1  MOL d          58.780  49.412  37.410  0.00  0.00     0.159 C 
ATOM      6  O5  MOL d          57.854  48.498  37.970  0.00  0.00    -0.348 OA
ATOM      7  H12 MOL d          60.369  48.964  38.786  0.00  0.00     0.094 H 
ATOM      8  H13 MOL d          60.318  47.510  36.099  0.00  0.00     0.091 H 
ATOM      9  H14 MOL d          59.443  46.619  38.900  0.00  0.00     0.091 H 
ATOM     10  H15 MOL d          57.938  47.255  36.319  0.00  0.00     0.090 H 
ATOM     11  H18 MOL d          58.620  49.508  36.326  0.00  0.00     0.133 H 
ENDROOT
BRANCH   3  12
ATOM     12  O4  MOL d          59.503  45.306  37.304  0.00  0.00    -0.348 OA
BRANCH  12  13
ATOM     13  C1  MOL d          60.477  44.506  37.972  0.00  0.00     0.159 C 
ATOM     14  C2  MOL d          59.714  43.435  38.729  0.00  0.00     0.110 C 
ATOM     15  C3  MOL d          60.676  42.431  39.335  0.00  0.00     0.092 C 
ATOM     16  H1  MOL d          59.059  42.904  38.022  0.00  0.00     0.094 H 
ATOM     17  C4  MOL d          61.672  41.914  38.316  0.00  0.00     0.090 C 
ATOM     18  H2  MOL d          61.241  42.928  40.138  0.00  0.00     0.091 H 
ATOM     19  C5  MOL d          62.307  43.080  37.583  0.00  0.00     0.089 C 
ATOM     20  H3  MOL d          61.146  41.277  37.590  0.00  0.00     0.091 H 
ATOM     21  O5  MOL d          61.317  43.918  37.004  0.00  0.00    -0.348 OA
ATOM     22  H4  MOL d          62.876  43.667  38.320  0.00  0.00     0.090 H 
ATOM     23  H7  MOL d          61.074  45.116  38.667  0.00  0.00     0.133 H 
BRANCH  14  24
ATOM     24  O2  MOL d          58.904  44.046  39.722  0.00  0.00    -0.388 OA
ATOM     25  H8  MOL d          58.046  43.637  39.725  0.00  0.00     0.210 HD
ENDBRANCH  14  24
BRANCH  15  26
ATOM     26  O3  MOL d          59.921  41.380  39.897  0.00  0.00    -0.390 OA
ATOM     27  H9  MOL d          60.490  40.639  40.069  0.00  0.00     0.210 HD
ENDBRANCH  15  26
BRANCH  17  28
ATOM     28  O4  MOL d          62.665  41.150  38.962  0.00  0.00    -0.390 OA
ATOM     29  H10 MOL d          63.240  41.727  39.452  0.00  0.00     0.210 HD
ENDBRANCH  17  28
BRANCH  19  30
ATOM     30  C6  MOL d          63.253  42.650  36.490  0.00  0.00     0.043 C 
ATOM     31  H5  MOL d          64.288  42.700  36.859  0.00  0.00     0.078 H 
ATOM     32  H6  MOL d          63.141  43.318  35.622  0.00  0.00     0.078 H 
BRANCH  30  33
ATOM     33  O6  MOL d          62.952  41.325  36.108  0.00  0.00    -0.398 OA
ATOM     34  H11 MOL d          62.017  41.243  35.962  0.00  0.00     0.209 HD
ENDBRANCH  30  33
ENDBRANCH  19  30
ENDBRANCH  12  13
ENDBRANCH   3  12
BRANCH   2  35
ATOM     35  O3  MOL d          61.698  47.070  37.563  0.00  0.00    -0.390 OA
ATOM     36  H20 MOL d          61.888  47.342  38.454  0.00  0.00     0.210 HD
ENDBRANCH   2  35
BRANCH   4  37
ATOM     37  C6  MOL d          56.797  46.401  37.895  0.00  0.00     0.043 C 
ATOM     38  H16 MOL d          56.653  45.528  37.242  0.00  0.00     0.078 H 
ATOM     39  H17 MOL d          55.896  47.032  37.867  0.00  0.00     0.078 H 
BRANCH  37  40
ATOM     40  O6  MOL d          57.027  45.963  39.226  0.00  0.00    -0.398 OA
ATOM     41  H21 MOL d          56.215  45.641  39.597  0.00  0.00     0.209 HD
ENDBRANCH  37  40
ENDBRANCH   4  37
BRANCH   1  42
ATOM     42  O2  MOL d          61.111  49.849  37.093  0.00  0.00    -0.388 OA
ATOM     43  H19 MOL d          61.589  49.400  36.406  0.00  0.00     0.210 HD
ENDBRANCH   1  42
BRANCH   5  44
ATOM     44  O4  MOL d          58.595  50.621  38.045  0.00  0.00    -0.348 OA
BRANCH  44  45
ATOM     45  C4  MOL d          57.269  50.986  38.360  0.00  0.00     0.097 C 
ATOM     46  C5  MOL d          56.984  52.404  37.868  0.00  0.00     0.119 C 
ATOM     47  O5  MOL d          55.660  52.784  38.241  0.00  0.00    -0.195 OA
ATOM     48  H24 MOL d          57.721  53.086  38.316  0.00  0.00     0.094 H 
ATOM     49  N1  MOL d          55.555  52.852  39.670  0.00  0.00     0.042 N 
ATOM     50  C2  MOL d          55.715  51.525  40.238  0.00  0.00     0.135 C 
ATOM     51  H31 MOL d          56.275  53.460  40.030  0.00  0.00     0.315 HD
ATOM     52  H32 MOL d          54.650  53.217  39.921  0.00  0.00     0.315 HD
ATOM     53  C3  MOL d          57.103  50.979  39.881  0.00  0.00     0.088 C 
ATOM     54  H27 MOL d          55.613  51.579  41.332  0.00  0.00     0.084 H 
ATOM     55  H28 MOL d          54.942  50.855  39.831  0.00  0.00     0.084 H 
ATOM     56  H26 MOL d          57.890  51.599  40.335  0.00  0.00     0.089 H 
ATOM     57  H25 MOL d          56.568  50.277  37.896  0.00  0.00     0.091 H 
BRANCH  46  58
ATOM     58  C6  MOL d          57.009  52.544  36.359  0.00  0.00     0.045 C 
ATOM     59  H22 MOL d          56.485  53.469  36.073  0.00  0.00     0.078 H 
ATOM     60  H23 MOL d          56.501  51.680  35.906  0.00  0.00     0.078 H 
BRANCH  58  61
ATOM     61  O6  MOL d          58.355  52.600  35.882  0.00  0.00    -0.398 OA
ATOM     62  H29 MOL d          58.925  52.896  36.581  0.00  0.00     0.209 HD
ENDBRANCH  58  61
ENDBRANCH  46  58
BRANCH  53  63
ATOM     63  O3  MOL d          57.155  49.661  40.416  0.00  0.00    -0.391 OA
ATOM     64  H30 MOL d          57.923  49.576  40.969  0.00  0.00     0.210 HD
ENDBRANCH  53  63
ENDBRANCH  44  45
ENDBRANCH   5  44
TORSDOF 16
ENDMDL
MODEL 6
REMARK VINA RESULT:      -5.2      3.010      9.123
REMARK  16 active torsions:
REMARK  status: ('A' for Active; 'I' for Inactive)
REMARK    1  A    between atoms: C2_1  and  O2_7 
REMARK    2  A    between atoms: C3_2  and  O3_8 
REMARK    3  A    between atoms: C4_3  and  O4_9 
REMARK    4  A    between atoms: C5_4  and  C6_5 
REMARK    5  A    between atoms: C6_5  and  O6_11 
REMARK    6  A    between atoms: O4_20  and  C1_6 
REMARK    7  A    between atoms: C2_12  and  O2_18 
REMARK    8  A    between atoms: C3_13  and  O3_19 
REMARK    9  A    between atoms: C4_14  and  O4_20 
REMARK   10  A    between atoms: C5_15  and  C6_16 
REMARK   11  A    between atoms: C6_16  and  O6_22 
REMARK   12  A    between atoms: O4_30  and  C1_17 
REMARK   13  A    between atoms: C5_24  and  C6_23 
REMARK   14  A    between atoms: C6_23  and  O6_28 
REMARK   15  A    between atoms: C4_25  and  O4_30 
REMARK   16  A    between atoms: C3_26  and  O3_31 
ROOT
ATOM      1  C2  MOL d          57.164  47.418  38.539  0.00  0.00     0.110 C 
ATOM      2  C3  MOL d          58.330  46.539  38.976  0.00  0.00     0.092 C 
ATOM      3  C4  MOL d          59.487  46.734  38.010  0.00  0.00     0.096 C 
ATOM      4  C5  MOL d          59.843  48.219  38.007  0.00  0.00     0.089 C 
ATOM      5  C1  MOL d          57.615  48.868  38.415  0.00  0.00     0.159 C 
ATOM      6  O5  MOL d          58.722  48.956  37.536  0.00  0.00    -0.348 OA
ATOM      7  H12 MOL d          56.814  47.068  37.556  0.00  0.00     0.094 H 
ATOM      8  H13 MOL d          58.647  46.829  39.989  0.00  0.00     0.091 H 
ATOM      9  H14 MOL d          59.189  46.423  36.998  0.00  0.00     0.091 H 
ATOM     10  H15 MOL d          60.072  48.516  39.041  0.00  0.00     0.090 H 
ATOM     11  H18 MOL d          57.874  49.275  39.403  0.00  0.00     0.133 H 
ENDROOT
BRANCH   3  12
ATOM     12  O4  MOL d          60.595  45.950  38.438  0.00  0.00    -0.348 OA
BRANCH  12  13
ATOM     13  C1  MOL d          60.768  44.706  37.762  0.00  0.00     0.159 C 
ATOM     14  C2  MOL d          62.043  44.829  36.948  0.00  0.00     0.110 C 
ATOM     15  C3  MOL d          62.401  43.493  36.326  0.00  0.00     0.092 C 
ATOM     16  H1  MOL d          62.862  45.130  37.618  0.00  0.00     0.094 H 
ATOM     17  C4  MOL d          62.395  42.372  37.347  0.00  0.00     0.090 C 
ATOM     18  H2  MOL d          61.653  43.253  35.555  0.00  0.00     0.091 H 
ATOM     19  C5  MOL d          61.102  42.409  38.138  0.00  0.00     0.089 C 
ATOM     20  H3  MOL d          63.242  42.509  38.036  0.00  0.00     0.091 H 
ATOM     21  O5  MOL d          60.900  43.685  38.726  0.00  0.00    -0.348 OA
ATOM     22  H4  MOL d          60.277  42.210  37.438  0.00  0.00     0.090 H 
ATOM     23  H7  MOL d          59.912  44.496  37.105  0.00  0.00     0.133 H 
BRANCH  14  24
ATOM     24  O2  MOL d          61.877  45.836  35.960  0.00  0.00    -0.388 OA
ATOM     25  H8  MOL d          61.970  45.449  35.097  0.00  0.00     0.210 HD
ENDBRANCH  14  24
BRANCH  15  26
ATOM     26  O3  MOL d          63.663  43.619  35.706  0.00  0.00    -0.390 OA
ATOM     27  H9  MOL d          64.208  42.877  35.945  0.00  0.00     0.210 HD
ENDBRANCH  15  26
BRANCH  17  28
ATOM     28  O4  MOL d          62.529  41.129  36.694  0.00  0.00    -0.390 OA
ATOM     29  H10 MOL d          62.668  41.274  35.766  0.00  0.00     0.210 HD
ENDBRANCH  17  28
BRANCH  19  30
ATOM     30  C6  MOL d          61.048  41.375  39.236  0.00  0.00     0.043 C 
ATOM     31  H5  MOL d          60.460  40.509  38.897  0.00  0.00     0.078 H 
ATOM     32  H6  MOL d          60.578  41.811  40.129  0.00  0.00     0.078 H 
BRANCH  30  33
ATOM     33  O6  MOL d          62.361  40.959  39.548  0.00  0.00    -0.398 OA
ATOM     34  H11 MOL d          62.611  40.246  38.972  0.00  0.00     0.209 HD
ENDBRANCH  30  33
ENDBRANCH  19  30
ENDBRANCH  12  13
ENDBRANCH   3  12
BRANCH   2  35
ATOM     35  O3  MOL d          57.930  45.180  38.984  0.00  0.00    -0.390 OA
ATOM     36  H20 MOL d          58.433  44.698  38.338  0.00  0.00     0.210 HD
ENDBRANCH   2  35
BRANCH   4  37
ATOM     37  C6  MOL d          61.010  48.597  37.135  0.00  0.00     0.043 C 
ATOM     38  H16 MOL d          60.984  49.678  36.936  0.00  0.00     0.078 H 
ATOM     39  H17 MOL d          60.951  48.046  36.185  0.00  0.00     0.078 H 
BRANCH  37  40
ATOM     40  O6  MOL d          62.221  48.267  37.798  0.00  0.00    -0.398 OA
ATOM     41  H21 MOL d          62.561  47.452  37.448  0.00  0.00     0.209 HD
ENDBRANCH  37  40
ENDBRANCH   4  37
BRANCH   1  42
ATOM     42  O2  MOL d          56.090  47.345  39.454  0.00  0.00    -0.388 OA
ATOM     43  H19 MOL d          55.443  46.729  39.132  0.00  0.00     0.210 HD
ENDBRANCH   1  42
BRANCH   5  44
ATOM     44  O4  MOL d          56.582  49.579  37.842  0.00  0.00    -0.348 OA
BRANCH  44  45
ATOM     45  C4  MOL d          56.318  50.862  38.365  0.00  0.00     0.097 C 
ATOM     46  C5  MOL d          57.407  51.841  37.931  0.00  0.00     0.119 C 
ATOM     47  O5  MOL d          57.161  53.121  38.510  0.00  0.00    -0.195 OA
ATOM     48  H24 MOL d          58.382  51.451  38.259  0.00  0.00     0.094 H 
ATOM     49  N1  MOL d          57.274  53.042  39.938  0.00  0.00     0.042 N 
ATOM     50  C2  MOL d          56.212  52.203  40.468  0.00  0.00     0.135 C 
ATOM     51  H31 MOL d          58.168  52.644  40.182  0.00  0.00     0.315 HD
ATOM     52  H32 MOL d          57.198  53.966  40.332  0.00  0.00     0.315 HD
ATOM     53  C3  MOL d          56.341  50.788  39.893  0.00  0.00     0.088 C 
ATOM     54  H27 MOL d          56.290  52.162  41.565  0.00  0.00     0.084 H 
ATOM     55  H28 MOL d          55.235  52.626  40.186  0.00  0.00     0.084 H 
ATOM     56  H26 MOL d          57.284  50.324  40.219  0.00  0.00     0.089 H 
ATOM     57  H25 MOL d          55.335  51.212  38.015  0.00  0.00     0.091 H 
BRANCH  46  58
ATOM     58  C6  MOL d          57.438  52.100  36.437  0.00  0.00     0.045 C 
ATOM     59  H22 MOL d          57.446  53.185  36.258  0.00  0.00     0.078 H 
ATOM     60  H23 MOL d          56.542  51.658  35.975  0.00  0.00     0.078 H 
BRANCH  58  61
ATOM     61  O6  MOL d          58.604  51.517  35.850  0.00  0.00    -0.398 OA
ATOM     62  H29 MOL d          58.683  51.808  34.950  0.00  0.00     0.209 HD
ENDBRANCH  58  61
ENDBRANCH  46  58
BRANCH  53  63
ATOM     63  O3  MOL d          55.236  50.054  40.407  0.00  0.00    -0.391 OA
ATOM     64  H30 MOL d          55.341  49.940  41.345  0.00  0.00     0.210 HD
ENDBRANCH  53  63
ENDBRANCH  44  45
ENDBRANCH   5  44
TORSDOF 16
ENDMDL
MODEL 7
REMARK VINA RESULT:      -5.1      1.979      3.256
REMARK  16 active torsions:
REMARK  status: ('A' for Active; 'I' for Inactive)
REMARK    1  A    between atoms: C2_1  and  O2_7 
REMARK    2  A    between atoms: C3_2  and  O3_8 
REMARK    3  A    between atoms: C4_3  and  O4_9 
REMARK    4  A    between atoms: C5_4  and  C6_5 
REMARK    5  A    between atoms: C6_5  and  O6_11 
REMARK    6  A    between atoms: O4_20  and  C1_6 
REMARK    7  A    between atoms: C2_12  and  O2_18 
REMARK    8  A    between atoms: C3_13  and  O3_19 
REMARK    9  A    between atoms: C4_14  and  O4_20 
REMARK   10  A    between atoms: C5_15  and  C6_16 
REMARK   11  A    between atoms: C6_16  and  O6_22 
REMARK   12  A    between atoms: O4_30  and  C1_17 
REMARK   13  A    between atoms: C5_24  and  C6_23 
REMARK   14  A    between atoms: C6_23  and  O6_28 
REMARK   15  A    between atoms: C4_25  and  O4_30 
REMARK   16  A    between atoms: C3_26  and  O3_31 
ROOT
ATOM      1  C2  MOL d          57.660  46.868  37.945  0.00  0.00     0.110 C 
ATOM      2  C3  MOL d          57.284  48.316  38.237  0.00  0.00     0.092 C 
ATOM      3  C4  MOL d          58.279  48.896  39.230  0.00  0.00     0.096 C 
ATOM      4  C5  MOL d          59.673  48.765  38.619  0.00  0.00     0.089 C 
ATOM      5  C1  MOL d          59.107  46.784  37.476  0.00  0.00     0.159 C 
ATOM      6  O5  MOL d          59.961  47.386  38.432  0.00  0.00    -0.348 OA
ATOM      7  H12 MOL d          57.552  46.286  38.873  0.00  0.00     0.094 H 
ATOM      8  H13 MOL d          57.318  48.898  37.304  0.00  0.00     0.091 H 
ATOM      9  H14 MOL d          58.235  48.337  40.176  0.00  0.00     0.091 H 
ATOM     10  H15 MOL d          59.667  49.276  37.645  0.00  0.00     0.090 H 
ATOM     11  H18 MOL d          59.222  47.271  36.496  0.00  0.00     0.133 H 
ENDROOT
BRANCH   3  12
ATOM     12  O4  MOL d          57.960  50.261  39.472  0.00  0.00    -0.348 OA
BRANCH  12  13
ATOM     13  C1  MOL d          57.120  50.880  38.498  0.00  0.00     0.159 C 
ATOM     14  C2  MOL d          56.223  51.845  39.250  0.00  0.00     0.110 C 
ATOM     15  C3  MOL d          55.409  52.676  38.276  0.00  0.00     0.092 C 
ATOM     16  H1  MOL d          56.853  52.525  39.843  0.00  0.00     0.094 H 
ATOM     17  C4  MOL d          56.278  53.306  37.205  0.00  0.00     0.090 C 
ATOM     18  H2  MOL d          54.681  52.018  37.778  0.00  0.00     0.091 H 
ATOM     19  C5  MOL d          57.175  52.250  36.588  0.00  0.00     0.089 C 
ATOM     20  H3  MOL d          56.904  54.086  37.664  0.00  0.00     0.091 H 
ATOM     21  O5  MOL d          57.934  51.580  37.584  0.00  0.00    -0.348 OA
ATOM     22  H4  MOL d          56.528  51.516  36.085  0.00  0.00     0.090 H 
ATOM     23  H7  MOL d          56.517  50.128  37.968  0.00  0.00     0.133 H 
BRANCH  14  24
ATOM     24  O2  MOL d          55.387  51.117  40.138  0.00  0.00    -0.388 OA
ATOM     25  H8  MOL d          54.946  51.722  40.724  0.00  0.00     0.210 HD
ENDBRANCH  14  24
BRANCH  15  26
ATOM     26  O3  MOL d          54.706  53.654  39.011  0.00  0.00    -0.390 OA
ATOM     27  H9  MOL d          55.091  53.737  39.875  0.00  0.00     0.210 HD
ENDBRANCH  15  26
BRANCH  17  28
ATOM     28  O4  MOL d          55.466  53.893  36.214  0.00  0.00    -0.390 OA
ATOM     29  H10 MOL d          54.606  54.073  36.576  0.00  0.00     0.210 HD
ENDBRANCH  17  28
BRANCH  19  30
ATOM     30  C6  MOL d          58.134  52.811  35.567  0.00  0.00     0.043 C 
ATOM     31  H5  MOL d          57.662  52.799  34.573  0.00  0.00     0.078 H 
ATOM     32  H6  MOL d          59.048  52.198  35.546  0.00  0.00     0.078 H 
BRANCH  30  33
ATOM     33  O6  MOL d          58.465  54.138  35.917  0.00  0.00    -0.398 OA
ATOM     34  H11 MOL d          57.929  54.413  36.652  0.00  0.00     0.209 HD
ENDBRANCH  30  33
ENDBRANCH  19  30
ENDBRANCH  12  13
ENDBRANCH   3  12
BRANCH   2  35
ATOM     35  O3  MOL d          55.974  48.372  38.774  0.00  0.00    -0.390 OA
ATOM     36  H20 MOL d          55.603  47.498  38.794  0.00  0.00     0.210 HD
ENDBRANCH   2  35
BRANCH   4  37
ATOM     37  C6  MOL d          60.791  49.336  39.448  0.00  0.00     0.043 C 
ATOM     38  H16 MOL d          60.656  49.043  40.499  0.00  0.00     0.078 H 
ATOM     39  H17 MOL d          60.782  50.433  39.368  0.00  0.00     0.078 H 
BRANCH  37  40
ATOM     40  O6  MOL d          62.033  48.838  38.974  0.00  0.00    -0.398 OA
ATOM     41  H21 MOL d          62.285  49.312  38.191  0.00  0.00     0.209 HD
ENDBRANCH  37  40
ENDBRANCH   4  37
BRANCH   1  42
ATOM     42  O2  MOL d          56.821  46.305  36.958  0.00  0.00    -0.388 OA
ATOM     43  H19 MOL d          57.205  45.496  36.641  0.00  0.00     0.210 HD
ENDBRANCH   1  42
BRANCH   5  44
ATOM     44  O4  MOL d          59.448  45.450  37.407  0.00  0.00    -0.348 OA
BRANCH  44  45
ATOM     45  C4  MOL d          60.470  45.002  38.270  0.00  0.00     0.097 C 
ATOM     46  C5  MOL d          61.608  44.382  37.459  0.00  0.00     0.119 C 
ATOM     47  O5  MOL d          62.610  43.883  38.342  0.00  0.00    -0.195 OA
ATOM     48  H24 MOL d          61.197  43.569  36.843  0.00  0.00     0.094 H 
ATOM     49  N1  MOL d          62.077  42.807  39.128  0.00  0.00     0.042 N 
ATOM     50  C2  MOL d          61.044  43.312  40.015  0.00  0.00     0.135 C 
ATOM     51  H31 MOL d          61.682  42.109  38.516  0.00  0.00     0.315 HD
ATOM     52  H32 MOL d          62.816  42.395  39.675  0.00  0.00     0.315 HD
ATOM     53  C3  MOL d          59.905  43.914  39.184  0.00  0.00     0.088 C 
ATOM     54  H27 MOL d          60.653  42.487  40.630  0.00  0.00     0.084 H 
ATOM     55  H28 MOL d          61.469  44.087  40.670  0.00  0.00     0.084 H 
ATOM     56  H26 MOL d          59.424  43.138  38.570  0.00  0.00     0.089 H 
ATOM     57  H25 MOL d          60.849  45.845  38.867  0.00  0.00     0.091 H 
BRANCH  46  58
ATOM     58  C6  MOL d          62.339  45.373  36.575  0.00  0.00     0.045 C 
ATOM     59  H22 MOL d          61.744  45.558  35.669  0.00  0.00     0.078 H 
ATOM     60  H23 MOL d          63.316  44.953  36.292  0.00  0.00     0.078 H 
BRANCH  58  61
ATOM     61  O6  MOL d          62.542  46.609  37.264  0.00  0.00    -0.398 OA
ATOM     62  H29 MOL d          62.447  46.467  38.199  0.00  0.00     0.209 HD
ENDBRANCH  58  61
ENDBRANCH  46  58
BRANCH  53  63
ATOM     63  O3  MOL d          58.971  44.439  40.121  0.00  0.00    -0.391 OA
ATOM     64  H30 MOL d          59.407  44.586  40.953  0.00  0.00     0.210 HD
ENDBRANCH  53  63
ENDBRANCH  44  45
ENDBRANCH   5  44
TORSDOF 16
ENDMDL
