MODEL 1
REMARK VINA RESULT:      -6.8      0.000      0.000
REMARK  12 active torsions:
REMARK  status: ('A' for Active; 'I' for Inactive)
REMARK    1  A    between atoms: O4_1  and  C4_2 
REMARK    2  A    between atoms: C3_6  and  O3_7 
REMARK    3  A    between atoms: C2_8  and  O2_9 
REMARK    4  A    between atoms: C1_10  and  O1_11 
REMARK    5  A    between atoms: N2_14  and  C8_15 
REMARK    6  A    between atoms: C8_15  and  C9_16 
REMARK    7  A    between atoms: C9_16  and  C10_17 
REMARK    8  A    between atoms: C10_17  and  C11_18 
REMARK    9  A    between atoms: C11_18  and  C12_19 
REMARK   10  A    between atoms: C12_19  and  C13_20 
REMARK   11  A    between atoms: C13_20  and  C14_21 
REMARK   12  A    between atoms: C14_21  and  C15_22 
ROOT
ATOM      1  C4  LGS d           4.385   3.738   4.313  0.00  0.00     0.084 C 
ATOM      2  C5  LGS d           4.192   4.836   5.365  0.00  0.00     0.066 C 
ATOM      3  C6  LGS d           2.799   4.970   5.979  0.00  0.00     0.050 C 
ATOM      4  O6  LGS d           3.041   5.132   7.399  0.00  0.00    -0.319 OA
ATOM      5  C3  LGS d           5.832   3.872   3.823  0.00  0.00     0.091 C 
ATOM      6  C2  LGS d           6.827   3.474   4.925  0.00  0.00     0.104 C 
ATOM      7  C1  LGS d           6.463   4.067   6.308  0.00  0.00     0.133 C 
ATOM      8  N1  LGS d           5.065   4.521   6.505  0.00  0.00    -0.307 N 
ATOM      9  C7  LGS d           4.341   4.751   7.658  0.00  0.00     0.241 C 
ATOM     10  N2  LGS d           4.819   4.684   8.904  0.00  0.00    -0.251 NA
ATOM     11  H2  LGS d           4.217   2.744   4.754  0.00  0.00     0.090 H 
ATOM     12  H3  LGS d           4.474   5.798   4.912  0.00  0.00     0.080 H 
ATOM     13  H4  LGS d           2.201   4.067   5.787  0.00  0.00     0.078 H 
ATOM     14  H5  LGS d           2.277   5.849   5.571  0.00  0.00     0.078 H 
ATOM     15  H6  LGS d           6.015   4.912   3.514  0.00  0.00     0.091 H 
ATOM     16  H8  LGS d           6.802   2.377   5.007  0.00  0.00     0.093 H 
ATOM     17  H10 LGS d           7.135   4.920   6.488  0.00  0.00     0.122 H 
ENDROOT
BRANCH  10  18
ATOM     18  C8  LGS d           4.175   5.123  10.149  0.00  0.00     0.019 C 
ATOM     19  H12 LGS d           4.679   4.646  11.002  0.00  0.00     0.067 H 
ATOM     20  H13 LGS d           3.117   4.822  10.132  0.00  0.00     0.067 H 
BRANCH  18  21
ATOM     21  C9  LGS d           4.260   6.637  10.304  0.00  0.00    -0.048 C 
ATOM     22  H14 LGS d           5.053   7.019   9.645  0.00  0.00     0.035 H 
ATOM     23  H15 LGS d           4.505   6.874  11.350  0.00  0.00     0.035 H 
BRANCH  21  24
ATOM     24  C10 LGS d           2.936   7.323   9.937  0.00  0.00    -0.064 C 
ATOM     25  H16 LGS d           2.955   7.573   8.865  0.00  0.00     0.033 H 
ATOM     26  H17 LGS d           2.842   8.246  10.527  0.00  0.00     0.033 H 
BRANCH  24  27
ATOM     27  C11 LGS d           1.700   6.433  10.214  0.00  0.00    -0.065 C 
ATOM     28  H18 LGS d           2.016   5.460  10.618  0.00  0.00     0.033 H 
ATOM     29  H19 LGS d           1.129   6.276   9.287  0.00  0.00     0.033 H 
BRANCH  27  30
ATOM     30  C12 LGS d           0.841   7.184  11.247  0.00  0.00    -0.065 C 
ATOM     31  H20 LGS d          -0.151   7.370  10.808  0.00  0.00     0.033 H 
ATOM     32  H21 LGS d           1.327   8.143  11.477  0.00  0.00     0.033 H 
BRANCH  30  33
ATOM     33  C13 LGS d           0.655   6.400  12.564  0.00  0.00    -0.065 C 
ATOM     34  H22 LGS d           0.242   5.405  12.338  0.00  0.00     0.033 H 
ATOM     35  H23 LGS d          -0.042   6.947  13.215  0.00  0.00     0.033 H 
BRANCH  33  36
ATOM     36  C14 LGS d           2.003   6.236  13.289  0.00  0.00    -0.069 C 
ATOM     37  H24 LGS d           2.384   7.229  13.571  0.00  0.00     0.032 H 
ATOM     38  H25 LGS d           2.719   5.746  12.614  0.00  0.00     0.032 H 
BRANCH  36  39
ATOM     39  C15 LGS d           1.840   5.384  14.552  0.00  0.00    -0.077 C 
ATOM     40  H26 LGS d           1.963   4.322  14.295  0.00  0.00     0.027 H 
ATOM     41  H27 LGS d           0.839   5.546  14.977  0.00  0.00     0.027 H 
ATOM     42  H28 LGS d           2.603   5.674  15.290  0.00  0.00     0.027 H 
ENDBRANCH  36  39
ENDBRANCH  33  36
ENDBRANCH  30  33
ENDBRANCH  27  30
ENDBRANCH  24  27
ENDBRANCH  21  24
ENDBRANCH  18  21
ENDBRANCH  10  18
BRANCH   7  43
ATOM     43  O1  LGS d           6.653   3.067   7.327  0.00  0.00    -0.374 OA
ATOM     44  H11 LGS d           7.368   3.327   7.896  0.00  0.00     0.212 HD
ENDBRANCH   7  43
BRANCH   1  45
ATOM     45  O4  LGS d           3.491   3.940   3.232  0.00  0.00    -0.391 OA
ATOM     46  H1  LGS d           3.802   4.660   2.695  0.00  0.00     0.210 HD
ENDBRANCH   1  45
BRANCH   6  47
ATOM     47  O2  LGS d           8.167   3.869   4.611  0.00  0.00    -0.389 OA
ATOM     48  H9  LGS d           8.587   4.210   5.392  0.00  0.00     0.210 HD
ENDBRANCH   6  47
BRANCH   5  49
ATOM     49  O3  LGS d           6.061   2.987   2.724  0.00  0.00    -0.390 OA
ATOM     50  H7  LGS d           6.169   2.101   3.051  0.00  0.00     0.210 HD
ENDBRANCH   5  49
TORSDOF 12
ENDMDL
MODEL 2
REMARK VINA RESULT:      -6.7      1.521      3.278
REMARK  12 active torsions:
REMARK  status: ('A' for Active; 'I' for Inactive)
REMARK    1  A    between atoms: O4_1  and  C4_2 
REMARK    2  A    between atoms: C3_6  and  O3_7 
REMARK    3  A    between atoms: C2_8  and  O2_9 
REMARK    4  A    between atoms: C1_10  and  O1_11 
REMARK    5  A    between atoms: N2_14  and  C8_15 
REMARK    6  A    between atoms: C8_15  and  C9_16 
REMARK    7  A    between atoms: C9_16  and  C10_17 
REMARK    8  A    between atoms: C10_17  and  C11_18 
REMARK    9  A    between atoms: C11_18  and  C12_19 
REMARK   10  A    between atoms: C12_19  and  C13_20 
REMARK   11  A    between atoms: C13_20  and  C14_21 
REMARK   12  A    between atoms: C14_21  and  C15_22 
ROOT
ATOM      1  C4  LGS d           5.509   3.662   3.748  0.00  0.00     0.084 C 
ATOM      2  C5  LGS d           6.297   3.442   5.045  0.00  0.00     0.066 C 
ATOM      3  C6  LGS d           7.732   3.964   5.082  0.00  0.00     0.050 C 
ATOM      4  O6  LGS d           7.849   4.612   6.375  0.00  0.00    -0.319 OA
ATOM      5  C3  LGS d           4.149   2.987   3.959  0.00  0.00     0.091 C 
ATOM      6  C2  LGS d           3.313   3.746   5.003  0.00  0.00     0.104 C 
ATOM      7  C1  LGS d           4.133   4.149   6.253  0.00  0.00     0.133 C 
ATOM      8  N1  LGS d           5.609   4.179   6.115  0.00  0.00    -0.307 N 
ATOM      9  C7  LGS d           6.578   4.808   6.872  0.00  0.00     0.241 C 
ATOM     10  N2  LGS d           6.362   5.488   8.002  0.00  0.00    -0.251 NA
ATOM     11  H2  LGS d           5.382   4.737   3.550  0.00  0.00     0.090 H 
ATOM     12  H3  LGS d           6.307   2.362   5.260  0.00  0.00     0.080 H 
ATOM     13  H4  LGS d           7.903   4.685   4.269  0.00  0.00     0.078 H 
ATOM     14  H5  LGS d           8.450   3.136   4.996  0.00  0.00     0.078 H 
ATOM     15  H6  LGS d           4.306   1.950   4.289  0.00  0.00     0.091 H 
ATOM     16  H8  LGS d           2.948   4.665   4.523  0.00  0.00     0.093 H 
ATOM     17  H10 LGS d           3.873   3.447   7.059  0.00  0.00     0.122 H 
ENDROOT
BRANCH  10  18
ATOM     18  C8  LGS d           7.353   5.989   8.964  0.00  0.00     0.019 C 
ATOM     19  H12 LGS d           8.015   6.706   8.457  0.00  0.00     0.067 H 
ATOM     20  H13 LGS d           7.948   5.144   9.341  0.00  0.00     0.067 H 
BRANCH  18  21
ATOM     21  C9  LGS d           6.673   6.683  10.138  0.00  0.00    -0.048 C 
ATOM     22  H14 LGS d           6.350   7.685   9.821  0.00  0.00     0.035 H 
ATOM     23  H15 LGS d           7.395   6.774  10.964  0.00  0.00     0.035 H 
BRANCH  21  24
ATOM     24  C10 LGS d           5.449   5.899  10.632  0.00  0.00    -0.064 C 
ATOM     25  H16 LGS d           5.789   5.119  11.330  0.00  0.00     0.033 H 
ATOM     26  H17 LGS d           4.960   5.428   9.766  0.00  0.00     0.033 H 
BRANCH  24  27
ATOM     27  C11 LGS d           4.414   6.793  11.357  0.00  0.00    -0.065 C 
ATOM     28  H18 LGS d           3.963   7.502  10.648  0.00  0.00     0.033 H 
ATOM     29  H19 LGS d           4.899   7.349  12.174  0.00  0.00     0.033 H 
BRANCH  27  30
ATOM     30  C12 LGS d           3.338   5.849  11.923  0.00  0.00    -0.065 C 
ATOM     31  H20 LGS d           2.729   6.407  12.649  0.00  0.00     0.033 H 
ATOM     32  H21 LGS d           3.839   5.011  12.431  0.00  0.00     0.033 H 
BRANCH  30  33
ATOM     33  C13 LGS d           2.404   5.275  10.836  0.00  0.00    -0.065 C 
ATOM     34  H22 LGS d           1.652   4.627  11.310  0.00  0.00     0.033 H 
ATOM     35  H23 LGS d           2.998   4.685  10.123  0.00  0.00     0.033 H 
BRANCH  33  36
ATOM     36  C14 LGS d           1.691   6.412  10.082  0.00  0.00    -0.069 C 
ATOM     37  H24 LGS d           1.162   5.993   9.214  0.00  0.00     0.032 H 
ATOM     38  H25 LGS d           2.439   7.142   9.739  0.00  0.00     0.032 H 
BRANCH  36  39
ATOM     39  C15 LGS d           0.682   7.118  10.992  0.00  0.00    -0.077 C 
ATOM     40  H26 LGS d           1.218   7.751  11.713  0.00  0.00     0.027 H 
ATOM     41  H27 LGS d           0.089   6.367  11.534  0.00  0.00     0.027 H 
ATOM     42  H28 LGS d           0.013   7.743  10.382  0.00  0.00     0.027 H 
ENDBRANCH  36  39
ENDBRANCH  33  36
ENDBRANCH  30  33
ENDBRANCH  27  30
ENDBRANCH  24  27
ENDBRANCH  21  24
ENDBRANCH  18  21
ENDBRANCH  10  18
BRANCH   7  43
ATOM     43  O1  LGS d           3.791   5.494   6.641  0.00  0.00    -0.374 OA
ATOM     44  H11 LGS d           3.995   6.090   5.929  0.00  0.00     0.212 HD
ENDBRANCH   7  43
BRANCH   1  45
ATOM     45  O4  LGS d           6.185   3.051   2.662  0.00  0.00    -0.391 OA
ATOM     46  H1  LGS d           5.945   2.133   2.617  0.00  0.00     0.210 HD
ENDBRANCH   1  45
BRANCH   6  47
ATOM     47  O2  LGS d           2.180   2.988   5.441  0.00  0.00    -0.389 OA
ATOM     48  H9  LGS d           1.577   3.561   5.902  0.00  0.00     0.210 HD
ENDBRANCH   6  47
BRANCH   5  49
ATOM     49  O3  LGS d           3.399   3.007   2.742  0.00  0.00    -0.390 OA
ATOM     50  H7  LGS d           3.098   2.127   2.543  0.00  0.00     0.210 HD
ENDBRANCH   5  49
TORSDOF 12
ENDMDL
MODEL 3
REMARK VINA RESULT:      -6.6      2.969      6.954
REMARK  12 active torsions:
REMARK  status: ('A' for Active; 'I' for Inactive)
REMARK    1  A    between atoms: O4_1  and  C4_2 
REMARK    2  A    between atoms: C3_6  and  O3_7 
REMARK    3  A    between atoms: C2_8  and  O2_9 
REMARK    4  A    between atoms: C1_10  and  O1_11 
REMARK    5  A    between atoms: N2_14  and  C8_15 
REMARK    6  A    between atoms: C8_15  and  C9_16 
REMARK    7  A    between atoms: C9_16  and  C10_17 
REMARK    8  A    between atoms: C10_17  and  C11_18 
REMARK    9  A    between atoms: C11_18  and  C12_19 
REMARK   10  A    between atoms: C12_19  and  C13_20 
REMARK   11  A    between atoms: C13_20  and  C14_21 
REMARK   12  A    between atoms: C14_21  and  C15_22 
ROOT
ATOM      1  C4  LGS d           4.922   7.200  11.327  0.00  0.00     0.084 C 
ATOM      2  C5  LGS d           4.897   7.405   9.807  0.00  0.00     0.066 C 
ATOM      3  C6  LGS d           6.109   8.092   9.180  0.00  0.00     0.050 C 
ATOM      4  O6  LGS d           6.403   7.304   7.998  0.00  0.00    -0.319 OA
ATOM      5  C3  LGS d           3.575   6.564  11.690  0.00  0.00     0.091 C 
ATOM      6  C2  LGS d           3.480   5.128  11.149  0.00  0.00     0.104 C 
ATOM      7  C1  LGS d           3.982   4.999   9.690  0.00  0.00     0.133 C 
ATOM      8  N1  LGS d           4.862   6.077   9.178  0.00  0.00    -0.307 N 
ATOM      9  C7  LGS d           5.737   6.102   8.110  0.00  0.00     0.241 C 
ATOM     10  N2  LGS d           5.907   5.119   7.220  0.00  0.00    -0.251 NA
ATOM     11  H2  LGS d           5.753   6.538  11.614  0.00  0.00     0.090 H 
ATOM     12  H3  LGS d           3.993   7.980   9.554  0.00  0.00     0.080 H 
ATOM     13  H4  LGS d           6.962   8.084   9.875  0.00  0.00     0.078 H 
ATOM     14  H5  LGS d           5.869   9.130   8.905  0.00  0.00     0.078 H 
ATOM     15  H6  LGS d           2.762   7.175  11.272  0.00  0.00     0.091 H 
ATOM     16  H8  LGS d           4.117   4.496  11.785  0.00  0.00     0.093 H 
ATOM     17  H10 LGS d           3.096   4.936   9.041  0.00  0.00     0.122 H 
ENDROOT
BRANCH  10  18
ATOM     18  C8  LGS d           6.646   5.161   5.951  0.00  0.00     0.019 C 
ATOM     19  H12 LGS d           7.717   5.295   6.164  0.00  0.00     0.067 H 
ATOM     20  H13 LGS d           6.282   6.007   5.350  0.00  0.00     0.067 H 
BRANCH  18  21
ATOM     21  C9  LGS d           6.453   3.870   5.163  0.00  0.00    -0.048 C 
ATOM     22  H14 LGS d           7.396   3.303   5.172  0.00  0.00     0.035 H 
ATOM     23  H15 LGS d           6.186   4.123   4.127  0.00  0.00     0.035 H 
BRANCH  21  24
ATOM     24  C10 LGS d           5.343   2.996   5.764  0.00  0.00    -0.064 C 
ATOM     25  H16 LGS d           5.103   3.375   6.769  0.00  0.00     0.033 H 
ATOM     26  H17 LGS d           5.712   1.962   5.841  0.00  0.00     0.033 H 
BRANCH  24  27
ATOM     27  C11 LGS d           4.050   2.997   4.915  0.00  0.00    -0.065 C 
ATOM     28  H18 LGS d           3.804   1.973   4.596  0.00  0.00     0.033 H 
ATOM     29  H19 LGS d           4.178   3.636   4.028  0.00  0.00     0.033 H 
BRANCH  27  30
ATOM     30  C12 LGS d           2.933   3.557   5.815  0.00  0.00    -0.065 C 
ATOM     31  H20 LGS d           3.127   3.241   6.850  0.00  0.00     0.033 H 
ATOM     32  H21 LGS d           1.971   3.141   5.478  0.00  0.00     0.033 H 
BRANCH  30  33
ATOM     33  C13 LGS d           2.842   5.097   5.779  0.00  0.00    -0.065 C 
ATOM     34  H22 LGS d           3.785   5.524   6.151  0.00  0.00     0.033 H 
ATOM     35  H23 LGS d           2.012   5.425   6.422  0.00  0.00     0.033 H 
BRANCH  33  36
ATOM     36  C14 LGS d           2.593   5.590   4.342  0.00  0.00    -0.069 C 
ATOM     37  H24 LGS d           1.670   6.187   4.320  0.00  0.00     0.032 H 
ATOM     38  H25 LGS d           2.485   4.722   3.676  0.00  0.00     0.032 H 
BRANCH  36  39
ATOM     39  C15 LGS d           3.760   6.453   3.854  0.00  0.00    -0.077 C 
ATOM     40  H26 LGS d           4.542   5.807   3.430  0.00  0.00     0.027 H 
ATOM     41  H27 LGS d           4.174   7.022   4.700  0.00  0.00     0.027 H 
ATOM     42  H28 LGS d           3.403   7.151   3.083  0.00  0.00     0.027 H 
ENDBRANCH  36  39
ENDBRANCH  33  36
ENDBRANCH  30  33
ENDBRANCH  27  30
ENDBRANCH  24  27
ENDBRANCH  21  24
ENDBRANCH  18  21
ENDBRANCH  10  18
BRANCH   7  43
ATOM     43  O1  LGS d           4.777   3.805   9.556  0.00  0.00    -0.374 OA
ATOM     44  H11 LGS d           4.238   3.045   9.740  0.00  0.00     0.212 HD
ENDBRANCH   7  43
BRANCH   1  45
ATOM     45  O4  LGS d           5.056   8.450  11.981  0.00  0.00    -0.391 OA
ATOM     46  H1  LGS d           5.711   8.973  11.533  0.00  0.00     0.210 HD
ENDBRANCH   1  45
BRANCH   6  47
ATOM     47  O2  LGS d           2.143   4.617  11.206  0.00  0.00    -0.389 OA
ATOM     48  H9  LGS d           1.671   5.047  11.909  0.00  0.00     0.210 HD
ENDBRANCH   6  47
BRANCH   5  49
ATOM     49  O3  LGS d           3.443   6.476  13.110  0.00  0.00    -0.390 OA
ATOM     50  H7  LGS d           2.546   6.669  13.356  0.00  0.00     0.210 HD
ENDBRANCH   5  49
TORSDOF 12
ENDMDL
MODEL 4
REMARK VINA RESULT:      -6.4      2.062      2.679
REMARK  12 active torsions:
REMARK  status: ('A' for Active; 'I' for Inactive)
REMARK    1  A    between atoms: O4_1  and  C4_2 
REMARK    2  A    between atoms: C3_6  and  O3_7 
REMARK    3  A    between atoms: C2_8  and  O2_9 
REMARK    4  A    between atoms: C1_10  and  O1_11 
REMARK    5  A    between atoms: N2_14  and  C8_15 
REMARK    6  A    between atoms: C8_15  and  C9_16 
REMARK    7  A    between atoms: C9_16  and  C10_17 
REMARK    8  A    between atoms: C10_17  and  C11_18 
REMARK    9  A    between atoms: C11_18  and  C12_19 
REMARK   10  A    between atoms: C12_19  and  C13_20 
REMARK   11  A    between atoms: C13_20  and  C14_21 
REMARK   12  A    between atoms: C14_21  and  C15_22 
ROOT
ATOM      1  C4  LGS d           3.433   3.900   5.347  0.00  0.00     0.084 C 
ATOM      2  C5  LGS d           3.240   4.468   6.758  0.00  0.00     0.066 C 
ATOM      3  C6  LGS d           3.196   3.466   7.909  0.00  0.00     0.050 C 
ATOM      4  O6  LGS d           4.030   4.056   8.938  0.00  0.00    -0.319 OA
ATOM      5  C3  LGS d           3.369   5.100   4.395  0.00  0.00     0.091 C 
ATOM      6  C2  LGS d           4.595   6.011   4.572  0.00  0.00     0.104 C 
ATOM      7  C1  LGS d           4.943   6.271   6.058  0.00  0.00     0.133 C 
ATOM      8  N1  LGS d           4.399   5.322   7.058  0.00  0.00    -0.307 N 
ATOM      9  C7  LGS d           4.785   5.054   8.357  0.00  0.00     0.241 C 
ATOM     10  N2  LGS d           5.733   5.705   9.037  0.00  0.00    -0.251 NA
ATOM     11  H2  LGS d           4.406   3.392   5.264  0.00  0.00     0.090 H 
ATOM     12  H3  LGS d           2.311   5.058   6.765  0.00  0.00     0.080 H 
ATOM     13  H4  LGS d           3.601   2.493   7.592  0.00  0.00     0.078 H 
ATOM     14  H5  LGS d           2.166   3.335   8.272  0.00  0.00     0.078 H 
ATOM     15  H6  LGS d           2.450   5.671   4.593  0.00  0.00     0.091 H 
ATOM     16  H8  LGS d           5.451   5.500   4.106  0.00  0.00     0.093 H 
ATOM     17  H10 LGS d           4.586   7.282   6.307  0.00  0.00     0.122 H 
ENDROOT
BRANCH  10  18
ATOM     18  C8  LGS d           6.041   5.623  10.471  0.00  0.00     0.019 C 
ATOM     19  H12 LGS d           7.105   5.375  10.596  0.00  0.00     0.067 H 
ATOM     20  H13 LGS d           5.424   4.835  10.927  0.00  0.00     0.067 H 
BRANCH  18  21
ATOM     21  C9  LGS d           5.753   6.947  11.168  0.00  0.00    -0.048 C 
ATOM     22  H14 LGS d           5.771   7.755  10.422  0.00  0.00     0.035 H 
ATOM     23  H15 LGS d           6.531   7.128  11.925  0.00  0.00     0.035 H 
BRANCH  21  24
ATOM     24  C10 LGS d           4.381   6.941  11.859  0.00  0.00    -0.064 C 
ATOM     25  H16 LGS d           3.696   7.585  11.287  0.00  0.00     0.033 H 
ATOM     26  H17 LGS d           4.498   7.342  12.877  0.00  0.00     0.033 H 
BRANCH  24  27
ATOM     27  C11 LGS d           3.762   5.526  11.954  0.00  0.00    -0.065 C 
ATOM     28  H18 LGS d           3.953   5.094  12.948  0.00  0.00     0.033 H 
ATOM     29  H19 LGS d           4.191   4.870  11.181  0.00  0.00     0.033 H 
BRANCH  27  30
ATOM     30  C12 LGS d           2.248   5.692  11.728  0.00  0.00    -0.065 C 
ATOM     31  H20 LGS d           1.871   6.451  12.429  0.00  0.00     0.033 H 
ATOM     32  H21 LGS d           1.756   4.729  11.929  0.00  0.00     0.033 H 
BRANCH  30  33
ATOM     33  C13 LGS d           1.896   6.132  10.291  0.00  0.00    -0.065 C 
ATOM     34  H22 LGS d           1.436   5.288   9.756  0.00  0.00     0.033 H 
ATOM     35  H23 LGS d           2.815   6.438   9.771  0.00  0.00     0.033 H 
BRANCH  33  36
ATOM     36  C14 LGS d           0.910   7.315  10.315  0.00  0.00    -0.069 C 
ATOM     37  H24 LGS d           0.260   7.261   9.429  0.00  0.00     0.032 H 
ATOM     38  H25 LGS d           1.477   8.257  10.297  0.00  0.00     0.032 H 
BRANCH  36  39
ATOM     39  C15 LGS d           0.044   7.274  11.577  0.00  0.00    -0.077 C 
ATOM     40  H26 LGS d           0.021   6.249  11.973  0.00  0.00     0.027 H 
ATOM     41  H27 LGS d          -0.979   7.594  11.329  0.00  0.00     0.027 H 
ATOM     42  H28 LGS d           0.466   7.952  12.334  0.00  0.00     0.027 H 
ENDBRANCH  36  39
ENDBRANCH  33  36
ENDBRANCH  30  33
ENDBRANCH  27  30
ENDBRANCH  24  27
ENDBRANCH  21  24
ENDBRANCH  18  21
ENDBRANCH  10  18
BRANCH   7  43
ATOM     43  O1  LGS d           6.370   6.193   6.240  0.00  0.00    -0.374 OA
ATOM     44  H11 LGS d           6.570   6.194   7.169  0.00  0.00     0.212 HD
ENDBRANCH   7  43
BRANCH   1  45
ATOM     45  O4  LGS d           2.389   2.990   5.045  0.00  0.00    -0.391 OA
ATOM     46  H1  LGS d           1.607   3.236   5.525  0.00  0.00     0.210 HD
ENDBRANCH   1  45
BRANCH   6  47
ATOM     47  O2  LGS d           4.425   7.278   3.926  0.00  0.00    -0.389 OA
ATOM     48  H9  LGS d           3.881   7.837   4.469  0.00  0.00     0.210 HD
ENDBRANCH   6  47
BRANCH   5  49
ATOM     49  O3  LGS d           3.385   4.650   3.039  0.00  0.00    -0.390 OA
ATOM     50  H7  LGS d           4.139   4.088   2.902  0.00  0.00     0.210 HD
ENDBRANCH   5  49
TORSDOF 12
ENDMDL
MODEL 5
REMARK VINA RESULT:      -6.2      2.765      7.589
REMARK  12 active torsions:
REMARK  status: ('A' for Active; 'I' for Inactive)
REMARK    1  A    between atoms: O4_1  and  C4_2 
REMARK    2  A    between atoms: C3_6  and  O3_7 
REMARK    3  A    between atoms: C2_8  and  O2_9 
REMARK    4  A    between atoms: C1_10  and  O1_11 
REMARK    5  A    between atoms: N2_14  and  C8_15 
REMARK    6  A    between atoms: C8_15  and  C9_16 
REMARK    7  A    between atoms: C9_16  and  C10_17 
REMARK    8  A    between atoms: C10_17  and  C11_18 
REMARK    9  A    between atoms: C11_18  and  C12_19 
REMARK   10  A    between atoms: C12_19  and  C13_20 
REMARK   11  A    between atoms: C13_20  and  C14_21 
REMARK   12  A    between atoms: C14_21  and  C15_22 
ROOT
ATOM      1  C4  LGS d           4.387   7.065  10.992  0.00  0.00     0.084 C 
ATOM      2  C5  LGS d           3.985   7.069   9.512  0.00  0.00     0.066 C 
ATOM      3  C6  LGS d           5.087   7.357   8.494  0.00  0.00     0.050 C 
ATOM      4  O6  LGS d           4.883   6.374   7.448  0.00  0.00    -0.319 OA
ATOM      5  C3  LGS d           3.095   6.824  11.781  0.00  0.00     0.091 C 
ATOM      6  C2  LGS d           2.573   5.394  11.561  0.00  0.00     0.104 C 
ATOM      7  C1  LGS d           2.618   4.959  10.075  0.00  0.00     0.133 C 
ATOM      8  N1  LGS d           3.517   5.717   9.173  0.00  0.00    -0.307 N 
ATOM      9  C7  LGS d           4.050   5.391   7.941  0.00  0.00     0.241 C 
ATOM     10  N2  LGS d           3.771   4.289   7.240  0.00  0.00    -0.251 NA
ATOM     11  H2  LGS d           5.118   6.267  11.192  0.00  0.00     0.090 H 
ATOM     12  H3  LGS d           3.178   7.805   9.378  0.00  0.00     0.080 H 
ATOM     13  H4  LGS d           6.080   7.236   8.953  0.00  0.00     0.078 H 
ATOM     14  H5  LGS d           4.990   8.377   8.093  0.00  0.00     0.078 H 
ATOM     15  H6  LGS d           2.335   7.551  11.462  0.00  0.00     0.091 H 
ATOM     16  H8  LGS d           3.224   4.718  12.134  0.00  0.00     0.093 H 
ATOM     17  H10 LGS d           1.592   5.025   9.682  0.00  0.00     0.122 H 
ENDROOT
BRANCH  10  18
ATOM     18  C8  LGS d           4.125   3.985   5.847  0.00  0.00     0.019 C 
ATOM     19  H12 LGS d           4.367   2.916   5.763  0.00  0.00     0.067 H 
ATOM     20  H13 LGS d           5.001   4.584   5.559  0.00  0.00     0.067 H 
BRANCH  18  21
ATOM     21  C9  LGS d           2.970   4.309   4.906  0.00  0.00    -0.048 C 
ATOM     22  H14 LGS d           2.035   3.936   5.349  0.00  0.00     0.035 H 
ATOM     23  H15 LGS d           3.145   3.808   3.942  0.00  0.00     0.035 H 
BRANCH  21  24
ATOM     24  C10 LGS d           2.838   5.820   4.665  0.00  0.00    -0.064 C 
ATOM     25  H16 LGS d           3.221   6.352   5.549  0.00  0.00     0.033 H 
ATOM     26  H17 LGS d           1.774   6.062   4.524  0.00  0.00     0.033 H 
BRANCH  24  27
ATOM     27  C11 LGS d           3.623   6.301   3.421  0.00  0.00    -0.065 C 
ATOM     28  H18 LGS d           2.986   6.945   2.796  0.00  0.00     0.033 H 
ATOM     29  H19 LGS d           3.964   5.439   2.829  0.00  0.00     0.033 H 
BRANCH  27  30
ATOM     30  C12 LGS d           4.832   7.097   3.945  0.00  0.00    -0.065 C 
ATOM     31  H20 LGS d           4.611   7.436   4.968  0.00  0.00     0.033 H 
ATOM     32  H21 LGS d           4.986   7.970   3.294  0.00  0.00     0.033 H 
BRANCH  30  33
ATOM     33  C13 LGS d           6.135   6.269   3.973  0.00  0.00    -0.065 C 
ATOM     34  H22 LGS d           5.883   5.200   4.033  0.00  0.00     0.033 H 
ATOM     35  H23 LGS d           6.727   6.556   4.854  0.00  0.00     0.033 H 
BRANCH  33  36
ATOM     36  C14 LGS d           6.964   6.524   2.701  0.00  0.00    -0.069 C 
ATOM     37  H24 LGS d           7.753   7.257   2.926  0.00  0.00     0.032 H 
ATOM     38  H25 LGS d           6.306   6.924   1.916  0.00  0.00     0.032 H 
BRANCH  36  39
ATOM     39  C15 LGS d           7.609   5.228   2.203  0.00  0.00    -0.077 C 
ATOM     40  H26 LGS d           8.317   4.857   2.958  0.00  0.00     0.027 H 
ATOM     41  H27 LGS d           8.144   5.423   1.262  0.00  0.00     0.027 H 
ATOM     42  H28 LGS d           6.828   4.472   2.031  0.00  0.00     0.027 H 
ENDBRANCH  36  39
ENDBRANCH  33  36
ENDBRANCH  30  33
ENDBRANCH  27  30
ENDBRANCH  24  27
ENDBRANCH  21  24
ENDBRANCH  18  21
ENDBRANCH  10  18
BRANCH   7  43
ATOM     43  O1  LGS d           3.094   3.602   9.984  0.00  0.00    -0.374 OA
ATOM     44  H11 LGS d           3.443   3.448   9.115  0.00  0.00     0.212 HD
ENDBRANCH   7  43
BRANCH   1  45
ATOM     45  O4  LGS d           4.940   8.321  11.346  0.00  0.00    -0.391 OA
ATOM     46  H1  LGS d           4.752   8.502  12.260  0.00  0.00     0.210 HD
ENDBRANCH   1  45
BRANCH   6  47
ATOM     47  O2  LGS d           1.231   5.231  12.032  0.00  0.00    -0.389 OA
ATOM     48  H9  LGS d           0.981   4.317  11.961  0.00  0.00     0.210 HD
ENDBRANCH   6  47
BRANCH   5  49
ATOM     49  O3  LGS d           3.346   6.958  13.181  0.00  0.00    -0.390 OA
ATOM     50  H7  LGS d           4.229   6.664  13.373  0.00  0.00     0.210 HD
ENDBRANCH   5  49
TORSDOF 12
ENDMDL
MODEL 6
REMARK VINA RESULT:      -6.1      1.483      2.849
REMARK  12 active torsions:
REMARK  status: ('A' for Active; 'I' for Inactive)
REMARK    1  A    between atoms: O4_1  and  C4_2 
REMARK    2  A    between atoms: C3_6  and  O3_7 
REMARK    3  A    between atoms: C2_8  and  O2_9 
REMARK    4  A    between atoms: C1_10  and  O1_11 
REMARK    5  A    between atoms: N2_14  and  C8_15 
REMARK    6  A    between atoms: C8_15  and  C9_16 
REMARK    7  A    between atoms: C9_16  and  C10_17 
REMARK    8  A    between atoms: C10_17  and  C11_18 
REMARK    9  A    between atoms: C11_18  and  C12_19 
REMARK   10  A    between atoms: C12_19  and  C13_20 
REMARK   11  A    between atoms: C13_20  and  C14_21 
REMARK   12  A    between atoms: C14_21  and  C15_22 
ROOT
ATOM      1  C4  LGS d           7.055   3.910   4.707  0.00  0.00     0.084 C 
ATOM      2  C5  LGS d           6.619   4.081   6.167  0.00  0.00     0.066 C 
ATOM      3  C6  LGS d           7.671   4.593   7.149  0.00  0.00     0.050 C 
ATOM      4  O6  LGS d           6.976   5.590   7.940  0.00  0.00    -0.319 OA
ATOM      5  C3  LGS d           5.844   3.326   3.969  0.00  0.00     0.091 C 
ATOM      6  C2  LGS d           4.707   4.356   3.873  0.00  0.00     0.104 C 
ATOM      7  C1  LGS d           4.462   5.109   5.204  0.00  0.00     0.133 C 
ATOM      8  N1  LGS d           5.559   5.098   6.201  0.00  0.00    -0.307 N 
ATOM      9  C7  LGS d           5.810   5.922   7.280  0.00  0.00     0.241 C 
ATOM     10  N2  LGS d           5.013   6.903   7.713  0.00  0.00    -0.251 NA
ATOM     11  H2  LGS d           7.341   4.880   4.273  0.00  0.00     0.090 H 
ATOM     12  H3  LGS d           6.241   3.112   6.526  0.00  0.00     0.080 H 
ATOM     13  H4  LGS d           8.518   5.044   6.611  0.00  0.00     0.078 H 
ATOM     14  H5  LGS d           8.036   3.776   7.789  0.00  0.00     0.078 H 
ATOM     15  H6  LGS d           5.492   2.431   4.504  0.00  0.00     0.091 H 
ATOM     16  H8  LGS d           4.999   5.094   3.112  0.00  0.00     0.093 H 
ATOM     17  H10 LGS d           3.565   4.673   5.668  0.00  0.00     0.122 H 
ENDROOT
BRANCH  10  18
ATOM     18  C8  LGS d           5.108   7.665   8.965  0.00  0.00     0.019 C 
ATOM     19  H12 LGS d           4.987   8.736   8.745  0.00  0.00     0.067 H 
ATOM     20  H13 LGS d           6.095   7.492   9.418  0.00  0.00     0.067 H 
BRANCH  18  21
ATOM     21  C9  LGS d           4.026   7.235   9.950  0.00  0.00    -0.048 C 
ATOM     22  H14 LGS d           3.463   8.124  10.271  0.00  0.00     0.035 H 
ATOM     23  H15 LGS d           4.505   6.768  10.823  0.00  0.00     0.035 H 
BRANCH  21  24
ATOM     24  C10 LGS d           3.051   6.229   9.321  0.00  0.00    -0.064 C 
ATOM     25  H16 LGS d           3.630   5.487   8.751  0.00  0.00     0.033 H 
ATOM     26  H17 LGS d           2.378   6.771   8.640  0.00  0.00     0.033 H 
BRANCH  24  27
ATOM     27  C11 LGS d           2.194   5.484  10.373  0.00  0.00    -0.065 C 
ATOM     28  H18 LGS d           2.353   4.399  10.292  0.00  0.00     0.033 H 
ATOM     29  H19 LGS d           1.128   5.711  10.224  0.00  0.00     0.033 H 
BRANCH  27  30
ATOM     30  C12 LGS d           2.656   5.987  11.753  0.00  0.00    -0.065 C 
ATOM     31  H20 LGS d           1.893   6.673  12.149  0.00  0.00     0.033 H 
ATOM     32  H21 LGS d           3.606   6.527  11.628  0.00  0.00     0.033 H 
BRANCH  30  33
ATOM     33  C13 LGS d           2.869   4.848  12.772  0.00  0.00    -0.065 C 
ATOM     34  H22 LGS d           3.944   4.624  12.845  0.00  0.00     0.033 H 
ATOM     35  H23 LGS d           2.331   3.952  12.430  0.00  0.00     0.033 H 
BRANCH  33  36
ATOM     36  C14 LGS d           2.340   5.257  14.158  0.00  0.00    -0.069 C 
ATOM     37  H24 LGS d           3.186   5.344  14.856  0.00  0.00     0.032 H 
ATOM     38  H25 LGS d           1.643   4.488  14.521  0.00  0.00     0.032 H 
BRANCH  36  39
ATOM     39  C15 LGS d           1.610   6.601  14.086  0.00  0.00    -0.077 C 
ATOM     40  H26 LGS d           1.702   7.015  13.071  0.00  0.00     0.027 H 
ATOM     41  H27 LGS d           2.056   7.300  14.809  0.00  0.00     0.027 H 
ATOM     42  H28 LGS d           0.547   6.454  14.327  0.00  0.00     0.027 H 
ENDBRANCH  36  39
ENDBRANCH  33  36
ENDBRANCH  30  33
ENDBRANCH  27  30
ENDBRANCH  24  27
ENDBRANCH  21  24
ENDBRANCH  18  21
ENDBRANCH  10  18
BRANCH   7  43
ATOM     43  O1  LGS d           4.247   6.508   4.934  0.00  0.00    -0.374 OA
ATOM     44  H11 LGS d           4.902   7.021   5.392  0.00  0.00     0.212 HD
ENDBRANCH   7  43
BRANCH   1  45
ATOM     45  O4  LGS d           8.146   3.009   4.629  0.00  0.00    -0.391 OA
ATOM     46  H1  LGS d           8.533   2.907   5.491  0.00  0.00     0.210 HD
ENDBRANCH   1  45
BRANCH   6  47
ATOM     47  O2  LGS d           3.470   3.759   3.466  0.00  0.00    -0.389 OA
ATOM     48  H9  LGS d           2.867   4.439   3.190  0.00  0.00     0.210 HD
ENDBRANCH   6  47
BRANCH   5  49
ATOM     49  O3  LGS d           6.205   2.987   2.629  0.00  0.00    -0.390 OA
ATOM     50  H7  LGS d           6.927   2.370   2.643  0.00  0.00     0.210 HD
ENDBRANCH   5  49
TORSDOF 12
ENDMDL
MODEL 7
REMARK VINA RESULT:      -5.9      1.947      2.012
REMARK  12 active torsions:
REMARK  status: ('A' for Active; 'I' for Inactive)
REMARK    1  A    between atoms: O4_1  and  C4_2 
REMARK    2  A    between atoms: C3_6  and  O3_7 
REMARK    3  A    between atoms: C2_8  and  O2_9 
REMARK    4  A    between atoms: C1_10  and  O1_11 
REMARK    5  A    between atoms: N2_14  and  C8_15 
REMARK    6  A    between atoms: C8_15  and  C9_16 
REMARK    7  A    between atoms: C9_16  and  C10_17 
REMARK    8  A    between atoms: C10_17  and  C11_18 
REMARK    9  A    between atoms: C11_18  and  C12_19 
REMARK   10  A    between atoms: C12_19  and  C13_20 
REMARK   11  A    between atoms: C13_20  and  C14_21 
REMARK   12  A    between atoms: C14_21  and  C15_22 
ROOT
ATOM      1  C4  LGS d           4.651   6.173   3.817  0.00  0.00     0.084 C 
ATOM      2  C5  LGS d           3.911   6.398   5.142  0.00  0.00     0.066 C 
ATOM      3  C6  LGS d           2.618   5.614   5.355  0.00  0.00     0.050 C 
ATOM      4  O6  LGS d           2.708   5.125   6.717  0.00  0.00    -0.319 OA
ATOM      5  C3  LGS d           5.856   7.122   3.840  0.00  0.00     0.091 C 
ATOM      6  C2  LGS d           6.886   6.680   4.891  0.00  0.00     0.104 C 
ATOM      7  C1  LGS d           6.239   6.285   6.241  0.00  0.00     0.133 C 
ATOM      8  N1  LGS d           4.795   5.951   6.228  0.00  0.00    -0.307 N 
ATOM      9  C7  LGS d           4.020   5.246   7.128  0.00  0.00     0.241 C 
ATOM     10  N2  LGS d           4.434   4.769   8.306  0.00  0.00    -0.251 NA
ATOM     11  H2  LGS d           4.983   5.128   3.732  0.00  0.00     0.090 H 
ATOM     12  H3  LGS d           3.694   7.473   5.234  0.00  0.00     0.080 H 
ATOM     13  H4  LGS d           2.550   4.777   4.645  0.00  0.00     0.078 H 
ATOM     14  H5  LGS d           1.742   6.269   5.235  0.00  0.00     0.078 H 
ATOM     15  H6  LGS d           5.509   8.142   4.063  0.00  0.00     0.091 H 
ATOM     16  H8  LGS d           7.403   5.796   4.489  0.00  0.00     0.093 H 
ATOM     17  H10 LGS d           6.397   7.121   6.938  0.00  0.00     0.122 H 
ENDROOT
BRANCH  10  18
ATOM     18  C8  LGS d           3.623   4.211   9.395  0.00  0.00     0.019 C 
ATOM     19  H12 LGS d           4.013   3.217   9.661  0.00  0.00     0.067 H 
ATOM     20  H13 LGS d           2.580   4.117   9.057  0.00  0.00     0.067 H 
BRANCH  18  21
ATOM     21  C9  LGS d           3.668   5.108  10.627  0.00  0.00    -0.048 C 
ATOM     22  H14 LGS d           4.713   5.211  10.955  0.00  0.00     0.035 H 
ATOM     23  H15 LGS d           3.075   4.643  11.428  0.00  0.00     0.035 H 
BRANCH  21  24
ATOM     24  C10 LGS d           3.100   6.505  10.334  0.00  0.00    -0.064 C 
ATOM     25  H16 LGS d           3.634   6.928   9.471  0.00  0.00     0.033 H 
ATOM     26  H17 LGS d           3.264   7.142  11.216  0.00  0.00     0.033 H 
BRANCH  24  27
ATOM     27  C11 LGS d           1.586   6.484  10.016  0.00  0.00    -0.065 C 
ATOM     28  H18 LGS d           1.226   5.446   9.947  0.00  0.00     0.033 H 
ATOM     29  H19 LGS d           1.390   7.003   9.066  0.00  0.00     0.033 H 
BRANCH  27  30
ATOM     30  C12 LGS d           0.883   7.214  11.174  0.00  0.00    -0.065 C 
ATOM     31  H20 LGS d          -0.070   7.622  10.805  0.00  0.00     0.033 H 
ATOM     32  H21 LGS d           1.528   8.038  11.512  0.00  0.00     0.033 H 
BRANCH  30  33
ATOM     33  C13 LGS d           0.589   6.295  12.379  0.00  0.00    -0.065 C 
ATOM     34  H22 LGS d           0.803   5.253  12.100  0.00  0.00     0.033 H 
ATOM     35  H23 LGS d          -0.471   6.389  12.656  0.00  0.00     0.033 H 
BRANCH  33  36
ATOM     36  C14 LGS d           1.463   6.687  13.584  0.00  0.00    -0.069 C 
ATOM     37  H24 LGS d           0.853   7.250  14.305  0.00  0.00     0.032 H 
ATOM     38  H25 LGS d           2.295   7.318  13.236  0.00  0.00     0.032 H 
BRANCH  36  39
ATOM     39  C15 LGS d           2.032   5.443  14.271  0.00  0.00    -0.077 C 
ATOM     40  H26 LGS d           2.052   4.607  13.557  0.00  0.00     0.027 H 
ATOM     41  H27 LGS d           1.398   5.176  15.130  0.00  0.00     0.027 H 
ATOM     42  H28 LGS d           3.054   5.651  14.621  0.00  0.00     0.027 H 
ENDBRANCH  36  39
ENDBRANCH  33  36
ENDBRANCH  30  33
ENDBRANCH  27  30
ENDBRANCH  24  27
ENDBRANCH  21  24
ENDBRANCH  18  21
ENDBRANCH  10  18
BRANCH   7  43
ATOM     43  O1  LGS d           6.870   5.093   6.749  0.00  0.00    -0.374 OA
ATOM     44  H11 LGS d           7.467   4.749   6.095  0.00  0.00     0.212 HD
ENDBRANCH   7  43
BRANCH   1  45
ATOM     45  O4  LGS d           3.803   6.497   2.729  0.00  0.00    -0.391 OA
ATOM     46  H1  LGS d           3.770   7.441   2.625  0.00  0.00     0.210 HD
ENDBRANCH   1  45
BRANCH   6  47
ATOM     47  O2  LGS d           7.865   7.693   5.147  0.00  0.00    -0.389 OA
ATOM     48  H9  LGS d           7.818   8.356   4.468  0.00  0.00     0.210 HD
ENDBRANCH   6  47
BRANCH   5  49
ATOM     49  O3  LGS d           6.522   7.095   2.575  0.00  0.00    -0.390 OA
ATOM     50  H7  LGS d           5.910   7.342   1.891  0.00  0.00     0.210 HD
ENDBRANCH   5  49
TORSDOF 12
ENDMDL
MODEL 8
REMARK VINA RESULT:      -5.5      2.862      7.392
REMARK  12 active torsions:
REMARK  status: ('A' for Active; 'I' for Inactive)
REMARK    1  A    between atoms: O4_1  and  C4_2 
REMARK    2  A    between atoms: C3_6  and  O3_7 
REMARK    3  A    between atoms: C2_8  and  O2_9 
REMARK    4  A    between atoms: C1_10  and  O1_11 
REMARK    5  A    between atoms: N2_14  and  C8_15 
REMARK    6  A    between atoms: C8_15  and  C9_16 
REMARK    7  A    between atoms: C9_16  and  C10_17 
REMARK    8  A    between atoms: C10_17  and  C11_18 
REMARK    9  A    between atoms: C11_18  and  C12_19 
REMARK   10  A    between atoms: C12_19  and  C13_20 
REMARK   11  A    between atoms: C13_20  and  C14_21 
REMARK   12  A    between atoms: C14_21  and  C15_22 
ROOT
ATOM      1  C4  LGS d           3.230   5.656  12.191  0.00  0.00     0.084 C 
ATOM      2  C5  LGS d           4.318   6.457  11.467  0.00  0.00     0.066 C 
ATOM      3  C6  LGS d           5.761   5.993  11.653  0.00  0.00     0.050 C 
ATOM      4  O6  LGS d           6.334   6.041  10.321  0.00  0.00    -0.319 OA
ATOM      5  C3  LGS d           1.907   6.371  11.892  0.00  0.00     0.091 C 
ATOM      6  C2  LGS d           1.520   6.219  10.412  0.00  0.00     0.104 C 
ATOM      7  C1  LGS d           2.712   6.449   9.451  0.00  0.00     0.133 C 
ATOM      8  N1  LGS d           4.076   6.333  10.022  0.00  0.00    -0.307 N 
ATOM      9  C7  LGS d           5.298   6.128   9.413  0.00  0.00     0.241 C 
ATOM     10  N2  LGS d           5.513   6.075   8.096  0.00  0.00    -0.251 NA
ATOM     11  H2  LGS d           3.201   4.620  11.822  0.00  0.00     0.090 H 
ATOM     12  H3  LGS d           4.239   7.507  11.786  0.00  0.00     0.080 H 
ATOM     13  H4  LGS d           5.791   4.968  12.051  0.00  0.00     0.078 H 
ATOM     14  H5  LGS d           6.302   6.667  12.333  0.00  0.00     0.078 H 
ATOM     15  H6  LGS d           2.007   7.437  12.144  0.00  0.00     0.091 H 
ATOM     16  H8  LGS d           1.164   5.188  10.272  0.00  0.00     0.093 H 
ATOM     17  H10 LGS d           2.599   7.456   9.022  0.00  0.00     0.122 H 
ENDROOT
BRANCH  10  18
ATOM     18  C8  LGS d           6.797   6.079   7.383  0.00  0.00     0.019 C 
ATOM     19  H12 LGS d           7.598   6.349   8.088  0.00  0.00     0.067 H 
ATOM     20  H13 LGS d           6.756   6.822   6.572  0.00  0.00     0.067 H 
BRANCH  18  21
ATOM     21  C9  LGS d           7.098   4.708   6.789  0.00  0.00    -0.048 C 
ATOM     22  H14 LGS d           8.023   4.320   7.241  0.00  0.00     0.035 H 
ATOM     23  H15 LGS d           7.237   4.814   5.703  0.00  0.00     0.035 H 
BRANCH  21  24
ATOM     24  C10 LGS d           5.960   3.711   7.050  0.00  0.00    -0.064 C 
ATOM     25  H16 LGS d           5.331   4.102   7.865  0.00  0.00     0.033 H 
ATOM     26  H17 LGS d           6.398   2.749   7.354  0.00  0.00     0.033 H 
BRANCH  24  27
ATOM     27  C11 LGS d           5.068   3.477   5.808  0.00  0.00    -0.065 C 
ATOM     28  H18 LGS d           4.086   3.952   5.950  0.00  0.00     0.033 H 
ATOM     29  H19 LGS d           4.932   2.399   5.636  0.00  0.00     0.033 H 
BRANCH  27  30
ATOM     30  C12 LGS d           5.801   4.116   4.614  0.00  0.00    -0.065 C 
ATOM     31  H20 LGS d           5.935   3.352   3.835  0.00  0.00     0.033 H 
ATOM     32  H21 LGS d           6.785   4.469   4.955  0.00  0.00     0.033 H 
BRANCH  30  33
ATOM     33  C13 LGS d           5.036   5.310   4.004  0.00  0.00    -0.065 C 
ATOM     34  H22 LGS d           4.578   4.999   3.053  0.00  0.00     0.033 H 
ATOM     35  H23 LGS d           5.740   6.134   3.818  0.00  0.00     0.033 H 
BRANCH  33  36
ATOM     36  C14 LGS d           3.933   5.793   4.964  0.00  0.00    -0.069 C 
ATOM     37  H24 LGS d           4.091   6.858   5.189  0.00  0.00     0.032 H 
ATOM     38  H25 LGS d           3.985   5.210   5.895  0.00  0.00     0.032 H 
BRANCH  36  39
ATOM     39  C15 LGS d           2.549   5.613   4.336  0.00  0.00    -0.077 C 
ATOM     40  H26 LGS d           2.379   6.402   3.589  0.00  0.00     0.027 H 
ATOM     41  H27 LGS d           1.779   5.678   5.119  0.00  0.00     0.027 H 
ATOM     42  H28 LGS d           2.493   4.628   3.848  0.00  0.00     0.027 H 
ENDBRANCH  36  39
ENDBRANCH  33  36
ENDBRANCH  30  33
ENDBRANCH  27  30
ENDBRANCH  24  27
ENDBRANCH  21  24
ENDBRANCH  18  21
ENDBRANCH  10  18
BRANCH   7  43
ATOM     43  O1  LGS d           2.686   5.460   8.404  0.00  0.00    -0.374 OA
ATOM     44  H11 LGS d           2.852   5.881   7.568  0.00  0.00     0.212 HD
ENDBRANCH   7  43
BRANCH   1  45
ATOM     45  O4  LGS d           3.474   5.661  13.588  0.00  0.00    -0.391 OA
ATOM     46  H1  LGS d           4.408   5.744  13.744  0.00  0.00     0.210 HD
ENDBRANCH   1  45
BRANCH   6  47
ATOM     47  O2  LGS d           0.466   7.112  10.035  0.00  0.00    -0.389 OA
ATOM     48  H9  LGS d           0.277   7.699  10.758  0.00  0.00     0.210 HD
ENDBRANCH   6  47
BRANCH   5  49
ATOM     49  O3  LGS d           0.850   5.784  12.655  0.00  0.00    -0.390 OA
ATOM     50  H7  LGS d           1.115   5.723  13.565  0.00  0.00     0.210 HD
ENDBRANCH   5  49
TORSDOF 12
ENDMDL
MODEL 9
REMARK VINA RESULT:      -5.3      2.597      6.906
REMARK  12 active torsions:
REMARK  status: ('A' for Active; 'I' for Inactive)
REMARK    1  A    between atoms: O4_1  and  C4_2 
REMARK    2  A    between atoms: C3_6  and  O3_7 
REMARK    3  A    between atoms: C2_8  and  O2_9 
REMARK    4  A    between atoms: C1_10  and  O1_11 
REMARK    5  A    between atoms: N2_14  and  C8_15 
REMARK    6  A    between atoms: C8_15  and  C9_16 
REMARK    7  A    between atoms: C9_16  and  C10_17 
REMARK    8  A    between atoms: C10_17  and  C11_18 
REMARK    9  A    between atoms: C11_18  and  C12_19 
REMARK   10  A    between atoms: C12_19  and  C13_20 
REMARK   11  A    between atoms: C13_20  and  C14_21 
REMARK   12  A    between atoms: C14_21  and  C15_22 
ROOT
ATOM      1  C4  LGS d           5.270   6.736  10.528  0.00  0.00     0.084 C 
ATOM      2  C5  LGS d           5.358   6.585   9.004  0.00  0.00     0.066 C 
ATOM      3  C6  LGS d           6.757   6.504   8.396  0.00  0.00     0.050 C 
ATOM      4  O6  LGS d           6.672   5.426   7.430  0.00  0.00    -0.319 OA
ATOM      5  C3  LGS d           3.777   6.861  10.854  0.00  0.00     0.091 C 
ATOM      6  C2  LGS d           3.042   5.536  10.595  0.00  0.00     0.104 C 
ATOM      7  C1  LGS d           3.447   4.875   9.254  0.00  0.00     0.133 C 
ATOM      8  N1  LGS d           4.728   5.306   8.645  0.00  0.00    -0.307 N 
ATOM      9  C7  LGS d           5.529   4.701   7.697  0.00  0.00     0.241 C 
ATOM     10  N2  LGS d           5.242   3.574   7.040  0.00  0.00    -0.251 NA
ATOM     11  H2  LGS d           5.703   5.858  11.029  0.00  0.00     0.090 H 
ATOM     12  H3  LGS d           4.820   7.427   8.545  0.00  0.00     0.080 H 
ATOM     13  H4  LGS d           7.505   6.275   9.169  0.00  0.00     0.078 H 
ATOM     14  H5  LGS d           7.021   7.450   7.899  0.00  0.00     0.078 H 
ATOM     15  H6  LGS d           3.337   7.658  10.237  0.00  0.00     0.091 H 
ATOM     16  H8  LGS d           3.313   4.848  11.409  0.00  0.00     0.093 H 
ATOM     17  H10 LGS d           2.637   5.068   8.535  0.00  0.00     0.122 H 
ENDROOT
BRANCH  10  18
ATOM     18  C8  LGS d           5.932   2.998   5.878  0.00  0.00     0.019 C 
ATOM     19  H12 LGS d           6.111   1.929   6.060  0.00  0.00     0.067 H 
ATOM     20  H13 LGS d           6.895   3.513   5.740  0.00  0.00     0.067 H 
BRANCH  18  21
ATOM     21  C9  LGS d           5.098   3.155   4.612  0.00  0.00    -0.048 C 
ATOM     22  H14 LGS d           5.411   2.394   3.883  0.00  0.00     0.035 H 
ATOM     23  H15 LGS d           5.271   4.158   4.194  0.00  0.00     0.035 H 
BRANCH  21  24
ATOM     24  C10 LGS d           3.598   2.986   4.894  0.00  0.00    -0.064 C 
ATOM     25  H16 LGS d           3.413   3.204   5.957  0.00  0.00     0.033 H 
ATOM     26  H17 LGS d           3.315   1.945   4.678  0.00  0.00     0.033 H 
BRANCH  24  27
ATOM     27  C11 LGS d           2.715   3.926   4.038  0.00  0.00    -0.065 C 
ATOM     28  H18 LGS d           1.662   3.615   4.097  0.00  0.00     0.033 H 
ATOM     29  H19 LGS d           3.045   3.905   2.988  0.00  0.00     0.033 H 
BRANCH  27  30
ATOM     30  C12 LGS d           2.886   5.341   4.620  0.00  0.00    -0.065 C 
ATOM     31  H20 LGS d           3.659   5.307   5.402  0.00  0.00     0.033 H 
ATOM     32  H21 LGS d           1.929   5.655   5.063  0.00  0.00     0.033 H 
BRANCH  30  33
ATOM     33  C13 LGS d           3.303   6.384   3.562  0.00  0.00    -0.065 C 
ATOM     34  H22 LGS d           2.816   7.344   3.789  0.00  0.00     0.033 H 
ATOM     35  H23 LGS d           2.985   6.038   2.568  0.00  0.00     0.033 H 
BRANCH  33  36
ATOM     36  C14 LGS d           4.830   6.577   3.566  0.00  0.00    -0.069 C 
ATOM     37  H24 LGS d           5.108   7.280   2.767  0.00  0.00     0.032 H 
ATOM     38  H25 LGS d           5.317   5.607   3.387  0.00  0.00     0.032 H 
BRANCH  36  39
ATOM     39  C15 LGS d           5.304   7.134   4.912  0.00  0.00    -0.077 C 
ATOM     40  H26 LGS d           6.356   6.860   5.072  0.00  0.00     0.027 H 
ATOM     41  H27 LGS d           4.688   6.713   5.720  0.00  0.00     0.027 H 
ATOM     42  H28 LGS d           5.206   8.230   4.909  0.00  0.00     0.027 H 
ENDBRANCH  36  39
ENDBRANCH  33  36
ENDBRANCH  30  33
ENDBRANCH  27  30
ENDBRANCH  24  27
ENDBRANCH  21  24
ENDBRANCH  18  21
ENDBRANCH  10  18
BRANCH   7  43
ATOM     43  O1  LGS d           3.610   3.457   9.445  0.00  0.00    -0.374 OA
ATOM     44  H11 LGS d           2.876   3.119   9.945  0.00  0.00     0.212 HD
ENDBRANCH   7  43
BRANCH   1  45
ATOM     45  O4  LGS d           5.952   7.908  10.938  0.00  0.00    -0.391 OA
ATOM     46  H1  LGS d           6.635   8.113  10.309  0.00  0.00     0.210 HD
ENDBRANCH   1  45
BRANCH   6  47
ATOM     47  O2  LGS d           1.619   5.698  10.600  0.00  0.00    -0.389 OA
ATOM     48  H9  LGS d           1.391   6.493  10.132  0.00  0.00     0.210 HD
ENDBRANCH   6  47
BRANCH   5  49
ATOM     49  O3  LGS d           3.604   7.162  12.241  0.00  0.00    -0.390 OA
ATOM     50  H7  LGS d           4.375   7.613  12.564  0.00  0.00     0.210 HD
ENDBRANCH   5  49
TORSDOF 12
ENDMDL
MODEL 10
REMARK VINA RESULT:      -5.1      2.106      2.858
REMARK  12 active torsions:
REMARK  status: ('A' for Active; 'I' for Inactive)
REMARK    1  A    between atoms: O4_1  and  C4_2 
REMARK    2  A    between atoms: C3_6  and  O3_7 
REMARK    3  A    between atoms: C2_8  and  O2_9 
REMARK    4  A    between atoms: C1_10  and  O1_11 
REMARK    5  A    between atoms: N2_14  and  C8_15 
REMARK    6  A    between atoms: C8_15  and  C9_16 
REMARK    7  A    between atoms: C9_16  and  C10_17 
REMARK    8  A    between atoms: C10_17  and  C11_18 
REMARK    9  A    between atoms: C11_18  and  C12_19 
REMARK   10  A    between atoms: C12_19  and  C13_20 
REMARK   11  A    between atoms: C13_20  and  C14_21 
REMARK   12  A    between atoms: C14_21  and  C15_22 
ROOT
ATOM      1  C4  LGS d           5.142   3.800   4.114  0.00  0.00     0.084 C 
ATOM      2  C5  LGS d           4.549   5.123   4.615  0.00  0.00     0.066 C 
ATOM      3  C6  LGS d           3.452   5.034   5.674  0.00  0.00     0.050 C 
ATOM      4  O6  LGS d           3.801   6.053   6.645  0.00  0.00    -0.319 OA
ATOM      5  C3  LGS d           6.154   4.175   3.025  0.00  0.00     0.091 C 
ATOM      6  C2  LGS d           7.372   4.895   3.626  0.00  0.00     0.104 C 
ATOM      7  C1  LGS d           6.981   5.973   4.667  0.00  0.00     0.133 C 
ATOM      8  N1  LGS d           5.629   5.878   5.267  0.00  0.00    -0.307 N 
ATOM      9  C7  LGS d           5.112   6.422   6.426  0.00  0.00     0.241 C 
ATOM     10  N2  LGS d           5.750   7.266   7.242  0.00  0.00    -0.251 NA
ATOM     11  H2  LGS d           5.640   3.264   4.936  0.00  0.00     0.090 H 
ATOM     12  H3  LGS d           4.159   5.674   3.745  0.00  0.00     0.080 H 
ATOM     13  H4  LGS d           3.443   4.038   6.141  0.00  0.00     0.078 H 
ATOM     14  H5  LGS d           2.466   5.241   5.231  0.00  0.00     0.078 H 
ATOM     15  H6  LGS d           5.664   4.826   2.285  0.00  0.00     0.091 H 
ATOM     16  H8  LGS d           7.981   4.134   4.136  0.00  0.00     0.093 H 
ATOM     17  H10 LGS d           7.077   6.953   4.177  0.00  0.00     0.122 H 
ENDROOT
BRANCH  10  18
ATOM     18  C8  LGS d           5.196   8.046   8.357  0.00  0.00     0.019 C 
ATOM     19  H12 LGS d           4.413   7.455   8.854  0.00  0.00     0.067 H 
ATOM     20  H13 LGS d           4.759   8.976   7.963  0.00  0.00     0.067 H 
BRANCH  18  21
ATOM     21  C9  LGS d           6.278   8.394   9.372  0.00  0.00    -0.048 C 
ATOM     22  H14 LGS d           6.186   9.457   9.639  0.00  0.00     0.035 H 
ATOM     23  H15 LGS d           7.263   8.213   8.918  0.00  0.00     0.035 H 
BRANCH  21  24
ATOM     24  C10 LGS d           6.155   7.549  10.648  0.00  0.00    -0.064 C 
ATOM     25  H16 LGS d           5.190   7.774  11.128  0.00  0.00     0.033 H 
ATOM     26  H17 LGS d           6.975   7.820  11.330  0.00  0.00     0.033 H 
BRANCH  24  27
ATOM     27  C11 LGS d           6.225   6.028  10.372  0.00  0.00    -0.065 C 
ATOM     28  H18 LGS d           7.115   5.596  10.853  0.00  0.00     0.033 H 
ATOM     29  H19 LGS d           6.266   5.840   9.289  0.00  0.00     0.033 H 
BRANCH  27  30
ATOM     30  C12 LGS d           4.947   5.413  10.970  0.00  0.00    -0.065 C 
ATOM     31  H20 LGS d           4.401   6.199  11.512  0.00  0.00     0.033 H 
ATOM     32  H21 LGS d           5.236   4.616  11.670  0.00  0.00     0.033 H 
BRANCH  30  33
ATOM     33  C13 LGS d           4.009   4.812   9.901  0.00  0.00    -0.065 C 
ATOM     34  H22 LGS d           4.155   3.722   9.864  0.00  0.00     0.033 H 
ATOM     35  H23 LGS d           4.250   5.247   8.921  0.00  0.00     0.033 H 
BRANCH  33  36
ATOM     36  C14 LGS d           2.538   5.115  10.242  0.00  0.00    -0.069 C 
ATOM     37  H24 LGS d           2.322   4.758  11.260  0.00  0.00     0.032 H 
ATOM     38  H25 LGS d           1.887   4.594   9.525  0.00  0.00     0.032 H 
BRANCH  36  39
ATOM     39  C15 LGS d           2.262   6.619  10.169  0.00  0.00    -0.077 C 
ATOM     40  H26 LGS d           1.779   6.857   9.210  0.00  0.00     0.027 H 
ATOM     41  H27 LGS d           3.211   7.170  10.248  0.00  0.00     0.027 H 
ATOM     42  H28 LGS d           1.598   6.911  10.996  0.00  0.00     0.027 H 
ENDBRANCH  36  39
ENDBRANCH  33  36
ENDBRANCH  30  33
ENDBRANCH  27  30
ENDBRANCH  24  27
ENDBRANCH  21  24
ENDBRANCH  18  21
ENDBRANCH  10  18
BRANCH   7  43
ATOM     43  O1  LGS d           7.872   5.898   5.797  0.00  0.00    -0.374 OA
ATOM     44  H11 LGS d           8.166   5.001   5.908  0.00  0.00     0.212 HD
ENDBRANCH   7  43
BRANCH   1  45
ATOM     45  O4  LGS d           4.119   2.989   3.563  0.00  0.00    -0.391 OA
ATOM     46  H1  LGS d           3.847   2.344   4.205  0.00  0.00     0.210 HD
ENDBRANCH   1  45
BRANCH   6  47
ATOM     47  O2  LGS d           8.181   5.518   2.623  0.00  0.00    -0.389 OA
ATOM     48  H9  LGS d           8.831   4.898   2.312  0.00  0.00     0.210 HD
ENDBRANCH   6  47
BRANCH   5  49
ATOM     49  O3  LGS d           6.647   2.994   2.389  0.00  0.00    -0.390 OA
ATOM     50  H7  LGS d           7.106   3.234   1.592  0.00  0.00     0.210 HD
ENDBRANCH   5  49
TORSDOF 12
ENDMDL
