REMARK  2 active torsions:
REMARK  status: ('A' for Active; 'I' for Inactive)
REMARK    1  A    between atoms: C7_4  and  N6_8 
REMARK    2  A    between atoms: N6_8  and  C5_9 
ROOT
ATOM      1  O13 GZ2 d          -6.258  51.576   8.762  0.00  0.00    -0.293 OA
ATOM      2  C11 GZ2 d          -6.417  51.820   9.949  0.00  0.00     0.151 C 
ATOM      3  C12 GZ2 d          -5.289  52.369  10.733  0.00  0.00    -0.017 C 
ATOM      4  C7  GZ2 d          -5.442  52.701  12.028  0.00  0.00     0.030 C 
ATOM      5  C8  GZ2 d          -6.774  52.563  12.732  0.00  0.00    -0.026 C 
ATOM      6  C9  GZ2 d          -7.976  52.487  11.794  0.00  0.00    -0.054 C 
ATOM      7  C10 GZ2 d          -7.757  51.562  10.607  0.00  0.00    -0.006 C 
ATOM      8  H1  GZ2 d          -4.320  52.507  10.255  0.00  0.00     0.092 H 
ATOM      9  H2  GZ2 d          -6.907  53.433  13.392  0.00  0.00     0.042 H 
ATOM     10  H3  GZ2 d          -6.750  51.644  13.337  0.00  0.00     0.042 H 
ATOM     11  H4  GZ2 d          -8.187  53.498  11.414  0.00  0.00     0.034 H 
ATOM     12  H5  GZ2 d          -8.842  52.122  12.366  0.00  0.00     0.034 H 
ATOM     13  H6  GZ2 d          -7.791  50.519  10.954  0.00  0.00     0.044 H 
ATOM     14  H7  GZ2 d          -8.556  51.729   9.870  0.00  0.00     0.044 H 
ENDROOT
BRANCH   4  15
ATOM     15  N6  GZ2 d          -4.461  53.156  12.820  0.00  0.00    -0.192 N 
ATOM     16  H8  GZ2 d          -4.739  53.442  13.770  0.00  0.00     0.184 HD
BRANCH  15  17
ATOM     17  C5  GZ2 d          -3.136  53.284  12.514  0.00  0.00     0.732 A 
ATOM     18  N4  GZ2 d          -2.662  53.561  11.292  0.00  0.00    -0.115 N 
ATOM     19  N3  GZ2 d          -1.267  53.586  11.461  0.00  0.00     0.008 NA
ATOM     20  H9  GZ2 d          -3.197  53.719  10.427  0.00  0.00     0.203 HD
ATOM     21  N2  GZ2 d          -0.985  53.335  12.817  0.00  0.00     0.033 NA
ATOM     22  N1  GZ2 d          -2.199  53.145  13.476  0.00  0.00     0.030 NA
ENDBRANCH  15  17
ENDBRANCH   4  15
TORSDOF 2
