MODEL 1
REMARK VINA RESULT:      -8.3      0.000      0.000
REMARK  17 active torsions:
REMARK  status: ('A' for Active; 'I' for Inactive)
REMARK    1  A    between atoms: CBD_3  and  OAI_4 
REMARK    2  A    between atoms: CBF_7  and  CAV_8 
REMARK    3  A    between atoms: CAV_8  and  CBI_9 
REMARK    4  A    between atoms: CBI_9  and  PBK_10 
REMARK    5  A    between atoms: CBI_9  and  NAY_14 
REMARK       I    between atoms: NAY_14  and  C_15 
REMARK    6  A    between atoms: C_15  and  CA_17 
REMARK    7  A    between atoms: CA_17  and  N_18 
REMARK    8  A    between atoms: CA_17  and  CB_30 
REMARK       I    between atoms: N_18  and  CBB_19 
REMARK    9  A    between atoms: CBB_19  and  CBJ_21 
REMARK   10  A    between atoms: CBJ_21  and  CBG_22 
REMARK   11  A    between atoms: CBJ_21  and  NAX_26 
REMARK   12  A    between atoms: CBG_22  and  CAC_23 
REMARK   13  A    between atoms: CBG_22  and  CAT_24 
REMARK   14  A    between atoms: CAT_24  and  CAA_25 
REMARK       I    between atoms: NAX_26  and  CAZ_27 
REMARK   15  A    between atoms: CAZ_27  and  CAB_28 
REMARK   16  A    between atoms: CB_30  and  CG_31 
REMARK   17  A    between atoms: CZ_34  and  OH_35 
ROOT
ATOM      1  CA  K26 d          -9.247  22.239 -14.036  0.00  0.00     0.093 C 
ATOM      2  H10 K26 d          -9.053  21.321 -13.463  0.00  0.00     0.088 H 
ENDROOT
BRANCH   1   3
ATOM      3  C   K26 d          -8.010  23.138 -13.956  0.00  0.00     0.241 C 
ATOM      4  NAY K26 d          -6.841  22.515 -14.129  0.00  0.00    -0.342 N 
ATOM      5  H9  K26 d          -6.842  21.547 -14.378  0.00  0.00     0.163 HD
ATOM      6  O   K26 d          -8.140  24.337 -13.706  0.00  0.00    -0.271 OA
BRANCH   4   7
ATOM      7  CBI K26 d          -5.551  23.206 -13.967  0.00  0.00     0.124 C 
ATOM      8  H8  K26 d          -5.739  24.262 -13.724  0.00  0.00     0.095 H 
BRANCH   7   9
ATOM      9  CAV K26 d          -4.808  22.551 -12.779  0.00  0.00    -0.010 C 
ATOM     10  H6  K26 d          -5.303  21.600 -12.531  0.00  0.00     0.044 H 
ATOM     11  H7  K26 d          -3.766  22.356 -13.074  0.00  0.00     0.044 H 
BRANCH   9  12
ATOM     12  CBF K26 d          -4.814  23.455 -11.537  0.00  0.00    -0.055 A 
ATOM     13  CAR K26 d          -5.928  23.462 -10.700  0.00  0.00    -0.074 A 
ATOM     14  CAN K26 d          -5.950  24.264  -9.563  0.00  0.00    -0.051 A 
ATOM     15  H1  K26 d          -6.782  22.837 -10.937  0.00  0.00     0.084 H 
ATOM     16  CBD K26 d          -4.851  25.067  -9.256  0.00  0.00     0.065 A 
ATOM     17  H2  K26 d          -6.821  24.266  -8.916  0.00  0.00     0.087 H 
ATOM     18  CAO K26 d          -3.723  25.063 -10.082  0.00  0.00    -0.051 A 
ATOM     19  CAS K26 d          -3.709  24.259 -11.223  0.00  0.00    -0.074 A 
ATOM     20  H4  K26 d          -2.866  25.680  -9.839  0.00  0.00     0.087 H 
ATOM     21  H5  K26 d          -2.839  24.255 -11.870  0.00  0.00     0.084 H 
BRANCH  16  22
ATOM     22  OAI K26 d          -4.889  25.847  -8.142  0.00  0.00    -0.361 OA
ATOM     23  H3  K26 d          -5.793  26.044  -7.925  0.00  0.00     0.217 HD
ENDBRANCH  16  22
ENDBRANCH   9  12
ENDBRANCH   7   9
BRANCH   7  24
ATOM     24  PBK K26 d          -4.571  23.144 -15.526  0.00  0.00     0.283 P 
ATOM     25  OAJ K26 d          -4.347  24.651 -15.957  0.00  0.00    -0.638 OA
ATOM     26  OAK K26 d          -3.135  22.536 -15.047  0.00  0.00    -0.638 OA
ATOM     27  OAG K26 d          -5.223  22.345 -16.598  0.00  0.00    -0.638 OA
ENDBRANCH   7  24
ENDBRANCH   4   7
ENDBRANCH   1   3
BRANCH   1  28
ATOM     28  N   K26 d         -10.395  22.951 -13.438  0.00  0.00    -0.346 N 
ATOM     29  CBB K26 d         -11.196  22.433 -12.499  0.00  0.00     0.241 C 
ATOM     30  OAF K26 d         -11.094  21.296 -12.038  0.00  0.00    -0.271 OA
ATOM     31  H11 K26 d         -10.586  23.880 -13.756  0.00  0.00     0.163 HD
BRANCH  29  32
ATOM     32  CBJ K26 d         -12.355  23.351 -12.070  0.00  0.00     0.092 C 
ATOM     33  H12 K26 d         -12.990  23.550 -12.946  0.00  0.00     0.088 H 
BRANCH  32  34
ATOM     34  CBG K26 d         -11.873  24.704 -11.531  0.00  0.00    -0.030 C 
ATOM     35  H13 K26 d         -10.821  24.842 -11.824  0.00  0.00     0.043 H 
BRANCH  34  36
ATOM     36  CAC K26 d         -12.706  25.837 -12.141  0.00  0.00    -0.071 C 
ATOM     37  H14 K26 d         -12.259  26.807 -11.872  0.00  0.00     0.028 H 
ATOM     38  H15 K26 d         -13.734  25.788 -11.753  0.00  0.00     0.028 H 
ATOM     39  H16 K26 d         -12.723  25.733 -13.236  0.00  0.00     0.028 H 
ENDBRANCH  34  36
BRANCH  34  40
ATOM     40  CAT K26 d         -11.962  24.747  -9.997  0.00  0.00    -0.063 C 
ATOM     41  H17 K26 d         -10.950  24.887  -9.590  0.00  0.00     0.033 H 
ATOM     42  H18 K26 d         -12.372  23.791  -9.641  0.00  0.00     0.033 H 
BRANCH  40  43
ATOM     43  CAA K26 d         -12.854  25.881  -9.492  0.00  0.00    -0.076 C 
ATOM     44  H19 K26 d         -13.329  26.382 -10.348  0.00  0.00     0.027 H 
ATOM     45  H20 K26 d         -12.244  26.607  -8.935  0.00  0.00     0.027 H 
ATOM     46  H21 K26 d         -13.630  25.469  -8.829  0.00  0.00     0.027 H 
ENDBRANCH  40  43
ENDBRANCH  34  40
ENDBRANCH  32  34
BRANCH  32  47
ATOM     47  NAX K26 d         -13.142  22.601 -11.072  0.00  0.00    -0.348 N 
ATOM     48  CAZ K26 d         -14.476  22.572 -11.095  0.00  0.00     0.214 C 
ATOM     49  OAD K26 d         -15.168  23.203 -11.892  0.00  0.00    -0.274 OA
ATOM     50  H22 K26 d         -12.660  22.097 -10.354  0.00  0.00     0.163 HD
BRANCH  48  51
ATOM     51  CAB K26 d         -15.132  21.709 -10.016  0.00  0.00    -0.003 C 
ATOM     52  H23 K26 d         -15.009  20.646 -10.271  0.00  0.00     0.040 H 
ATOM     53  H24 K26 d         -16.204  21.950  -9.955  0.00  0.00     0.040 H 
ATOM     54  H25 K26 d         -14.655  21.910  -9.045  0.00  0.00     0.040 H 
ENDBRANCH  48  51
ENDBRANCH  32  47
ENDBRANCH  29  32
ENDBRANCH   1  28
BRANCH   1  55
ATOM     55  CB  K26 d          -9.583  21.853 -15.471  0.00  0.00    -0.014 C 
ATOM     56  H26 K26 d         -10.503  21.249 -15.485  0.00  0.00     0.043 H 
ATOM     57  H27 K26 d          -8.755  21.269 -15.900  0.00  0.00     0.043 H 
BRANCH  55  58
ATOM     58  CG  K26 d          -9.794  23.134 -16.293  0.00  0.00    -0.056 A 
ATOM     59  CD1 K26 d         -10.985  23.847 -16.178  0.00  0.00    -0.074 A 
ATOM     60  CE1 K26 d         -11.175  25.021 -16.912  0.00  0.00    -0.051 A 
ATOM     61  H28 K26 d         -11.768  23.489 -15.518  0.00  0.00     0.084 H 
ATOM     62  CZ  K26 d         -10.170  25.486 -17.761  0.00  0.00     0.065 A 
ATOM     63  H29 K26 d         -12.104  25.572 -16.821  0.00  0.00     0.087 H 
ATOM     64  CE2 K26 d          -8.976  24.776 -17.871  0.00  0.00    -0.051 A 
ATOM     65  CD2 K26 d          -8.784  23.604 -17.135  0.00  0.00    -0.074 A 
ATOM     66  H31 K26 d          -8.193  25.134 -18.530  0.00  0.00     0.087 H 
ATOM     67  H32 K26 d          -7.850  23.059 -17.218  0.00  0.00     0.084 H 
BRANCH  62  68
ATOM     68  OH  K26 d         -10.364  26.630 -18.486  0.00  0.00    -0.361 OA
ATOM     69  H30 K26 d         -10.319  26.428 -19.413  0.00  0.00     0.217 HD
ENDBRANCH  62  68
ENDBRANCH  55  58
ENDBRANCH   1  55
TORSDOF 17
ENDMDL
MODEL 2
REMARK VINA RESULT:      -8.2      2.479      4.609
REMARK  17 active torsions:
REMARK  status: ('A' for Active; 'I' for Inactive)
REMARK    1  A    between atoms: CBD_3  and  OAI_4 
REMARK    2  A    between atoms: CBF_7  and  CAV_8 
REMARK    3  A    between atoms: CAV_8  and  CBI_9 
REMARK    4  A    between atoms: CBI_9  and  PBK_10 
REMARK    5  A    between atoms: CBI_9  and  NAY_14 
REMARK       I    between atoms: NAY_14  and  C_15 
REMARK    6  A    between atoms: C_15  and  CA_17 
REMARK    7  A    between atoms: CA_17  and  N_18 
REMARK    8  A    between atoms: CA_17  and  CB_30 
REMARK       I    between atoms: N_18  and  CBB_19 
REMARK    9  A    between atoms: CBB_19  and  CBJ_21 
REMARK   10  A    between atoms: CBJ_21  and  CBG_22 
REMARK   11  A    between atoms: CBJ_21  and  NAX_26 
REMARK   12  A    between atoms: CBG_22  and  CAC_23 
REMARK   13  A    between atoms: CBG_22  and  CAT_24 
REMARK   14  A    between atoms: CAT_24  and  CAA_25 
REMARK       I    between atoms: NAX_26  and  CAZ_27 
REMARK   15  A    between atoms: CAZ_27  and  CAB_28 
REMARK   16  A    between atoms: CB_30  and  CG_31 
REMARK   17  A    between atoms: CZ_34  and  OH_35 
ROOT
ATOM      1  CA  K26 d          -8.441  23.854 -13.595  0.00  0.00     0.093 C 
ATOM      2  H10 K26 d          -8.270  22.793 -13.358  0.00  0.00     0.088 H 
ENDROOT
BRANCH   1   3
ATOM      3  C   K26 d          -7.312  24.341 -14.506  0.00  0.00     0.241 C 
ATOM      4  NAY K26 d          -6.634  23.379 -15.138  0.00  0.00    -0.342 N 
ATOM      5  H9  K26 d          -6.944  22.433 -15.050  0.00  0.00     0.163 HD
ATOM      6  O   K26 d          -7.065  25.545 -14.583  0.00  0.00    -0.271 OA
BRANCH   4   7
ATOM      7  CBI K26 d          -5.445  23.664 -15.958  0.00  0.00     0.124 C 
ATOM      8  H8  K26 d          -5.153  24.715 -15.810  0.00  0.00     0.095 H 
BRANCH   7   9
ATOM      9  CAV K26 d          -4.296  22.757 -15.460  0.00  0.00    -0.010 C 
ATOM     10  H6  K26 d          -4.684  21.738 -15.317  0.00  0.00     0.044 H 
ATOM     11  H7  K26 d          -3.499  22.743 -16.218  0.00  0.00     0.044 H 
BRANCH   9  12
ATOM     12  CBF K26 d          -3.711  23.260 -14.131  0.00  0.00    -0.055 A 
ATOM     13  CAR K26 d          -2.850  24.355 -14.133  0.00  0.00    -0.074 A 
ATOM     14  CAN K26 d          -2.318  24.835 -12.939  0.00  0.00    -0.051 A 
ATOM     15  H1  K26 d          -2.594  24.837 -15.069  0.00  0.00     0.084 H 
ATOM     16  CBD K26 d          -2.649  24.218 -11.732  0.00  0.00     0.065 A 
ATOM     17  H2  K26 d          -1.648  25.687 -12.947  0.00  0.00     0.087 H 
ATOM     18  CAO K26 d          -3.519  23.123 -11.715  0.00  0.00    -0.051 A 
ATOM     19  CAS K26 d          -4.045  22.645 -12.916  0.00  0.00    -0.074 A 
ATOM     20  H4  K26 d          -3.782  22.650 -10.777  0.00  0.00     0.087 H 
ATOM     21  H5  K26 d          -4.716  21.794 -12.910  0.00  0.00     0.084 H 
BRANCH  16  22
ATOM     22  OAI K26 d          -2.119  24.697 -10.574  0.00  0.00    -0.361 OA
ATOM     23  H3  K26 d          -1.636  25.496 -10.754  0.00  0.00     0.217 HD
ENDBRANCH  16  22
ENDBRANCH   9  12
ENDBRANCH   7   9
BRANCH   7  24
ATOM     24  PBK K26 d          -5.807  23.418 -17.748  0.00  0.00     0.283 P 
ATOM     25  OAJ K26 d          -5.258  24.708 -18.482  0.00  0.00    -0.638 OA
ATOM     26  OAK K26 d          -4.854  22.159 -18.157  0.00  0.00    -0.638 OA
ATOM     27  OAG K26 d          -7.249  23.183 -18.029  0.00  0.00    -0.638 OA
ENDBRANCH   7  24
ENDBRANCH   4   7
ENDBRANCH   1   3
BRANCH   1  28
ATOM     28  N   K26 d          -8.419  24.640 -12.344  0.00  0.00    -0.346 N 
ATOM     29  CBB K26 d          -7.824  24.240 -11.213  0.00  0.00     0.241 C 
ATOM     30  OAF K26 d          -7.247  23.162 -11.067  0.00  0.00    -0.271 OA
ATOM     31  H11 K26 d          -8.879  25.528 -12.341  0.00  0.00     0.163 HD
BRANCH  29  32
ATOM     32  CBJ K26 d          -7.981  25.211 -10.030  0.00  0.00     0.092 C 
ATOM     33  H12 K26 d          -8.080  26.233 -10.424  0.00  0.00     0.088 H 
BRANCH  32  34
ATOM     34  CBG K26 d          -6.776  25.194  -9.083  0.00  0.00    -0.030 C 
ATOM     35  H13 K26 d          -6.603  24.158  -8.755  0.00  0.00     0.043 H 
BRANCH  34  36
ATOM     36  CAC K26 d          -5.525  25.693  -9.817  0.00  0.00    -0.071 C 
ATOM     37  H14 K26 d          -5.227  26.671  -9.411  0.00  0.00     0.028 H 
ATOM     38  H15 K26 d          -5.745  25.793 -10.890  0.00  0.00     0.028 H 
ATOM     39  H16 K26 d          -4.706  24.973  -9.677  0.00  0.00     0.028 H 
ENDBRANCH  34  36
BRANCH  34  40
ATOM     40  CAT K26 d          -7.041  26.060  -7.840  0.00  0.00    -0.063 C 
ATOM     41  H17 K26 d          -8.096  26.371  -7.847  0.00  0.00     0.033 H 
ATOM     42  H18 K26 d          -6.396  26.950  -7.888  0.00  0.00     0.033 H 
BRANCH  40  43
ATOM     43  CAA K26 d          -6.756  25.319  -6.535  0.00  0.00    -0.076 C 
ATOM     44  H19 K26 d          -6.039  24.506  -6.724  0.00  0.00     0.027 H 
ATOM     45  H20 K26 d          -7.693  24.897  -6.141  0.00  0.00     0.027 H 
ATOM     46  H21 K26 d          -6.332  26.019  -5.800  0.00  0.00     0.027 H 
ENDBRANCH  40  43
ENDBRANCH  34  40
ENDBRANCH  32  34
BRANCH  32  47
ATOM     47  NAX K26 d          -9.236  24.842  -9.345  0.00  0.00    -0.348 N 
ATOM     48  CAZ K26 d         -10.419  25.333  -9.718  0.00  0.00     0.214 C 
ATOM     49  OAD K26 d         -10.573  26.169 -10.606  0.00  0.00    -0.274 OA
ATOM     50  H22 K26 d          -9.198  24.203  -8.575  0.00  0.00     0.163 HD
BRANCH  48  51
ATOM     51  CAB K26 d         -11.623  24.810  -8.930  0.00  0.00    -0.003 C 
ATOM     52  H23 K26 d         -12.021  23.911  -9.422  0.00  0.00     0.040 H 
ATOM     53  H24 K26 d         -12.403  25.586  -8.896  0.00  0.00     0.040 H 
ATOM     54  H25 K26 d         -11.310  24.560  -7.906  0.00  0.00     0.040 H 
ENDBRANCH  48  51
ENDBRANCH  32  47
ENDBRANCH  29  32
ENDBRANCH   1  28
BRANCH   1  55
ATOM     55  CB  K26 d          -9.809  23.988 -14.252  0.00  0.00    -0.014 C 
ATOM     56  H26 K26 d          -9.814  23.447 -15.209  0.00  0.00     0.043 H 
ATOM     57  H27 K26 d         -10.030  25.051 -14.432  0.00  0.00     0.043 H 
BRANCH  55  58
ATOM     58  CG  K26 d         -10.871  23.392 -13.315  0.00  0.00    -0.056 A 
ATOM     59  CD1 K26 d         -10.644  22.161 -12.702  0.00  0.00    -0.074 A 
ATOM     60  CE1 K26 d         -11.600  21.622 -11.836  0.00  0.00    -0.051 A 
ATOM     61  H28 K26 d          -9.725  21.621 -12.896  0.00  0.00     0.084 H 
ATOM     62  CZ  K26 d         -12.784  22.315 -11.580  0.00  0.00     0.065 A 
ATOM     63  H29 K26 d         -11.421  20.664 -11.362  0.00  0.00     0.087 H 
ATOM     64  CE2 K26 d         -13.007  23.549 -12.190  0.00  0.00    -0.051 A 
ATOM     65  CD2 K26 d         -12.051  24.091 -13.053  0.00  0.00    -0.074 A 
ATOM     66  H31 K26 d         -13.925  24.090 -11.994  0.00  0.00     0.087 H 
ATOM     67  H32 K26 d         -12.225  25.054 -13.518  0.00  0.00     0.084 H 
BRANCH  62  68
ATOM     68  OH  K26 d         -13.722  21.778 -10.741  0.00  0.00    -0.361 OA
ATOM     69  H30 K26 d         -14.127  21.028 -11.159  0.00  0.00     0.217 HD
ENDBRANCH  62  68
ENDBRANCH  55  58
ENDBRANCH   1  55
TORSDOF 17
ENDMDL
MODEL 3
REMARK VINA RESULT:      -8.0      2.293      5.852
REMARK  17 active torsions:
REMARK  status: ('A' for Active; 'I' for Inactive)
REMARK    1  A    between atoms: CBD_3  and  OAI_4 
REMARK    2  A    between atoms: CBF_7  and  CAV_8 
REMARK    3  A    between atoms: CAV_8  and  CBI_9 
REMARK    4  A    between atoms: CBI_9  and  PBK_10 
REMARK    5  A    between atoms: CBI_9  and  NAY_14 
REMARK       I    between atoms: NAY_14  and  C_15 
REMARK    6  A    between atoms: C_15  and  CA_17 
REMARK    7  A    between atoms: CA_17  and  N_18 
REMARK    8  A    between atoms: CA_17  and  CB_30 
REMARK       I    between atoms: N_18  and  CBB_19 
REMARK    9  A    between atoms: CBB_19  and  CBJ_21 
REMARK   10  A    between atoms: CBJ_21  and  CBG_22 
REMARK   11  A    between atoms: CBJ_21  and  NAX_26 
REMARK   12  A    between atoms: CBG_22  and  CAC_23 
REMARK   13  A    between atoms: CBG_22  and  CAT_24 
REMARK   14  A    between atoms: CAT_24  and  CAA_25 
REMARK       I    between atoms: NAX_26  and  CAZ_27 
REMARK   15  A    between atoms: CAZ_27  and  CAB_28 
REMARK   16  A    between atoms: CB_30  and  CG_31 
REMARK   17  A    between atoms: CZ_34  and  OH_35 
ROOT
ATOM      1  CA  K26 d          -8.895  24.657 -13.448  0.00  0.00     0.093 C 
ATOM      2  H10 K26 d          -9.486  25.547 -13.182  0.00  0.00     0.088 H 
ENDROOT
BRANCH   1   3
ATOM      3  C   K26 d          -7.491  24.808 -12.858  0.00  0.00     0.241 C 
ATOM      4  NAY K26 d          -6.756  23.692 -12.843  0.00  0.00    -0.342 N 
ATOM      5  H9  K26 d          -7.118  22.870 -13.281  0.00  0.00     0.163 HD
ATOM      6  O   K26 d          -7.130  25.895 -12.405  0.00  0.00    -0.271 OA
BRANCH   4   7
ATOM      7  CBI K26 d          -5.431  23.632 -12.205  0.00  0.00     0.124 C 
ATOM      8  H8  K26 d          -5.077  24.657 -12.018  0.00  0.00     0.095 H 
BRANCH   7   9
ATOM      9  CAV K26 d          -5.590  22.909 -10.847  0.00  0.00    -0.010 C 
ATOM     10  H6  K26 d          -6.213  22.015 -10.991  0.00  0.00     0.044 H 
ATOM     11  H7  K26 d          -4.596  22.609 -10.484  0.00  0.00     0.044 H 
BRANCH   9  12
ATOM     12  CBF K26 d          -6.252  23.815  -9.797  0.00  0.00    -0.055 A 
ATOM     13  CAR K26 d          -5.570  24.938  -9.333  0.00  0.00    -0.074 A 
ATOM     14  CAN K26 d          -6.156  25.778  -8.391  0.00  0.00    -0.051 A 
ATOM     15  H1  K26 d          -4.577  25.158  -9.709  0.00  0.00     0.084 H 
ATOM     16  CBD K26 d          -7.434  25.498  -7.907  0.00  0.00     0.065 A 
ATOM     17  H2  K26 d          -5.619  26.650  -8.033  0.00  0.00     0.087 H 
ATOM     18  CAO K26 d          -8.133  24.379  -8.371  0.00  0.00    -0.051 A 
ATOM     19  CAS K26 d          -7.538  23.539  -9.312  0.00  0.00    -0.074 A 
ATOM     20  H4  K26 d          -9.129  24.167  -8.001  0.00  0.00     0.087 H 
ATOM     21  H5  K26 d          -8.074  22.667  -9.672  0.00  0.00     0.084 H 
BRANCH  16  22
ATOM     22  OAI K26 d          -7.991  26.328  -6.984  0.00  0.00    -0.361 OA
ATOM     23  H3  K26 d          -8.287  25.819  -6.239  0.00  0.00     0.217 HD
ENDBRANCH  16  22
ENDBRANCH   9  12
ENDBRANCH   7   9
BRANCH   7  24
ATOM     24  PBK K26 d          -4.209  22.798 -13.304  0.00  0.00     0.283 P 
ATOM     25  OAJ K26 d          -3.175  23.917 -13.731  0.00  0.00    -0.638 OA
ATOM     26  OAK K26 d          -3.446  21.760 -12.303  0.00  0.00    -0.638 OA
ATOM     27  OAG K26 d          -4.834  22.133 -14.479  0.00  0.00    -0.638 OA
ENDBRANCH   7  24
ENDBRANCH   4   7
ENDBRANCH   1   3
BRANCH   1  28
ATOM     28  N   K26 d          -8.789  24.568 -14.919  0.00  0.00    -0.346 N 
ATOM     29  CBB K26 d          -8.912  25.612 -15.749  0.00  0.00     0.241 C 
ATOM     30  OAF K26 d          -9.155  26.766 -15.394  0.00  0.00    -0.271 OA
ATOM     31  H11 K26 d          -8.614  23.669 -15.322  0.00  0.00     0.163 HD
BRANCH  29  32
ATOM     32  CBJ K26 d          -8.812  25.256 -17.242  0.00  0.00     0.092 C 
ATOM     33  H12 K26 d          -8.449  26.137 -17.791  0.00  0.00     0.088 H 
BRANCH  32  34
ATOM     34  CBG K26 d         -10.162  24.857 -17.850  0.00  0.00    -0.030 C 
ATOM     35  H13 K26 d          -9.977  24.222 -18.729  0.00  0.00     0.043 H 
BRANCH  34  36
ATOM     36  CAC K26 d         -10.980  24.056 -16.829  0.00  0.00    -0.071 C 
ATOM     37  H14 K26 d         -11.168  23.045 -17.222  0.00  0.00     0.028 H 
ATOM     38  H15 K26 d         -11.938  24.562 -16.647  0.00  0.00     0.028 H 
ATOM     39  H16 K26 d         -10.419  23.983 -15.886  0.00  0.00     0.028 H 
ENDBRANCH  34  36
BRANCH  34  40
ATOM     40  CAT K26 d         -10.950  26.097 -18.302  0.00  0.00    -0.063 C 
ATOM     41  H17 K26 d         -10.961  26.126 -19.402  0.00  0.00     0.033 H 
ATOM     42  H18 K26 d         -10.444  26.995 -17.917  0.00  0.00     0.033 H 
BRANCH  40  43
ATOM     43  CAA K26 d         -12.393  26.094 -17.798  0.00  0.00    -0.076 C 
ATOM     44  H19 K26 d         -12.415  25.747 -16.755  0.00  0.00     0.027 H 
ATOM     45  H20 K26 d         -12.997  25.419 -18.422  0.00  0.00     0.027 H 
ATOM     46  H21 K26 d         -12.804  27.112 -17.856  0.00  0.00     0.027 H 
ENDBRANCH  40  43
ENDBRANCH  34  40
ENDBRANCH  32  34
BRANCH  32  47
ATOM     47  NAX K26 d          -7.809  24.179 -17.354  0.00  0.00    -0.348 N 
ATOM     48  CAZ K26 d          -6.626  24.368 -17.941  0.00  0.00     0.214 C 
ATOM     49  OAD K26 d          -6.285  25.415 -18.489  0.00  0.00    -0.274 OA
ATOM     50  H22 K26 d          -8.023  23.276 -16.978  0.00  0.00     0.163 HD
BRANCH  48  51
ATOM     51  CAB K26 d          -5.687  23.160 -17.929  0.00  0.00    -0.003 C 
ATOM     52  H23 K26 d          -6.003  22.442 -18.700  0.00  0.00     0.040 H 
ATOM     53  H24 K26 d          -5.723  22.677 -16.941  0.00  0.00     0.040 H 
ATOM     54  H25 K26 d          -4.659  23.492 -18.137  0.00  0.00     0.040 H 
ENDBRANCH  48  51
ENDBRANCH  32  47
ENDBRANCH  29  32
ENDBRANCH   1  28
BRANCH   1  55
ATOM     55  CB  K26 d          -9.612  23.423 -12.917  0.00  0.00    -0.014 C 
ATOM     56  H26 K26 d          -8.916  22.823 -12.313  0.00  0.00     0.043 H 
ATOM     57  H27 K26 d          -9.981  22.818 -13.759  0.00  0.00     0.043 H 
BRANCH  55  58
ATOM     58  CG  K26 d         -10.797  23.873 -12.047  0.00  0.00    -0.056 A 
ATOM     59  CD1 K26 d         -12.011  23.194 -12.121  0.00  0.00    -0.074 A 
ATOM     60  CE1 K26 d         -13.086  23.589 -11.320  0.00  0.00    -0.051 A 
ATOM     61  H28 K26 d         -12.123  22.357 -12.801  0.00  0.00     0.084 H 
ATOM     62  CZ  K26 d         -12.947  24.664 -10.441  0.00  0.00     0.065 A 
ATOM     63  H29 K26 d         -14.030  23.060 -11.382  0.00  0.00     0.087 H 
ATOM     64  CE2 K26 d         -11.729  25.339 -10.364  0.00  0.00    -0.051 A 
ATOM     65  CD2 K26 d         -10.653  24.943 -11.161  0.00  0.00    -0.074 A 
ATOM     66  H31 K26 d         -11.617  26.174  -9.682  0.00  0.00     0.087 H 
ATOM     67  H32 K26 d          -9.705  25.465 -11.091  0.00  0.00     0.084 H 
BRANCH  62  68
ATOM     68  OH  K26 d         -14.005  25.056  -9.667  0.00  0.00    -0.361 OA
ATOM     69  H30 K26 d         -13.721  25.731  -9.063  0.00  0.00     0.217 HD
ENDBRANCH  62  68
ENDBRANCH  55  58
ENDBRANCH   1  55
TORSDOF 17
ENDMDL
MODEL 4
REMARK VINA RESULT:      -7.8      1.641      2.126
REMARK  17 active torsions:
REMARK  status: ('A' for Active; 'I' for Inactive)
REMARK    1  A    between atoms: CBD_3  and  OAI_4 
REMARK    2  A    between atoms: CBF_7  and  CAV_8 
REMARK    3  A    between atoms: CAV_8  and  CBI_9 
REMARK    4  A    between atoms: CBI_9  and  PBK_10 
REMARK    5  A    between atoms: CBI_9  and  NAY_14 
REMARK       I    between atoms: NAY_14  and  C_15 
REMARK    6  A    between atoms: C_15  and  CA_17 
REMARK    7  A    between atoms: CA_17  and  N_18 
REMARK    8  A    between atoms: CA_17  and  CB_30 
REMARK       I    between atoms: N_18  and  CBB_19 
REMARK    9  A    between atoms: CBB_19  and  CBJ_21 
REMARK   10  A    between atoms: CBJ_21  and  CBG_22 
REMARK   11  A    between atoms: CBJ_21  and  NAX_26 
REMARK   12  A    between atoms: CBG_22  and  CAC_23 
REMARK   13  A    between atoms: CBG_22  and  CAT_24 
REMARK   14  A    between atoms: CAT_24  and  CAA_25 
REMARK       I    between atoms: NAX_26  and  CAZ_27 
REMARK   15  A    between atoms: CAZ_27  and  CAB_28 
REMARK   16  A    between atoms: CB_30  and  CG_31 
REMARK   17  A    between atoms: CZ_34  and  OH_35 
ROOT
ATOM      1  CA  K26 d          -7.978  23.241 -14.038  0.00  0.00     0.093 C 
ATOM      2  H10 K26 d          -7.824  22.282 -13.521  0.00  0.00     0.088 H 
ENDROOT
BRANCH   1   3
ATOM      3  C   K26 d          -6.839  24.191 -13.656  0.00  0.00     0.241 C 
ATOM      4  NAY K26 d          -5.681  23.599 -13.351  0.00  0.00    -0.342 N 
ATOM      5  H9  K26 d          -5.599  22.610 -13.466  0.00  0.00     0.163 HD
ATOM      6  O   K26 d          -7.044  25.404 -13.611  0.00  0.00    -0.271 OA
BRANCH   4   7
ATOM      7  CBI K26 d          -4.521  24.355 -12.849  0.00  0.00     0.124 C 
ATOM      8  H8  K26 d          -4.823  25.398 -12.672  0.00  0.00     0.095 H 
BRANCH   7   9
ATOM      9  CAV K26 d          -4.094  23.729 -11.501  0.00  0.00    -0.010 C 
ATOM     10  H6  K26 d          -4.209  22.637 -11.563  0.00  0.00     0.044 H 
ATOM     11  H7  K26 d          -3.039  23.976 -11.311  0.00  0.00     0.044 H 
BRANCH   9  12
ATOM     12  CBF K26 d          -4.947  24.255 -10.336  0.00  0.00    -0.055 A 
ATOM     13  CAR K26 d          -6.170  23.648 -10.054  0.00  0.00    -0.074 A 
ATOM     14  CAN K26 d          -6.953  24.100  -8.996  0.00  0.00    -0.051 A 
ATOM     15  H1  K26 d          -6.512  22.819 -10.663  0.00  0.00     0.084 H 
ATOM     16  CBD K26 d          -6.513  25.166  -8.210  0.00  0.00     0.065 A 
ATOM     17  H2  K26 d          -7.904  23.625  -8.782  0.00  0.00     0.087 H 
ATOM     18  CAO K26 d          -5.283  25.777  -8.476  0.00  0.00    -0.051 A 
ATOM     19  CAS K26 d          -4.506  25.321  -9.540  0.00  0.00    -0.074 A 
ATOM     20  H4  K26 d          -4.938  26.599  -7.859  0.00  0.00     0.087 H 
ATOM     21  H5  K26 d          -3.554  25.795  -9.754  0.00  0.00     0.084 H 
BRANCH  16  22
ATOM     22  OAI K26 d          -7.291  25.597  -7.180  0.00  0.00    -0.361 OA
ATOM     23  H3  K26 d          -7.691  24.849  -6.752  0.00  0.00     0.217 HD
ENDBRANCH  16  22
ENDBRANCH   9  12
ENDBRANCH   7   9
BRANCH   7  24
ATOM     24  PBK K26 d          -3.154  24.356 -14.085  0.00  0.00     0.283 P 
ATOM     25  OAJ K26 d          -2.120  23.266 -13.588  0.00  0.00    -0.638 OA
ATOM     26  OAK K26 d          -3.869  23.795 -15.440  0.00  0.00    -0.638 OA
ATOM     27  OAG K26 d          -2.522  25.691 -14.261  0.00  0.00    -0.638 OA
ENDBRANCH   7  24
ENDBRANCH   4   7
ENDBRANCH   1   3
BRANCH   1  28
ATOM     28  N   K26 d          -9.259  23.829 -13.599  0.00  0.00    -0.346 N 
ATOM     29  CBB K26 d          -9.773  23.686 -12.370  0.00  0.00     0.241 C 
ATOM     30  OAF K26 d          -9.257  23.028 -11.466  0.00  0.00    -0.271 OA
ATOM     31  H11 K26 d          -9.778  24.369 -14.262  0.00  0.00     0.163 HD
BRANCH  29  32
ATOM     32  CBJ K26 d         -11.146  24.351 -12.170  0.00  0.00     0.092 C 
ATOM     33  H12 K26 d         -11.597  24.534 -13.156  0.00  0.00     0.088 H 
BRANCH  32  34
ATOM     34  CBG K26 d         -11.052  25.701 -11.447  0.00  0.00    -0.030 C 
ATOM     35  H13 K26 d         -11.969  26.274 -11.655  0.00  0.00     0.043 H 
BRANCH  34  36
ATOM     36  CAC K26 d         -10.945  25.478  -9.934  0.00  0.00    -0.071 C 
ATOM     37  H14 K26 d         -11.894  25.760  -9.453  0.00  0.00     0.028 H 
ATOM     38  H15 K26 d         -10.132  26.096  -9.528  0.00  0.00     0.028 H 
ATOM     39  H16 K26 d         -10.734  24.417  -9.733  0.00  0.00     0.028 H 
ENDBRANCH  34  36
BRANCH  34  40
ATOM     40  CAT K26 d          -9.846  26.511 -11.949  0.00  0.00    -0.063 C 
ATOM     41  H17 K26 d         -10.216  27.423 -12.442  0.00  0.00     0.033 H 
ATOM     42  H18 K26 d          -9.291  25.901 -12.676  0.00  0.00     0.033 H 
BRANCH  40  43
ATOM     43  CAA K26 d          -8.898  26.914 -10.821  0.00  0.00    -0.076 C 
ATOM     44  H19 K26 d          -8.831  26.097 -10.089  0.00  0.00     0.027 H 
ATOM     45  H20 K26 d          -9.280  27.819 -10.326  0.00  0.00     0.027 H 
ATOM     46  H21 K26 d          -7.900  27.118 -11.236  0.00  0.00     0.027 H 
ENDBRANCH  40  43
ENDBRANCH  34  40
ENDBRANCH  32  34
BRANCH  32  47
ATOM     47  NAX K26 d         -11.982  23.381 -11.436  0.00  0.00    -0.348 N 
ATOM     48  CAZ K26 d         -13.258  23.158 -11.757  0.00  0.00     0.214 C 
ATOM     49  OAD K26 d         -13.868  23.768 -12.634  0.00  0.00    -0.274 OA
ATOM     50  H22 K26 d         -11.580  22.874 -10.673  0.00  0.00     0.163 HD
BRANCH  48  51
ATOM     51  CAB K26 d         -13.966  22.087 -10.924  0.00  0.00    -0.003 C 
ATOM     52  H23 K26 d         -14.067  22.437  -9.887  0.00  0.00     0.040 H 
ATOM     53  H24 K26 d         -13.376  21.159 -10.943  0.00  0.00     0.040 H 
ATOM     54  H25 K26 d         -14.964  21.896 -11.346  0.00  0.00     0.040 H 
ENDBRANCH  48  51
ENDBRANCH  32  47
ENDBRANCH  29  32
ENDBRANCH   1  28
BRANCH   1  55
ATOM     55  CB  K26 d          -8.029  22.980 -15.538  0.00  0.00    -0.014 C 
ATOM     56  H26 K26 d          -8.246  21.918 -15.721  0.00  0.00     0.043 H 
ATOM     57  H27 K26 d          -7.060  23.239 -15.991  0.00  0.00     0.043 H 
BRANCH  55  58
ATOM     58  CG  K26 d          -9.137  23.848 -16.155  0.00  0.00    -0.056 A 
ATOM     59  CD1 K26 d         -10.434  23.351 -16.255  0.00  0.00    -0.074 A 
ATOM     60  CE1 K26 d         -11.449  24.142 -16.800  0.00  0.00    -0.051 A 
ATOM     61  H28 K26 d         -10.658  22.348 -15.909  0.00  0.00     0.084 H 
ATOM     62  CZ  K26 d         -11.168  25.435 -17.245  0.00  0.00     0.065 A 
ATOM     63  H29 K26 d         -12.457  23.751 -16.878  0.00  0.00     0.087 H 
ATOM     64  CE2 K26 d          -9.869  25.933 -17.138  0.00  0.00    -0.051 A 
ATOM     65  CD2 K26 d          -8.855  25.144 -16.590  0.00  0.00    -0.074 A 
ATOM     66  H31 K26 d          -9.647  26.937 -17.482  0.00  0.00     0.087 H 
ATOM     67  H32 K26 d          -7.849  25.539 -16.501  0.00  0.00     0.084 H 
BRANCH  62  68
ATOM     68  OH  K26 d         -12.161  26.202 -17.789  0.00  0.00    -0.361 OA
ATOM     69  H30 K26 d         -12.293  25.952 -18.695  0.00  0.00     0.217 HD
ENDBRANCH  62  68
ENDBRANCH  55  58
ENDBRANCH   1  55
TORSDOF 17
ENDMDL
MODEL 5
REMARK VINA RESULT:      -7.8      2.164      6.634
REMARK  17 active torsions:
REMARK  status: ('A' for Active; 'I' for Inactive)
REMARK    1  A    between atoms: CBD_3  and  OAI_4 
REMARK    2  A    between atoms: CBF_7  and  CAV_8 
REMARK    3  A    between atoms: CAV_8  and  CBI_9 
REMARK    4  A    between atoms: CBI_9  and  PBK_10 
REMARK    5  A    between atoms: CBI_9  and  NAY_14 
REMARK       I    between atoms: NAY_14  and  C_15 
REMARK    6  A    between atoms: C_15  and  CA_17 
REMARK    7  A    between atoms: CA_17  and  N_18 
REMARK    8  A    between atoms: CA_17  and  CB_30 
REMARK       I    between atoms: N_18  and  CBB_19 
REMARK    9  A    between atoms: CBB_19  and  CBJ_21 
REMARK   10  A    between atoms: CBJ_21  and  CBG_22 
REMARK   11  A    between atoms: CBJ_21  and  NAX_26 
REMARK   12  A    between atoms: CBG_22  and  CAC_23 
REMARK   13  A    between atoms: CBG_22  and  CAT_24 
REMARK   14  A    between atoms: CAT_24  and  CAA_25 
REMARK       I    between atoms: NAX_26  and  CAZ_27 
REMARK   15  A    between atoms: CAZ_27  and  CAB_28 
REMARK   16  A    between atoms: CB_30  and  CG_31 
REMARK   17  A    between atoms: CZ_34  and  OH_35 
ROOT
ATOM      1  CA  K26 d          -7.786  23.825 -12.481  0.00  0.00     0.093 C 
ATOM      2  H10 K26 d          -8.261  22.880 -12.179  0.00  0.00     0.088 H 
ENDROOT
BRANCH   1   3
ATOM      3  C   K26 d          -6.722  23.524 -13.539  0.00  0.00     0.241 C 
ATOM      4  NAY K26 d          -7.078  23.793 -14.798  0.00  0.00    -0.342 N 
ATOM      5  H9  K26 d          -7.956  24.241 -14.967  0.00  0.00     0.163 HD
ATOM      6  O   K26 d          -5.646  23.030 -13.201  0.00  0.00    -0.271 OA
BRANCH   4   7
ATOM      7  CBI K26 d          -6.222  23.454 -15.947  0.00  0.00     0.124 C 
ATOM      8  H8  K26 d          -5.516  22.665 -15.646  0.00  0.00     0.095 H 
BRANCH   7   9
ATOM      9  CAV K26 d          -7.130  22.902 -17.069  0.00  0.00    -0.010 C 
ATOM     10  H6  K26 d          -6.642  23.073 -18.040  0.00  0.00     0.044 H 
ATOM     11  H7  K26 d          -7.272  21.822 -16.916  0.00  0.00     0.044 H 
BRANCH   9  12
ATOM     12  CBF K26 d          -8.506  23.588 -17.075  0.00  0.00    -0.055 A 
ATOM     13  CAR K26 d          -9.532  23.071 -16.288  0.00  0.00    -0.074 A 
ATOM     14  CAN K26 d         -10.782  23.684 -16.269  0.00  0.00    -0.051 A 
ATOM     15  H1  K26 d          -9.356  22.187 -15.687  0.00  0.00     0.084 H 
ATOM     16  CBD K26 d         -11.010  24.824 -17.040  0.00  0.00     0.065 A 
ATOM     17  H2  K26 d         -11.577  23.276 -15.654  0.00  0.00     0.087 H 
ATOM     18  CAO K26 d          -9.986  25.358 -17.828  0.00  0.00    -0.051 A 
ATOM     19  CAS K26 d          -8.737  24.737 -17.845  0.00  0.00    -0.074 A 
ATOM     20  H4  K26 d         -10.161  26.249 -18.420  0.00  0.00     0.087 H 
ATOM     21  H5  K26 d          -7.940  25.144 -18.458  0.00  0.00     0.084 H 
BRANCH  16  22
ATOM     22  OAI K26 d         -12.238  25.410 -17.012  0.00  0.00    -0.361 OA
ATOM     23  H3  K26 d         -12.899  24.749 -16.840  0.00  0.00     0.217 HD
ENDBRANCH  16  22
ENDBRANCH   9  12
ENDBRANCH   7   9
BRANCH   7  24
ATOM     24  PBK K26 d          -5.244  24.918 -16.492  0.00  0.00     0.283 P 
ATOM     25  OAJ K26 d          -3.794  24.719 -15.890  0.00  0.00    -0.638 OA
ATOM     26  OAK K26 d          -5.150  24.728 -18.110  0.00  0.00    -0.638 OA
ATOM     27  OAG K26 d          -5.849  26.214 -16.085  0.00  0.00    -0.638 OA
ENDBRANCH   7  24
ENDBRANCH   4   7
ENDBRANCH   1   3
BRANCH   1  28
ATOM     28  N   K26 d          -7.132  24.436 -11.305  0.00  0.00    -0.346 N 
ATOM     29  CBB K26 d          -6.999  23.831 -10.118  0.00  0.00     0.241 C 
ATOM     30  OAF K26 d          -7.426  22.707  -9.850  0.00  0.00    -0.271 OA
ATOM     31  H11 K26 d          -6.766  25.361 -11.402  0.00  0.00     0.163 HD
BRANCH  29  32
ATOM     32  CBJ K26 d          -6.326  24.692  -9.034  0.00  0.00     0.092 C 
ATOM     33  H12 K26 d          -5.534  24.099  -8.554  0.00  0.00     0.088 H 
BRANCH  32  34
ATOM     34  CBG K26 d          -7.301  25.135  -7.937  0.00  0.00    -0.030 C 
ATOM     35  H13 K26 d          -8.053  24.344  -7.796  0.00  0.00     0.043 H 
BRANCH  34  36
ATOM     36  CAC K26 d          -6.548  25.339  -6.617  0.00  0.00    -0.071 C 
ATOM     37  H14 K26 d          -5.465  25.367  -6.814  0.00  0.00     0.028 H 
ATOM     38  H15 K26 d          -6.774  24.508  -5.934  0.00  0.00     0.028 H 
ATOM     39  H16 K26 d          -6.862  26.287  -6.157  0.00  0.00     0.028 H 
ENDBRANCH  34  36
BRANCH  34  40
ATOM     40  CAT K26 d          -8.027  26.430  -8.337  0.00  0.00    -0.063 C 
ATOM     41  H17 K26 d          -7.402  26.975  -9.060  0.00  0.00     0.033 H 
ATOM     42  H18 K26 d          -8.168  27.047  -7.437  0.00  0.00     0.033 H 
BRANCH  40  43
ATOM     43  CAA K26 d          -9.393  26.168  -8.971  0.00  0.00    -0.076 C 
ATOM     44  H19 K26 d          -9.798  27.109  -9.369  0.00  0.00     0.027 H 
ATOM     45  H20 K26 d         -10.078  25.765  -8.210  0.00  0.00     0.027 H 
ATOM     46  H21 K26 d          -9.284  25.440  -9.788  0.00  0.00     0.027 H 
ENDBRANCH  40  43
ENDBRANCH  34  40
ENDBRANCH  32  34
BRANCH  32  47
ATOM     47  NAX K26 d          -5.708  25.839  -9.729  0.00  0.00    -0.348 N 
ATOM     48  CAZ K26 d          -4.400  25.890  -9.989  0.00  0.00     0.214 C 
ATOM     49  OAD K26 d          -3.589  25.038  -9.630  0.00  0.00    -0.274 OA
ATOM     50  H22 K26 d          -6.288  26.602 -10.014  0.00  0.00     0.163 HD
BRANCH  48  51
ATOM     51  CAB K26 d          -3.933  27.128 -10.757  0.00  0.00    -0.003 C 
ATOM     52  H23 K26 d          -3.197  26.832 -11.519  0.00  0.00     0.040 H 
ATOM     53  H24 K26 d          -3.470  27.840 -10.057  0.00  0.00     0.040 H 
ATOM     54  H25 K26 d          -4.796  27.604 -11.246  0.00  0.00     0.040 H 
ENDBRANCH  48  51
ENDBRANCH  32  47
ENDBRANCH  29  32
ENDBRANCH   1  28
BRANCH   1  55
ATOM     55  CB  K26 d          -8.866  24.764 -13.003  0.00  0.00    -0.014 C 
ATOM     56  H26 K26 d          -8.771  24.866 -14.094  0.00  0.00     0.043 H 
ATOM     57  H27 K26 d          -8.756  25.753 -12.532  0.00  0.00     0.043 H 
BRANCH  55  58
ATOM     58  CG  K26 d         -10.244  24.177 -12.657  0.00  0.00    -0.056 A 
ATOM     59  CD1 K26 d         -11.360  25.009 -12.604  0.00  0.00    -0.074 A 
ATOM     60  CE1 K26 d         -12.618  24.478 -12.306  0.00  0.00    -0.051 A 
ATOM     61  H28 K26 d         -11.253  26.071 -12.795  0.00  0.00     0.084 H 
ATOM     62  CZ  K26 d         -12.761  23.111 -12.062  0.00  0.00     0.065 A 
ATOM     63  H29 K26 d         -13.484  25.128 -12.264  0.00  0.00     0.087 H 
ATOM     64  CE2 K26 d         -11.644  22.279 -12.121  0.00  0.00    -0.051 A 
ATOM     65  CD2 K26 d         -10.387  22.808 -12.423  0.00  0.00    -0.074 A 
ATOM     66  H31 K26 d         -11.751  21.217 -11.932  0.00  0.00     0.087 H 
ATOM     67  H32 K26 d          -9.523  22.156 -12.476  0.00  0.00     0.084 H 
BRANCH  62  68
ATOM     68  OH  K26 d         -13.992  22.596 -11.759  0.00  0.00    -0.361 OA
ATOM     69  H30 K26 d         -13.955  21.648 -11.795  0.00  0.00     0.217 HD
ENDBRANCH  62  68
ENDBRANCH  55  58
ENDBRANCH   1  55
TORSDOF 17
ENDMDL
MODEL 6
REMARK VINA RESULT:      -7.7      2.398      5.642
REMARK  17 active torsions:
REMARK  status: ('A' for Active; 'I' for Inactive)
REMARK    1  A    between atoms: CBD_3  and  OAI_4 
REMARK    2  A    between atoms: CBF_7  and  CAV_8 
REMARK    3  A    between atoms: CAV_8  and  CBI_9 
REMARK    4  A    between atoms: CBI_9  and  PBK_10 
REMARK    5  A    between atoms: CBI_9  and  NAY_14 
REMARK       I    between atoms: NAY_14  and  C_15 
REMARK    6  A    between atoms: C_15  and  CA_17 
REMARK    7  A    between atoms: CA_17  and  N_18 
REMARK    8  A    between atoms: CA_17  and  CB_30 
REMARK       I    between atoms: N_18  and  CBB_19 
REMARK    9  A    between atoms: CBB_19  and  CBJ_21 
REMARK   10  A    between atoms: CBJ_21  and  CBG_22 
REMARK   11  A    between atoms: CBJ_21  and  NAX_26 
REMARK   12  A    between atoms: CBG_22  and  CAC_23 
REMARK   13  A    between atoms: CBG_22  and  CAT_24 
REMARK   14  A    between atoms: CAT_24  and  CAA_25 
REMARK       I    between atoms: NAX_26  and  CAZ_27 
REMARK   15  A    between atoms: CAZ_27  and  CAB_28 
REMARK   16  A    between atoms: CB_30  and  CG_31 
REMARK   17  A    between atoms: CZ_34  and  OH_35 
ROOT
ATOM      1  CA  K26 d          -8.773  25.034 -13.685  0.00  0.00     0.093 C 
ATOM      2  H10 K26 d          -9.217  26.011 -13.447  0.00  0.00     0.088 H 
ENDROOT
BRANCH   1   3
ATOM      3  C   K26 d          -7.325  25.019 -13.190  0.00  0.00     0.241 C 
ATOM      4  NAY K26 d          -6.875  23.832 -12.776  0.00  0.00    -0.342 N 
ATOM      5  H9  K26 d          -7.459  23.028 -12.889  0.00  0.00     0.163 HD
ATOM      6  O   K26 d          -6.679  26.068 -13.158  0.00  0.00    -0.271 OA
BRANCH   4   7
ATOM      7  CBI K26 d          -5.548  23.664 -12.160  0.00  0.00     0.124 C 
ATOM      8  H8  K26 d          -5.121  24.658 -11.956  0.00  0.00     0.095 H 
BRANCH   7   9
ATOM      9  CAV K26 d          -5.739  22.922 -10.817  0.00  0.00    -0.010 C 
ATOM     10  H6  K26 d          -6.439  22.088 -10.968  0.00  0.00     0.044 H 
ATOM     11  H7  K26 d          -4.766  22.530 -10.486  0.00  0.00     0.044 H 
BRANCH   9  12
ATOM     12  CBF K26 d          -6.298  23.853  -9.729  0.00  0.00    -0.055 A 
ATOM     13  CAR K26 d          -7.521  23.552  -9.134  0.00  0.00    -0.074 A 
ATOM     14  CAN K26 d          -8.040  24.374  -8.138  0.00  0.00    -0.051 A 
ATOM     15  H1  K26 d          -8.071  22.672  -9.449  0.00  0.00     0.084 H 
ATOM     16  CBD K26 d          -7.333  25.505  -7.730  0.00  0.00     0.065 A 
ATOM     17  H2  K26 d          -8.993  24.136  -7.679  0.00  0.00     0.087 H 
ATOM     18  CAO K26 d          -6.100  25.813  -8.313  0.00  0.00    -0.051 A 
ATOM     19  CAS K26 d          -5.587  24.987  -9.313  0.00  0.00    -0.074 A 
ATOM     20  H4  K26 d          -5.546  26.688  -7.990  0.00  0.00     0.087 H 
ATOM     21  H5  K26 d          -4.633  25.224  -9.772  0.00  0.00     0.084 H 
BRANCH  16  22
ATOM     22  OAI K26 d          -7.855  26.300  -6.757  0.00  0.00    -0.361 OA
ATOM     23  H3  K26 d          -7.157  26.602  -6.187  0.00  0.00     0.217 HD
ENDBRANCH  16  22
ENDBRANCH   9  12
ENDBRANCH   7   9
BRANCH   7  24
ATOM     24  PBK K26 d          -4.404  22.773 -13.298  0.00  0.00     0.283 P 
ATOM     25  OAJ K26 d          -3.454  21.912 -12.369  0.00  0.00    -0.638 OA
ATOM     26  OAK K26 d          -5.389  21.750 -14.100  0.00  0.00    -0.638 OA
ATOM     27  OAG K26 d          -3.640  23.682 -14.194  0.00  0.00    -0.638 OA
ENDBRANCH   7  24
ENDBRANCH   4   7
ENDBRANCH   1   3
BRANCH   1  28
ATOM     28  N   K26 d          -8.780  24.841 -15.150  0.00  0.00    -0.346 N 
ATOM     29  CBB K26 d          -8.616  23.658 -15.755  0.00  0.00     0.241 C 
ATOM     30  OAF K26 d          -8.414  22.593 -15.172  0.00  0.00    -0.271 OA
ATOM     31  H11 K26 d          -8.915  25.647 -15.727  0.00  0.00     0.163 HD
BRANCH  29  32
ATOM     32  CBJ K26 d          -8.611  23.723 -17.293  0.00  0.00     0.092 C 
ATOM     33  H12 K26 d          -8.973  22.762 -17.687  0.00  0.00     0.088 H 
BRANCH  32  34
ATOM     34  CBG K26 d          -7.212  23.964 -17.873  0.00  0.00    -0.030 C 
ATOM     35  H13 K26 d          -7.170  23.522 -18.880  0.00  0.00     0.043 H 
BRANCH  34  36
ATOM     36  CAC K26 d          -6.943  25.469 -17.984  0.00  0.00    -0.071 C 
ATOM     37  H14 K26 d          -6.939  25.764 -19.045  0.00  0.00     0.028 H 
ATOM     38  H15 K26 d          -5.967  25.702 -17.536  0.00  0.00     0.028 H 
ATOM     39  H16 K26 d          -7.731  26.023 -17.453  0.00  0.00     0.028 H 
ENDBRANCH  34  36
BRANCH  34  40
ATOM     40  CAT K26 d          -6.134  23.297 -17.003  0.00  0.00    -0.063 C 
ATOM     41  H17 K26 d          -6.627  22.618 -16.291  0.00  0.00     0.033 H 
ATOM     42  H18 K26 d          -5.594  24.079 -16.450  0.00  0.00     0.033 H 
BRANCH  40  43
ATOM     43  CAA K26 d          -5.126  22.496 -17.827  0.00  0.00    -0.076 C 
ATOM     44  H19 K26 d          -4.597  21.789 -17.171  0.00  0.00     0.027 H 
ATOM     45  H20 K26 d          -4.401  23.182 -18.288  0.00  0.00     0.027 H 
ATOM     46  H21 K26 d          -5.656  21.940 -18.614  0.00  0.00     0.027 H 
ENDBRANCH  40  43
ENDBRANCH  34  40
ENDBRANCH  32  34
BRANCH  32  47
ATOM     47  NAX K26 d          -9.564  24.784 -17.674  0.00  0.00    -0.348 N 
ATOM     48  CAZ K26 d         -10.853  24.737 -17.333  0.00  0.00     0.214 C 
ATOM     49  OAD K26 d         -11.377  23.798 -16.736  0.00  0.00    -0.274 OA
ATOM     50  H22 K26 d          -9.233  25.564 -18.207  0.00  0.00     0.163 HD
BRANCH  48  51
ATOM     51  CAB K26 d         -11.691  25.940 -17.769  0.00  0.00    -0.003 C 
ATOM     52  H23 K26 d         -12.614  25.589 -18.254  0.00  0.00     0.040 H 
ATOM     53  H24 K26 d         -11.114  26.551 -18.478  0.00  0.00     0.040 H 
ATOM     54  H25 K26 d         -11.949  26.546 -16.888  0.00  0.00     0.040 H 
ENDBRANCH  48  51
ENDBRANCH  32  47
ENDBRANCH  29  32
ENDBRANCH   1  28
BRANCH   1  55
ATOM     55  CB  K26 d          -9.615  23.947 -13.029  0.00  0.00    -0.014 C 
ATOM     56  H26 K26 d          -8.957  23.223 -12.526  0.00  0.00     0.043 H 
ATOM     57  H27 K26 d         -10.212  23.429 -13.794  0.00  0.00     0.043 H 
BRANCH  55  58
ATOM     58  CG  K26 d         -10.551  24.599 -11.998  0.00  0.00    -0.056 A 
ATOM     59  CD1 K26 d         -10.029  25.451 -11.027  0.00  0.00    -0.074 A 
ATOM     60  CE1 K26 d         -10.877  26.059 -10.098  0.00  0.00    -0.051 A 
ATOM     61  H28 K26 d          -8.963  25.644 -10.993  0.00  0.00     0.084 H 
ATOM     62  CZ  K26 d         -12.251  25.817 -10.140  0.00  0.00     0.065 A 
ATOM     63  H29 K26 d         -10.468  26.721  -9.343  0.00  0.00     0.087 H 
ATOM     64  CE2 K26 d         -12.772  24.968 -11.115  0.00  0.00    -0.051 A 
ATOM     65  CD2 K26 d         -11.926  24.363 -12.047  0.00  0.00    -0.074 A 
ATOM     66  H31 K26 d         -13.839  24.777 -11.151  0.00  0.00     0.087 H 
ATOM     67  H32 K26 d         -12.337  23.710 -12.809  0.00  0.00     0.084 H 
BRANCH  62  68
ATOM     68  OH  K26 d         -13.077  26.405  -9.221  0.00  0.00    -0.361 OA
ATOM     69  H30 K26 d         -13.617  25.740  -8.812  0.00  0.00     0.217 HD
ENDBRANCH  62  68
ENDBRANCH  55  58
ENDBRANCH   1  55
TORSDOF 17
ENDMDL
MODEL 7
REMARK VINA RESULT:      -7.6      2.182      6.740
REMARK  17 active torsions:
REMARK  status: ('A' for Active; 'I' for Inactive)
REMARK    1  A    between atoms: CBD_3  and  OAI_4 
REMARK    2  A    between atoms: CBF_7  and  CAV_8 
REMARK    3  A    between atoms: CAV_8  and  CBI_9 
REMARK    4  A    between atoms: CBI_9  and  PBK_10 
REMARK    5  A    between atoms: CBI_9  and  NAY_14 
REMARK       I    between atoms: NAY_14  and  C_15 
REMARK    6  A    between atoms: C_15  and  CA_17 
REMARK    7  A    between atoms: CA_17  and  N_18 
REMARK    8  A    between atoms: CA_17  and  CB_30 
REMARK       I    between atoms: N_18  and  CBB_19 
REMARK    9  A    between atoms: CBB_19  and  CBJ_21 
REMARK   10  A    between atoms: CBJ_21  and  CBG_22 
REMARK   11  A    between atoms: CBJ_21  and  NAX_26 
REMARK   12  A    between atoms: CBG_22  and  CAC_23 
REMARK   13  A    between atoms: CBG_22  and  CAT_24 
REMARK   14  A    between atoms: CAT_24  and  CAA_25 
REMARK       I    between atoms: NAX_26  and  CAZ_27 
REMARK   15  A    between atoms: CAZ_27  and  CAB_28 
REMARK   16  A    between atoms: CB_30  and  CG_31 
REMARK   17  A    between atoms: CZ_34  and  OH_35 
ROOT
ATOM      1  CA  K26 d          -7.896  23.637 -12.659  0.00  0.00     0.093 C 
ATOM      2  H10 K26 d          -8.332  22.664 -12.388  0.00  0.00     0.088 H 
ENDROOT
BRANCH   1   3
ATOM      3  C   K26 d          -6.833  23.414 -13.738  0.00  0.00     0.241 C 
ATOM      4  NAY K26 d          -7.186  23.784 -14.971  0.00  0.00    -0.342 N 
ATOM      5  H9  K26 d          -8.062  24.248 -15.104  0.00  0.00     0.163 HD
ATOM      6  O   K26 d          -5.759  22.890 -13.439  0.00  0.00    -0.271 OA
BRANCH   4   7
ATOM      7  CBI K26 d          -6.331  23.531 -16.143  0.00  0.00     0.124 C 
ATOM      8  H8  K26 d          -5.640  22.708 -15.910  0.00  0.00     0.095 H 
BRANCH   7   9
ATOM      9  CAV K26 d          -7.244  23.095 -17.312  0.00  0.00    -0.010 C 
ATOM     10  H6  K26 d          -6.762  23.368 -18.262  0.00  0.00     0.044 H 
ATOM     11  H7  K26 d          -7.380  22.004 -17.270  0.00  0.00     0.044 H 
BRANCH   9  12
ATOM     12  CBF K26 d          -8.622  23.772 -17.239  0.00  0.00    -0.055 A 
ATOM     13  CAR K26 d          -8.839  24.959 -17.935  0.00  0.00    -0.074 A 
ATOM     14  CAN K26 d         -10.083  25.583 -17.893  0.00  0.00    -0.051 A 
ATOM     15  H1  K26 d          -8.034  25.399 -18.512  0.00  0.00     0.084 H 
ATOM     16  CBD K26 d         -11.120  25.017 -17.152  0.00  0.00     0.065 A 
ATOM     17  H2  K26 d         -10.245  26.508 -18.435  0.00  0.00     0.087 H 
ATOM     18  CAO K26 d         -10.919  23.820 -16.457  0.00  0.00    -0.051 A 
ATOM     19  CAS K26 d          -9.669  23.203 -16.500  0.00  0.00    -0.074 A 
ATOM     20  H4  K26 d         -11.728  23.376 -15.889  0.00  0.00     0.087 H 
ATOM     21  H5  K26 d          -9.505  22.277 -15.959  0.00  0.00     0.084 H 
BRANCH  16  22
ATOM     22  OAI K26 d         -12.330  25.640 -17.119  0.00  0.00    -0.361 OA
ATOM     23  H3  K26 d         -12.568  25.820 -16.217  0.00  0.00     0.217 HD
ENDBRANCH  16  22
ENDBRANCH   9  12
ENDBRANCH   7   9
BRANCH   7  24
ATOM     24  PBK K26 d          -5.327  25.021 -16.556  0.00  0.00     0.283 P 
ATOM     25  OAJ K26 d          -3.897  24.768 -15.926  0.00  0.00    -0.638 OA
ATOM     26  OAK K26 d          -5.184  24.942 -18.180  0.00  0.00    -0.638 OA
ATOM     27  OAG K26 d          -5.936  26.291 -16.078  0.00  0.00    -0.638 OA
ENDBRANCH   7  24
ENDBRANCH   4   7
ENDBRANCH   1   3
BRANCH   1  28
ATOM     28  N   K26 d          -7.253  24.229 -11.468  0.00  0.00    -0.346 N 
ATOM     29  CBB K26 d          -6.673  25.436 -11.447  0.00  0.00     0.241 C 
ATOM     30  OAF K26 d          -6.579  26.187 -12.418  0.00  0.00    -0.271 OA
ATOM     31  H11 K26 d          -7.250  23.694 -10.623  0.00  0.00     0.163 HD
BRANCH  29  32
ATOM     32  CBJ K26 d          -6.027  25.810 -10.101  0.00  0.00     0.092 C 
ATOM     33  H12 K26 d          -6.318  26.839  -9.844  0.00  0.00     0.088 H 
BRANCH  32  34
ATOM     34  CBG K26 d          -4.495  25.759 -10.143  0.00  0.00    -0.030 C 
ATOM     35  H13 K26 d          -4.137  26.548 -10.821  0.00  0.00     0.043 H 
BRANCH  34  36
ATOM     36  CAC K26 d          -3.924  26.018  -8.743  0.00  0.00    -0.071 C 
ATOM     37  H14 K26 d          -4.141  27.054  -8.444  0.00  0.00     0.028 H 
ATOM     38  H15 K26 d          -2.836  25.861  -8.756  0.00  0.00     0.028 H 
ATOM     39  H16 K26 d          -4.386  25.325  -8.024  0.00  0.00     0.028 H 
ENDBRANCH  34  36
BRANCH  34  40
ATOM     40  CAT K26 d          -4.004  24.402 -10.672  0.00  0.00    -0.063 C 
ATOM     41  H17 K26 d          -4.688  24.065 -11.466  0.00  0.00     0.033 H 
ATOM     42  H18 K26 d          -4.017  23.676  -9.845  0.00  0.00     0.033 H 
BRANCH  40  43
ATOM     43  CAA K26 d          -2.588  24.470 -11.241  0.00  0.00    -0.076 C 
ATOM     44  H19 K26 d          -2.027  25.268 -10.733  0.00  0.00     0.027 H 
ATOM     45  H20 K26 d          -2.635  24.683 -12.319  0.00  0.00     0.027 H 
ATOM     46  H21 K26 d          -2.081  23.506 -11.081  0.00  0.00     0.027 H 
ENDBRANCH  40  43
ENDBRANCH  34  40
ENDBRANCH  32  34
BRANCH  32  47
ATOM     47  NAX K26 d          -6.589  24.891  -9.092  0.00  0.00    -0.348 N 
ATOM     48  CAZ K26 d          -7.398  25.314  -8.118  0.00  0.00     0.214 C 
ATOM     49  OAD K26 d          -7.697  26.491  -7.930  0.00  0.00    -0.274 OA
ATOM     50  H22 K26 d          -6.357  23.918  -9.139  0.00  0.00     0.163 HD
BRANCH  48  51
ATOM     51  CAB K26 d          -7.928  24.222  -7.186  0.00  0.00    -0.003 C 
ATOM     52  H23 K26 d          -9.027  24.241  -7.186  0.00  0.00     0.040 H 
ATOM     53  H24 K26 d          -7.558  24.401  -6.165  0.00  0.00     0.040 H 
ATOM     54  H25 K26 d          -7.578  23.240  -7.536  0.00  0.00     0.040 H 
ENDBRANCH  48  51
ENDBRANCH  32  47
ENDBRANCH  29  32
ENDBRANCH   1  28
BRANCH   1  55
ATOM     55  CB  K26 d          -9.016  24.552 -13.137  0.00  0.00    -0.014 C 
ATOM     56  H26 K26 d          -8.978  24.641 -14.232  0.00  0.00     0.043 H 
ATOM     57  H27 K26 d          -8.898  25.548 -12.684  0.00  0.00     0.043 H 
BRANCH  55  58
ATOM     58  CG  K26 d         -10.365  23.949 -12.713  0.00  0.00    -0.056 A 
ATOM     59  CD1 K26 d         -11.533  24.697 -12.846  0.00  0.00    -0.074 A 
ATOM     60  CE1 K26 d         -12.764  24.147 -12.477  0.00  0.00    -0.051 A 
ATOM     61  H28 K26 d         -11.487  25.707 -13.236  0.00  0.00     0.084 H 
ATOM     62  CZ  K26 d         -12.829  22.846 -11.976  0.00  0.00     0.065 A 
ATOM     63  H29 K26 d         -13.670  24.733 -12.580  0.00  0.00     0.087 H 
ATOM     64  CE2 K26 d         -11.659  22.097 -11.850  0.00  0.00    -0.051 A 
ATOM     65  CD2 K26 d         -10.429  22.644 -12.222  0.00  0.00    -0.074 A 
ATOM     66  H31 K26 d         -11.706  21.086 -11.462  0.00  0.00     0.087 H 
ATOM     67  H32 K26 d          -9.523  22.054 -12.129  0.00  0.00     0.084 H 
BRANCH  62  68
ATOM     68  OH  K26 d         -14.034  22.316 -11.606  0.00  0.00    -0.361 OA
ATOM     69  H30 K26 d         -14.109  21.433 -11.949  0.00  0.00     0.217 HD
ENDBRANCH  62  68
ENDBRANCH  55  58
ENDBRANCH   1  55
TORSDOF 17
ENDMDL
MODEL 8
REMARK VINA RESULT:      -7.5      2.465      5.872
REMARK  17 active torsions:
REMARK  status: ('A' for Active; 'I' for Inactive)
REMARK    1  A    between atoms: CBD_3  and  OAI_4 
REMARK    2  A    between atoms: CBF_7  and  CAV_8 
REMARK    3  A    between atoms: CAV_8  and  CBI_9 
REMARK    4  A    between atoms: CBI_9  and  PBK_10 
REMARK    5  A    between atoms: CBI_9  and  NAY_14 
REMARK       I    between atoms: NAY_14  and  C_15 
REMARK    6  A    between atoms: C_15  and  CA_17 
REMARK    7  A    between atoms: CA_17  and  N_18 
REMARK    8  A    between atoms: CA_17  and  CB_30 
REMARK       I    between atoms: N_18  and  CBB_19 
REMARK    9  A    between atoms: CBB_19  and  CBJ_21 
REMARK   10  A    between atoms: CBJ_21  and  CBG_22 
REMARK   11  A    between atoms: CBJ_21  and  NAX_26 
REMARK   12  A    between atoms: CBG_22  and  CAC_23 
REMARK   13  A    between atoms: CBG_22  and  CAT_24 
REMARK   14  A    between atoms: CAT_24  and  CAA_25 
REMARK       I    between atoms: NAX_26  and  CAZ_27 
REMARK   15  A    between atoms: CAZ_27  and  CAB_28 
REMARK   16  A    between atoms: CB_30  and  CG_31 
REMARK   17  A    between atoms: CZ_34  and  OH_35 
ROOT
ATOM      1  CA  K26 d          -7.707  25.545 -11.887  0.00  0.00     0.093 C 
ATOM      2  H10 K26 d          -7.429  26.514 -11.447  0.00  0.00     0.088 H 
ENDROOT
BRANCH   1   3
ATOM      3  C   K26 d          -7.642  25.663 -13.412  0.00  0.00     0.241 C 
ATOM      4  NAY K26 d          -8.093  24.602 -14.086  0.00  0.00    -0.342 N 
ATOM      5  H9  K26 d          -8.514  23.850 -13.578  0.00  0.00     0.163 HD
ATOM      6  O   K26 d          -7.159  26.672 -13.928  0.00  0.00    -0.271 OA
BRANCH   4   7
ATOM      7  CBI K26 d          -7.994  24.500 -15.551  0.00  0.00     0.124 C 
ATOM      8  H8  K26 d          -7.396  25.343 -15.928  0.00  0.00     0.095 H 
BRANCH   7   9
ATOM      9  CAV K26 d          -7.257  23.183 -15.887  0.00  0.00    -0.010 C 
ATOM     10  H6  K26 d          -7.862  22.336 -15.532  0.00  0.00     0.044 H 
ATOM     11  H7  K26 d          -7.131  23.112 -16.977  0.00  0.00     0.044 H 
BRANCH   9  12
ATOM     12  CBF K26 d          -5.873  23.121 -15.220  0.00  0.00    -0.055 A 
ATOM     13  CAR K26 d          -4.845  23.926 -15.703  0.00  0.00    -0.074 A 
ATOM     14  CAN K26 d          -3.587  23.895 -15.107  0.00  0.00    -0.051 A 
ATOM     15  H1  K26 d          -5.025  24.581 -16.548  0.00  0.00     0.084 H 
ATOM     16  CBD K26 d          -3.353  23.055 -14.019  0.00  0.00     0.065 A 
ATOM     17  H2  K26 d          -2.790  24.524 -15.489  0.00  0.00     0.087 H 
ATOM     18  CAO K26 d          -4.380  22.248 -13.518  0.00  0.00    -0.051 A 
ATOM     19  CAS K26 d          -5.637  22.281 -14.123  0.00  0.00    -0.074 A 
ATOM     20  H4  K26 d          -4.200  21.602 -12.667  0.00  0.00     0.087 H 
ATOM     21  H5  K26 d          -6.435  21.654 -13.742  0.00  0.00     0.084 H 
BRANCH  16  22
ATOM     22  OAI K26 d          -2.118  23.035 -13.448  0.00  0.00    -0.361 OA
ATOM     23  H3  K26 d          -1.998  22.215 -12.984  0.00  0.00     0.217 HD
ENDBRANCH  16  22
ENDBRANCH   9  12
ENDBRANCH   7   9
BRANCH   7  24
ATOM     24  PBK K26 d          -9.662  24.588 -16.330  0.00  0.00     0.283 P 
ATOM     25  OAJ K26 d         -10.614  23.714 -15.416  0.00  0.00    -0.638 OA
ATOM     26  OAK K26 d         -10.082  26.154 -16.147  0.00  0.00    -0.638 OA
ATOM     27  OAG K26 d          -9.673  24.136 -17.747  0.00  0.00    -0.638 OA
ENDBRANCH   7  24
ENDBRANCH   4   7
ENDBRANCH   1   3
BRANCH   1  28
ATOM     28  N   K26 d          -9.091  25.213 -11.492  0.00  0.00    -0.346 N 
ATOM     29  CBB K26 d         -10.146  26.012 -11.697  0.00  0.00     0.241 C 
ATOM     30  OAF K26 d         -10.091  27.128 -12.213  0.00  0.00    -0.271 OA
ATOM     31  H11 K26 d          -9.251  24.334 -11.041  0.00  0.00     0.163 HD
BRANCH  29  32
ATOM     32  CBJ K26 d         -11.477  25.466 -11.150  0.00  0.00     0.092 C 
ATOM     33  H12 K26 d         -12.288  25.774 -11.825  0.00  0.00     0.088 H 
BRANCH  32  34
ATOM     34  CBG K26 d         -11.809  26.001  -9.752  0.00  0.00    -0.030 C 
ATOM     35  H13 K26 d         -11.834  27.100  -9.795  0.00  0.00     0.043 H 
BRANCH  34  36
ATOM     36  CAC K26 d         -13.188  25.494  -9.311  0.00  0.00    -0.071 C 
ATOM     37  H14 K26 d         -13.490  26.011  -8.387  0.00  0.00     0.028 H 
ATOM     38  H15 K26 d         -13.139  24.412  -9.126  0.00  0.00     0.028 H 
ATOM     39  H16 K26 d         -13.924  25.698 -10.103  0.00  0.00     0.028 H 
ENDBRANCH  34  36
BRANCH  34  40
ATOM     40  CAT K26 d         -10.739  25.578  -8.733  0.00  0.00    -0.063 C 
ATOM     41  H17 K26 d         -10.461  26.455  -8.129  0.00  0.00     0.033 H 
ATOM     42  H18 K26 d          -9.856  25.215  -9.279  0.00  0.00     0.033 H 
BRANCH  40  43
ATOM     43  CAA K26 d         -11.224  24.472  -7.796  0.00  0.00    -0.076 C 
ATOM     44  H19 K26 d         -11.457  23.571  -8.382  0.00  0.00     0.027 H 
ATOM     45  H20 K26 d         -12.127  24.810  -7.267  0.00  0.00     0.027 H 
ATOM     46  H21 K26 d         -10.436  24.240  -7.064  0.00  0.00     0.027 H 
ENDBRANCH  40  43
ENDBRANCH  34  40
ENDBRANCH  32  34
BRANCH  32  47
ATOM     47  NAX K26 d         -11.371  23.993 -11.174  0.00  0.00    -0.348 N 
ATOM     48  CAZ K26 d         -12.234  23.231 -11.848  0.00  0.00     0.214 C 
ATOM     49  OAD K26 d         -13.216  23.662 -12.450  0.00  0.00    -0.274 OA
ATOM     50  H22 K26 d         -10.629  23.552 -10.668  0.00  0.00     0.163 HD
BRANCH  48  51
ATOM     51  CAB K26 d         -11.952  21.727 -11.805  0.00  0.00    -0.003 C 
ATOM     52  H23 K26 d         -10.873  21.560 -11.676  0.00  0.00     0.040 H 
ATOM     53  H24 K26 d         -12.286  21.265 -12.746  0.00  0.00     0.040 H 
ATOM     54  H25 K26 d         -12.497  21.276 -10.962  0.00  0.00     0.040 H 
ENDBRANCH  48  51
ENDBRANCH  32  47
ENDBRANCH  29  32
ENDBRANCH   1  28
BRANCH   1  55
ATOM     55  CB  K26 d          -6.759  24.480 -11.352  0.00  0.00    -0.014 C 
ATOM     56  H26 K26 d          -5.998  24.248 -12.111  0.00  0.00     0.043 H 
ATOM     57  H27 K26 d          -7.325  23.568 -11.111  0.00  0.00     0.043 H 
BRANCH  55  58
ATOM     58  CG  K26 d          -6.077  25.014 -10.083  0.00  0.00    -0.056 A 
ATOM     59  CD1 K26 d          -6.771  25.029  -8.874  0.00  0.00    -0.074 A 
ATOM     60  CE1 K26 d          -6.150  25.499  -7.714  0.00  0.00    -0.051 A 
ATOM     61  H28 K26 d          -7.795  24.675  -8.834  0.00  0.00     0.084 H 
ATOM     62  CZ  K26 d          -4.832  25.953  -7.760  0.00  0.00     0.065 A 
ATOM     63  H29 K26 d          -6.694  25.510  -6.776  0.00  0.00     0.087 H 
ATOM     64  CE2 K26 d          -4.136  25.933  -8.968  0.00  0.00    -0.051 A 
ATOM     65  CD2 K26 d          -4.755  25.460 -10.128  0.00  0.00    -0.074 A 
ATOM     66  H31 K26 d          -3.112  26.285  -9.008  0.00  0.00     0.087 H 
ATOM     67  H32 K26 d          -4.207  25.438 -11.064  0.00  0.00     0.084 H 
BRANCH  62  68
ATOM     68  OH  K26 d          -4.231  26.423  -6.624  0.00  0.00    -0.361 OA
ATOM     69  H30 K26 d          -4.202  25.732  -5.973  0.00  0.00     0.217 HD
ENDBRANCH  62  68
ENDBRANCH  55  58
ENDBRANCH   1  55
TORSDOF 17
ENDMDL
MODEL 9
REMARK VINA RESULT:      -7.4      2.457      5.143
REMARK  17 active torsions:
REMARK  status: ('A' for Active; 'I' for Inactive)
REMARK    1  A    between atoms: CBD_3  and  OAI_4 
REMARK    2  A    between atoms: CBF_7  and  CAV_8 
REMARK    3  A    between atoms: CAV_8  and  CBI_9 
REMARK    4  A    between atoms: CBI_9  and  PBK_10 
REMARK    5  A    between atoms: CBI_9  and  NAY_14 
REMARK       I    between atoms: NAY_14  and  C_15 
REMARK    6  A    between atoms: C_15  and  CA_17 
REMARK    7  A    between atoms: CA_17  and  N_18 
REMARK    8  A    between atoms: CA_17  and  CB_30 
REMARK       I    between atoms: N_18  and  CBB_19 
REMARK    9  A    between atoms: CBB_19  and  CBJ_21 
REMARK   10  A    between atoms: CBJ_21  and  CBG_22 
REMARK   11  A    between atoms: CBJ_21  and  NAX_26 
REMARK   12  A    between atoms: CBG_22  and  CAC_23 
REMARK   13  A    between atoms: CBG_22  and  CAT_24 
REMARK   14  A    between atoms: CAT_24  and  CAA_25 
REMARK       I    between atoms: NAX_26  and  CAZ_27 
REMARK   15  A    between atoms: CAZ_27  and  CAB_28 
REMARK   16  A    between atoms: CB_30  and  CG_31 
REMARK   17  A    between atoms: CZ_34  and  OH_35 
ROOT
ATOM      1  CA  K26 d          -7.989  25.679 -12.868  0.00  0.00     0.093 C 
ATOM      2  H10 K26 d          -7.426  26.577 -12.575  0.00  0.00     0.088 H 
ENDROOT
BRANCH   1   3
ATOM      3  C   K26 d          -8.209  25.712 -14.383  0.00  0.00     0.241 C 
ATOM      4  NAY K26 d          -7.250  25.133 -15.111  0.00  0.00    -0.342 N 
ATOM      5  H9  K26 d          -6.510  24.652 -14.640  0.00  0.00     0.163 HD
ATOM      6  O   K26 d          -9.198  26.281 -14.846  0.00  0.00    -0.271 OA
BRANCH   4   7
ATOM      7  CBI K26 d          -7.244  25.179 -16.582  0.00  0.00     0.124 C 
ATOM      8  H8  K26 d          -7.820  26.055 -16.915  0.00  0.00     0.095 H 
BRANCH   7   9
ATOM      9  CAV K26 d          -5.779  25.345 -17.046  0.00  0.00    -0.010 C 
ATOM     10  H6  K26 d          -5.658  24.860 -18.026  0.00  0.00     0.044 H 
ATOM     11  H7  K26 d          -5.553  26.418 -17.137  0.00  0.00     0.044 H 
BRANCH   9  12
ATOM     12  CBF K26 d          -4.793  24.711 -16.052  0.00  0.00    -0.055 A 
ATOM     13  CAR K26 d          -4.780  23.327 -15.889  0.00  0.00    -0.074 A 
ATOM     14  CAN K26 d          -3.887  22.731 -15.003  0.00  0.00    -0.051 A 
ATOM     15  H1  K26 d          -5.469  22.712 -16.456  0.00  0.00     0.084 H 
ATOM     16  CBD K26 d          -2.998  23.521 -14.273  0.00  0.00     0.065 A 
ATOM     17  H2  K26 d          -3.883  21.653 -14.880  0.00  0.00     0.087 H 
ATOM     18  CAO K26 d          -2.995  24.910 -14.435  0.00  0.00    -0.051 A 
ATOM     19  CAS K26 d          -3.895  25.501 -15.321  0.00  0.00    -0.074 A 
ATOM     20  H4  K26 d          -2.298  25.522 -13.874  0.00  0.00     0.087 H 
ATOM     21  H5  K26 d          -3.900  26.578 -15.447  0.00  0.00     0.084 H 
BRANCH  16  22
ATOM     22  OAI K26 d          -2.134  22.922 -13.410  0.00  0.00    -0.361 OA
ATOM     23  H3  K26 d          -2.594  22.255 -12.914  0.00  0.00     0.217 HD
ENDBRANCH  16  22
ENDBRANCH   9  12
ENDBRANCH   7   9
BRANCH   7  24
ATOM     24  PBK K26 d          -8.036  23.672 -17.289  0.00  0.00     0.283 P 
ATOM     25  OAJ K26 d          -8.218  22.670 -16.078  0.00  0.00    -0.638 OA
ATOM     26  OAK K26 d          -9.515  24.197 -17.737  0.00  0.00    -0.638 OA
ATOM     27  OAG K26 d          -7.261  23.070 -18.407  0.00  0.00    -0.638 OA
ENDBRANCH   7  24
ENDBRANCH   4   7
ENDBRANCH   1   3
BRANCH   1  28
ATOM     28  N   K26 d          -9.304  25.690 -12.194  0.00  0.00    -0.346 N 
ATOM     29  CBB K26 d         -10.059  24.601 -11.998  0.00  0.00     0.241 C 
ATOM     30  OAF K26 d          -9.767  23.466 -12.377  0.00  0.00    -0.271 OA
ATOM     31  H11 K26 d          -9.653  26.566 -11.863  0.00  0.00     0.163 HD
BRANCH  29  32
ATOM     32  CBJ K26 d         -11.411  24.876 -11.317  0.00  0.00     0.092 C 
ATOM     33  H12 K26 d         -12.060  25.412 -12.025  0.00  0.00     0.088 H 
BRANCH  32  34
ATOM     34  CBG K26 d         -11.278  25.747 -10.061  0.00  0.00    -0.030 C 
ATOM     35  H13 K26 d         -10.832  26.711 -10.350  0.00  0.00     0.043 H 
BRANCH  34  36
ATOM     36  CAC K26 d         -12.662  26.007  -9.455  0.00  0.00    -0.071 C 
ATOM     37  H14 K26 d         -12.555  26.240  -8.385  0.00  0.00     0.028 H 
ATOM     38  H15 K26 d         -13.289  25.112  -9.574  0.00  0.00     0.028 H 
ATOM     39  H16 K26 d         -13.135  26.856  -9.970  0.00  0.00     0.028 H 
ENDBRANCH  34  36
BRANCH  34  40
ATOM     40  CAT K26 d         -10.362  25.078  -9.023  0.00  0.00    -0.063 C 
ATOM     41  H17 K26 d          -9.651  25.828  -8.646  0.00  0.00     0.033 H 
ATOM     42  H18 K26 d          -9.809  24.264  -9.514  0.00  0.00     0.033 H 
BRANCH  40  43
ATOM     43  CAA K26 d         -11.138  24.499  -7.841  0.00  0.00    -0.076 C 
ATOM     44  H19 K26 d         -11.254  25.271  -7.066  0.00  0.00     0.027 H 
ATOM     45  H20 K26 d         -10.588  23.642  -7.425  0.00  0.00     0.027 H 
ATOM     46  H21 K26 d         -12.130  24.168  -8.181  0.00  0.00     0.027 H 
ENDBRANCH  40  43
ENDBRANCH  34  40
ENDBRANCH  32  34
BRANCH  32  47
ATOM     47  NAX K26 d         -12.011  23.560 -11.022  0.00  0.00    -0.348 N 
ATOM     48  CAZ K26 d         -13.099  23.118 -11.657  0.00  0.00     0.214 C 
ATOM     49  OAD K26 d         -13.731  23.772 -12.484  0.00  0.00    -0.274 OA
ATOM     50  H22 K26 d         -11.589  22.980 -10.324  0.00  0.00     0.163 HD
BRANCH  48  51
ATOM     51  CAB K26 d         -13.562  21.714 -11.263  0.00  0.00    -0.003 C 
ATOM     52  H23 K26 d         -13.331  21.535 -10.202  0.00  0.00     0.040 H 
ATOM     53  H24 K26 d         -13.041  20.969 -11.882  0.00  0.00     0.040 H 
ATOM     54  H25 K26 d         -14.647  21.627 -11.422  0.00  0.00     0.040 H 
ENDBRANCH  48  51
ENDBRANCH  32  47
ENDBRANCH  29  32
ENDBRANCH   1  28
BRANCH   1  55
ATOM     55  CB  K26 d          -7.205  24.450 -12.428  0.00  0.00    -0.014 C 
ATOM     56  H26 K26 d          -7.049  23.783 -13.289  0.00  0.00     0.043 H 
ATOM     57  H27 K26 d          -7.766  23.914 -11.647  0.00  0.00     0.043 H 
BRANCH  55  58
ATOM     58  CG  K26 d          -5.846  24.901 -11.871  0.00  0.00    -0.056 A 
ATOM     59  CD1 K26 d          -5.458  26.235 -11.980  0.00  0.00    -0.074 A 
ATOM     60  CE1 K26 d          -4.231  26.654 -11.460  0.00  0.00    -0.051 A 
ATOM     61  H28 K26 d          -6.110  26.950 -12.469  0.00  0.00     0.084 H 
ATOM     62  CZ  K26 d          -3.388  25.739 -10.827  0.00  0.00     0.065 A 
ATOM     63  H29 K26 d          -3.931  27.692 -11.549  0.00  0.00     0.087 H 
ATOM     64  CE2 K26 d          -3.781  24.405 -10.713  0.00  0.00    -0.051 A 
ATOM     65  CD2 K26 d          -5.009  23.986 -11.229  0.00  0.00    -0.074 A 
ATOM     66  H31 K26 d          -3.129  23.691 -10.222  0.00  0.00     0.087 H 
ATOM     67  H32 K26 d          -5.314  22.950 -11.131  0.00  0.00     0.084 H 
BRANCH  62  68
ATOM     68  OH  K26 d          -2.182  26.150 -10.330  0.00  0.00    -0.361 OA
ATOM     69  H30 K26 d          -1.519  26.070 -11.004  0.00  0.00     0.217 HD
ENDBRANCH  62  68
ENDBRANCH  55  58
ENDBRANCH   1  55
TORSDOF 17
ENDMDL
MODEL 10
REMARK VINA RESULT:      -6.9      2.814      4.518
REMARK  17 active torsions:
REMARK  status: ('A' for Active; 'I' for Inactive)
REMARK    1  A    between atoms: CBD_3  and  OAI_4 
REMARK    2  A    between atoms: CBF_7  and  CAV_8 
REMARK    3  A    between atoms: CAV_8  and  CBI_9 
REMARK    4  A    between atoms: CBI_9  and  PBK_10 
REMARK    5  A    between atoms: CBI_9  and  NAY_14 
REMARK       I    between atoms: NAY_14  and  C_15 
REMARK    6  A    between atoms: C_15  and  CA_17 
REMARK    7  A    between atoms: CA_17  and  N_18 
REMARK    8  A    between atoms: CA_17  and  CB_30 
REMARK       I    between atoms: N_18  and  CBB_19 
REMARK    9  A    between atoms: CBB_19  and  CBJ_21 
REMARK   10  A    between atoms: CBJ_21  and  CBG_22 
REMARK   11  A    between atoms: CBJ_21  and  NAX_26 
REMARK   12  A    between atoms: CBG_22  and  CAC_23 
REMARK   13  A    between atoms: CBG_22  and  CAT_24 
REMARK   14  A    between atoms: CAT_24  and  CAA_25 
REMARK       I    between atoms: NAX_26  and  CAZ_27 
REMARK   15  A    between atoms: CAZ_27  and  CAB_28 
REMARK   16  A    between atoms: CB_30  and  CG_31 
REMARK   17  A    between atoms: CZ_34  and  OH_35 
ROOT
ATOM      1  CA  K26 d          -8.230  24.769 -12.588  0.00  0.00     0.093 C 
ATOM      2  H10 K26 d          -8.166  23.691 -12.796  0.00  0.00     0.088 H 
ENDROOT
BRANCH   1   3
ATOM      3  C   K26 d          -7.161  25.134 -11.555  0.00  0.00     0.241 C 
ATOM      4  NAY K26 d          -6.809  24.148 -10.727  0.00  0.00    -0.342 N 
ATOM      5  H9  K26 d          -7.185  23.234 -10.876  0.00  0.00     0.163 HD
ATOM      6  O   K26 d          -6.722  26.284 -11.509  0.00  0.00    -0.271 OA
BRANCH   4   7
ATOM      7  CBI K26 d          -5.884  24.359  -9.601  0.00  0.00     0.124 C 
ATOM      8  H8  K26 d          -5.549  23.381  -9.224  0.00  0.00     0.095 H 
BRANCH   7   9
ATOM      9  CAV K26 d          -4.654  25.130 -10.135  0.00  0.00    -0.010 C 
ATOM     10  H6  K26 d          -4.957  26.158 -10.380  0.00  0.00     0.044 H 
ATOM     11  H7  K26 d          -3.880  25.152  -9.354  0.00  0.00     0.044 H 
BRANCH   9  12
ATOM     12  CBF K26 d          -4.073  24.468 -11.394  0.00  0.00    -0.055 A 
ATOM     13  CAR K26 d          -4.012  23.078 -11.471  0.00  0.00    -0.074 A 
ATOM     14  CAN K26 d          -3.500  22.458 -12.607  0.00  0.00    -0.051 A 
ATOM     15  H1  K26 d          -4.365  22.478 -10.641  0.00  0.00     0.084 H 
ATOM     16  CBD K26 d          -3.047  23.229 -13.678  0.00  0.00     0.065 A 
ATOM     17  H2  K26 d          -3.454  21.376 -12.661  0.00  0.00     0.087 H 
ATOM     18  CAO K26 d          -3.112  24.625 -13.617  0.00  0.00    -0.051 A 
ATOM     19  CAS K26 d          -3.621  25.241 -12.474  0.00  0.00    -0.074 A 
ATOM     20  H4  K26 d          -2.767  25.224 -14.453  0.00  0.00     0.087 H 
ATOM     21  H5  K26 d          -3.669  26.323 -12.419  0.00  0.00     0.084 H 
BRANCH  16  22
ATOM     22  OAI K26 d          -2.548  22.607 -14.780  0.00  0.00    -0.361 OA
ATOM     23  H3  K26 d          -1.788  23.084 -15.094  0.00  0.00     0.217 HD
ENDBRANCH  16  22
ENDBRANCH   9  12
ENDBRANCH   7   9
BRANCH   7  24
ATOM     24  PBK K26 d          -6.722  25.247  -8.220  0.00  0.00     0.283 P 
ATOM     25  OAJ K26 d          -7.682  24.186  -7.543  0.00  0.00    -0.638 OA
ATOM     26  OAK K26 d          -5.505  25.564  -7.180  0.00  0.00    -0.638 OA
ATOM     27  OAG K26 d          -7.452  26.465  -8.662  0.00  0.00    -0.638 OA
ENDBRANCH   7  24
ENDBRANCH   4   7
ENDBRANCH   1   3
BRANCH   1  28
ATOM     28  N   K26 d          -9.562  25.077 -12.028  0.00  0.00    -0.346 N 
ATOM     29  CBB K26 d         -10.302  24.211 -11.324  0.00  0.00     0.241 C 
ATOM     30  OAF K26 d          -9.979  23.047 -11.080  0.00  0.00    -0.271 OA
ATOM     31  H11 K26 d          -9.936  25.991 -12.185  0.00  0.00     0.163 HD
BRANCH  29  32
ATOM     32  CBJ K26 d         -11.677  24.749 -10.891  0.00  0.00     0.092 C 
ATOM     33  H12 K26 d         -12.127  25.289 -11.737  0.00  0.00     0.088 H 
BRANCH  32  34
ATOM     34  CBG K26 d         -11.587  25.727  -9.713  0.00  0.00    -0.030 C 
ATOM     35  H13 K26 d         -11.175  26.679 -10.078  0.00  0.00     0.043 H 
BRANCH  34  36
ATOM     36  CAC K26 d         -12.986  25.984  -9.139  0.00  0.00    -0.071 C 
ATOM     37  H14 K26 d         -13.341  26.972  -9.468  0.00  0.00     0.028 H 
ATOM     38  H15 K26 d         -12.942  25.958  -8.040  0.00  0.00     0.028 H 
ATOM     39  H16 K26 d         -13.678  25.208  -9.496  0.00  0.00     0.028 H 
ENDBRANCH  34  36
BRANCH  34  40
ATOM     40  CAT K26 d         -10.657  25.183  -8.616  0.00  0.00    -0.063 C 
ATOM     41  H17 K26 d         -10.220  26.033  -8.071  0.00  0.00     0.033 H 
ATOM     42  H18 K26 d          -9.854  24.601  -9.093  0.00  0.00     0.033 H 
BRANCH  40  43
ATOM     43  CAA K26 d         -11.387  24.284  -7.618  0.00  0.00    -0.076 C 
ATOM     44  H19 K26 d         -11.307  24.716  -6.610  0.00  0.00     0.027 H 
ATOM     45  H20 K26 d         -10.931  23.283  -7.625  0.00  0.00     0.027 H 
ATOM     46  H21 K26 d         -12.447  24.207  -7.902  0.00  0.00     0.027 H 
ENDBRANCH  40  43
ENDBRANCH  34  40
ENDBRANCH  32  34
BRANCH  32  47
ATOM     47  NAX K26 d         -12.512  23.573 -10.578  0.00  0.00    -0.348 N 
ATOM     48  CAZ K26 d         -13.476  23.149 -11.398  0.00  0.00     0.214 C 
ATOM     49  OAD K26 d         -13.799  23.718 -12.439  0.00  0.00    -0.274 OA
ATOM     50  H22 K26 d         -12.351  23.077  -9.724  0.00  0.00     0.163 HD
BRANCH  48  51
ATOM     51  CAB K26 d         -14.215  21.888 -10.944  0.00  0.00    -0.003 C 
ATOM     52  H23 K26 d         -14.463  21.973  -9.876  0.00  0.00     0.040 H 
ATOM     53  H24 K26 d         -13.572  21.009 -11.103  0.00  0.00     0.040 H 
ATOM     54  H25 K26 d         -15.141  21.775 -11.527  0.00  0.00     0.040 H 
ENDBRANCH  48  51
ENDBRANCH  32  47
ENDBRANCH  29  32
ENDBRANCH   1  28
BRANCH   1  55
ATOM     55  CB  K26 d          -8.045  25.526 -13.897  0.00  0.00    -0.014 C 
ATOM     56  H26 K26 d          -7.624  26.521 -13.692  0.00  0.00     0.043 H 
ATOM     57  H27 K26 d          -9.017  25.637 -14.401  0.00  0.00     0.043 H 
BRANCH  55  58
ATOM     58  CG  K26 d          -7.084  24.733 -14.797  0.00  0.00    -0.056 A 
ATOM     59  CD1 K26 d          -6.952  23.357 -14.630  0.00  0.00    -0.074 A 
ATOM     60  CE1 K26 d          -6.092  22.629 -15.457  0.00  0.00    -0.051 A 
ATOM     61  H28 K26 d          -7.518  22.848 -13.857  0.00  0.00     0.084 H 
ATOM     62  CZ  K26 d          -5.363  23.277 -16.455  0.00  0.00     0.065 A 
ATOM     63  H29 K26 d          -5.990  21.558 -15.323  0.00  0.00     0.087 H 
ATOM     64  CE2 K26 d          -5.501  24.655 -16.624  0.00  0.00    -0.051 A 
ATOM     65  CD2 K26 d          -6.363  25.383 -15.801  0.00  0.00    -0.074 A 
ATOM     66  H31 K26 d          -4.937  25.162 -17.398  0.00  0.00     0.087 H 
ATOM     67  H32 K26 d          -6.474  26.452 -15.943  0.00  0.00     0.084 H 
BRANCH  62  68
ATOM     68  OH  K26 d          -4.513  22.563 -17.254  0.00  0.00    -0.361 OA
ATOM     69  H30 K26 d          -3.918  23.159 -17.693  0.00  0.00     0.217 HD
ENDBRANCH  62  68
ENDBRANCH  55  58
ENDBRANCH   1  55
TORSDOF 17
ENDMDL
