MODEL 1
REMARK VINA RESULT:      -6.4      0.000      0.000
REMARK  7 active torsions:
REMARK  status: ('A' for Active; 'I' for Inactive)
REMARK    1  A    between atoms: C1_1  and  O1_8 
REMARK    2  A    between atoms: C2_2  and  O2_9 
REMARK    3  A    between atoms: C3_3  and  O3_10 
REMARK    4  A    between atoms: C4_4  and  O4_11 
REMARK    5  A    between atoms: C5_5  and  C6_6 
REMARK    6  A    between atoms: C6_6  and  O6_13 
REMARK    7  A    between atoms: O1_8  and  C7_7 
ROOT
ATOM      1  C1  MMA d          -4.300 -17.703  -5.931  0.00  0.00     0.158 C 
ATOM      2  C2  MMA d          -3.596 -16.985  -4.766  0.00  0.00     0.110 C 
ATOM      3  C3  MMA d          -4.591 -16.591  -3.672  0.00  0.00     0.092 C 
ATOM      4  C4  MMA d          -5.770 -15.823  -4.269  0.00  0.00     0.090 C 
ATOM      5  C5  MMA d          -6.415 -16.743  -5.300  0.00  0.00     0.089 C 
ATOM      6  O5  MMA d          -5.460 -16.979  -6.353  0.00  0.00    -0.349 OA
ATOM      7  H1  MMA d          -3.604 -17.811  -6.776  0.00  0.00     0.133 H 
ATOM      8  H2  MMA d          -2.839 -17.659  -4.338  0.00  0.00     0.094 H 
ATOM      9  H3  MMA d          -4.951 -17.495  -3.158  0.00  0.00     0.091 H 
ATOM     10  H4  MMA d          -5.401 -14.921  -4.778  0.00  0.00     0.091 H 
ATOM     11  H5  MMA d          -6.660 -17.698  -4.812  0.00  0.00     0.090 H 
ENDROOT
BRANCH   1  12
ATOM     12  O1  MMA d          -4.712 -18.988  -5.461  0.00  0.00    -0.363 OA
BRANCH  12  13
ATOM     13  C7  MMA d          -3.587 -19.864  -5.243  0.00  0.00     0.007 C 
ATOM     14  H8  MMA d          -2.989 -19.928  -6.164  0.00  0.00     0.066 H 
ATOM     15  H9  MMA d          -3.949 -20.866  -4.971  0.00  0.00     0.066 H 
ATOM     16  H10 MMA d          -2.963 -19.465  -4.429  0.00  0.00     0.066 H 
ENDBRANCH  12  13
ENDBRANCH   1  12
BRANCH   2  17
ATOM     17  O2  MMA d          -2.953 -15.787  -5.258  0.00  0.00    -0.388 OA
ATOM     18  H11 MMA d          -2.029 -15.810  -5.035  0.00  0.00     0.210 HD
ENDBRANCH   2  17
BRANCH   3  19
ATOM     19  O3  MMA d          -3.942 -15.709  -2.735  0.00  0.00    -0.390 OA
ATOM     20  H12 MMA d          -3.047 -15.997  -2.597  0.00  0.00     0.210 HD
ENDBRANCH   3  19
BRANCH   5  21
ATOM     21  C6  MMA d          -7.701 -16.164  -5.896  0.00  0.00     0.043 C 
ATOM     22  H6  MMA d          -8.165 -15.462  -5.188  0.00  0.00     0.078 H 
ATOM     23  H7  MMA d          -8.409 -16.973  -6.127  0.00  0.00     0.078 H 
BRANCH  21  24
ATOM     24  O6  MMA d          -7.323 -15.472  -7.110  0.00  0.00    -0.398 OA
ATOM     25  H14 MMA d          -7.820 -14.665  -7.180  0.00  0.00     0.209 HD
ENDBRANCH  21  24
ENDBRANCH   5  21
BRANCH   4  26
ATOM     26  O4  MMA d          -6.682 -15.413  -3.222  0.00  0.00    -0.390 OA
ATOM     27  H13 MMA d          -6.912 -14.499  -3.345  0.00  0.00     0.210 HD
ENDBRANCH   4  26
TORSDOF 7
ENDMDL
MODEL 2
REMARK VINA RESULT:      -5.5      1.793      3.935
REMARK  7 active torsions:
REMARK  status: ('A' for Active; 'I' for Inactive)
REMARK    1  A    between atoms: C1_1  and  O1_8 
REMARK    2  A    between atoms: C2_2  and  O2_9 
REMARK    3  A    between atoms: C3_3  and  O3_10 
REMARK    4  A    between atoms: C4_4  and  O4_11 
REMARK    5  A    between atoms: C5_5  and  C6_6 
REMARK    6  A    between atoms: C6_6  and  O6_13 
REMARK    7  A    between atoms: O1_8  and  C7_7 
ROOT
ATOM      1  C1  MMA d          -6.811 -17.977  -3.650  0.00  0.00     0.158 C 
ATOM      2  C2  MMA d          -6.882 -16.473  -3.965  0.00  0.00     0.110 C 
ATOM      3  C3  MMA d          -5.743 -16.043  -4.892  0.00  0.00     0.092 C 
ATOM      4  C4  MMA d          -4.396 -16.512  -4.341  0.00  0.00     0.090 C 
ATOM      5  C5  MMA d          -4.474 -18.030  -4.226  0.00  0.00     0.089 C 
ATOM      6  O5  MMA d          -5.489 -18.355  -3.255  0.00  0.00    -0.349 OA
ATOM      7  H1  MMA d          -7.522 -18.223  -2.846  0.00  0.00     0.133 H 
ATOM      8  H2  MMA d          -7.844 -16.256  -4.453  0.00  0.00     0.094 H 
ATOM      9  H3  MMA d          -5.906 -16.463  -5.896  0.00  0.00     0.091 H 
ATOM     10  H4  MMA d          -4.241 -16.085  -3.340  0.00  0.00     0.091 H 
ATOM     11  H5  MMA d          -4.764 -18.441  -5.204  0.00  0.00     0.090 H 
ENDROOT
BRANCH   1  12
ATOM     12  O1  MMA d          -7.149 -18.685  -4.845  0.00  0.00    -0.363 OA
BRANCH  12  13
ATOM     13  C7  MMA d          -8.348 -18.162  -5.454  0.00  0.00     0.007 C 
ATOM     14  H8  MMA d          -9.142 -18.088  -4.698  0.00  0.00     0.066 H 
ATOM     15  H9  MMA d          -8.673 -18.836  -6.261  0.00  0.00     0.066 H 
ATOM     16  H10 MMA d          -8.143 -17.164  -5.870  0.00  0.00     0.066 H 
ENDBRANCH  12  13
ENDBRANCH   1  12
BRANCH   2  17
ATOM     17  O2  MMA d          -6.785 -15.718  -2.735  0.00  0.00    -0.388 OA
ATOM     18  H11 MMA d          -6.023 -16.007  -2.247  0.00  0.00     0.210 HD
ENDBRANCH   2  17
BRANCH   3  19
ATOM     19  O3  MMA d          -5.697 -14.604  -4.954  0.00  0.00    -0.390 OA
ATOM     20  H12 MMA d          -5.917 -14.244  -4.102  0.00  0.00     0.210 HD
ENDBRANCH   3  19
BRANCH   5  21
ATOM     21  C6  MMA d          -3.146 -18.668  -3.810  0.00  0.00     0.043 C 
ATOM     22  H6  MMA d          -2.583 -18.985  -4.701  0.00  0.00     0.078 H 
ATOM     23  H7  MMA d          -3.330 -19.538  -3.164  0.00  0.00     0.078 H 
BRANCH  21  24
ATOM     24  O6  MMA d          -2.406 -17.657  -3.087  0.00  0.00    -0.398 OA
ATOM     25  H14 MMA d          -2.287 -16.895  -3.642  0.00  0.00     0.209 HD
ENDBRANCH  21  24
ENDBRANCH   5  21
BRANCH   4  26
ATOM     26  O4  MMA d          -3.321 -16.061  -5.199  0.00  0.00    -0.390 OA
ATOM     27  H13 MMA d          -3.677 -15.519  -5.893  0.00  0.00     0.210 HD
ENDBRANCH   4  26
TORSDOF 7
ENDMDL
MODEL 3
REMARK VINA RESULT:      -5.2      2.027      3.796
REMARK  7 active torsions:
REMARK  status: ('A' for Active; 'I' for Inactive)
REMARK    1  A    between atoms: C1_1  and  O1_8 
REMARK    2  A    between atoms: C2_2  and  O2_9 
REMARK    3  A    between atoms: C3_3  and  O3_10 
REMARK    4  A    between atoms: C4_4  and  O4_11 
REMARK    5  A    between atoms: C5_5  and  C6_6 
REMARK    6  A    between atoms: C6_6  and  O6_13 
REMARK    7  A    between atoms: O1_8  and  C7_7 
ROOT
ATOM      1  C1  MMA d          -6.738 -19.025  -4.246  0.00  0.00     0.158 C 
ATOM      2  C2  MMA d          -7.868 -17.993  -4.403  0.00  0.00     0.110 C 
ATOM      3  C3  MMA d          -7.361 -16.707  -5.059  0.00  0.00     0.092 C 
ATOM      4  C4  MMA d          -6.123 -16.185  -4.330  0.00  0.00     0.090 C 
ATOM      5  C5  MMA d          -5.076 -17.290  -4.397  0.00  0.00     0.089 C 
ATOM      6  O5  MMA d          -5.575 -18.427  -3.665  0.00  0.00    -0.349 OA
ATOM      7  H1  MMA d          -7.080 -19.859  -3.615  0.00  0.00     0.133 H 
ATOM      8  H2  MMA d          -8.662 -18.427  -5.028  0.00  0.00     0.094 H 
ATOM      9  H3  MMA d          -7.123 -16.900  -6.115  0.00  0.00     0.091 H 
ATOM     10  H4  MMA d          -6.371 -15.991  -3.276  0.00  0.00     0.091 H 
ATOM     11  H5  MMA d          -4.932 -17.573  -5.450  0.00  0.00     0.090 H 
ENDROOT
BRANCH   1  12
ATOM     12  O1  MMA d          -6.401 -19.499  -5.552  0.00  0.00    -0.363 OA
BRANCH  12  13
ATOM     13  C7  MMA d          -7.513 -20.170  -6.180  0.00  0.00     0.007 C 
ATOM     14  H8  MMA d          -7.402 -21.257  -6.058  0.00  0.00     0.066 H 
ATOM     15  H9  MMA d          -7.533 -19.922  -7.252  0.00  0.00     0.066 H 
ATOM     16  H10 MMA d          -8.452 -19.842  -5.710  0.00  0.00     0.066 H 
ENDBRANCH  12  13
ENDBRANCH   1  12
BRANCH   2  17
ATOM     17  O2  MMA d          -8.405 -17.666  -3.100  0.00  0.00    -0.388 OA
ATOM     18  H11 MMA d          -8.598 -18.468  -2.628  0.00  0.00     0.210 HD
ENDBRANCH   2  17
BRANCH   3  19
ATOM     19  O3  MMA d          -8.375 -15.688  -4.953  0.00  0.00    -0.390 OA
ATOM     20  H12 MMA d          -8.353 -15.308  -4.082  0.00  0.00     0.210 HD
ENDBRANCH   3  19
BRANCH   5  21
ATOM     21  C6  MMA d          -3.721 -16.868  -3.823  0.00  0.00     0.043 C 
ATOM     22  H6  MMA d          -3.035 -16.589  -4.636  0.00  0.00     0.078 H 
ATOM     23  H7  MMA d          -3.283 -17.691  -3.240  0.00  0.00     0.078 H 
BRANCH  21  24
ATOM     24  O6  MMA d          -3.968 -15.728  -2.966  0.00  0.00    -0.398 OA
ATOM     25  H14 MMA d          -3.212 -15.582  -2.409  0.00  0.00     0.209 HD
ENDBRANCH  21  24
ENDBRANCH   5  21
BRANCH   4  26
ATOM     26  O4  MMA d          -5.678 -14.943  -4.927  0.00  0.00    -0.390 OA
ATOM     27  H13 MMA d          -4.776 -15.034  -5.210  0.00  0.00     0.210 HD
ENDBRANCH   4  26
TORSDOF 7
ENDMDL
MODEL 4
REMARK VINA RESULT:      -4.9      2.017      4.062
REMARK  7 active torsions:
REMARK  status: ('A' for Active; 'I' for Inactive)
REMARK    1  A    between atoms: C1_1  and  O1_8 
REMARK    2  A    between atoms: C2_2  and  O2_9 
REMARK    3  A    between atoms: C3_3  and  O3_10 
REMARK    4  A    between atoms: C4_4  and  O4_11 
REMARK    5  A    between atoms: C5_5  and  C6_6 
REMARK    6  A    between atoms: C6_6  and  O6_13 
REMARK    7  A    between atoms: O1_8  and  C7_7 
ROOT
ATOM      1  C1  MMA d          -6.760 -18.305  -3.693  0.00  0.00     0.158 C 
ATOM      2  C2  MMA d          -7.062 -17.245  -4.766  0.00  0.00     0.110 C 
ATOM      3  C3  MMA d          -5.982 -17.226  -5.850  0.00  0.00     0.092 C 
ATOM      4  C4  MMA d          -4.593 -17.113  -5.222  0.00  0.00     0.090 C 
ATOM      5  C5  MMA d          -4.430 -18.315  -4.299  0.00  0.00     0.089 C 
ATOM      6  O5  MMA d          -5.405 -18.206  -3.243  0.00  0.00    -0.349 OA
ATOM      7  H1  MMA d          -7.443 -18.177  -2.840  0.00  0.00     0.133 H 
ATOM      8  H2  MMA d          -8.033 -17.475  -5.230  0.00  0.00     0.094 H 
ATOM      9  H3  MMA d          -6.048 -18.143  -6.454  0.00  0.00     0.091 H 
ATOM     10  H4  MMA d          -4.534 -16.192  -4.623  0.00  0.00     0.091 H 
ATOM     11  H5  MMA d          -4.623 -19.230  -4.878  0.00  0.00     0.090 H 
ENDROOT
BRANCH   1  12
ATOM     12  O1  MMA d          -6.948 -19.591  -4.290  0.00  0.00    -0.363 OA
BRANCH  12  13
ATOM     13  C7  MMA d          -8.270 -20.110  -4.034  0.00  0.00     0.007 C 
ATOM     14  H8  MMA d          -8.239 -20.776  -3.160  0.00  0.00     0.066 H 
ATOM     15  H9  MMA d          -8.618 -20.674  -4.912  0.00  0.00     0.066 H 
ATOM     16  H10 MMA d          -8.959 -19.276  -3.836  0.00  0.00     0.066 H 
ENDBRANCH  12  13
ENDBRANCH   1  12
BRANCH   2  17
ATOM     17  O2  MMA d          -7.120 -15.939  -4.149  0.00  0.00    -0.388 OA
ATOM     18  H11 MMA d          -7.847 -15.449  -4.515  0.00  0.00     0.210 HD
ENDBRANCH   2  17
BRANCH   3  19
ATOM     19  O3  MMA d          -6.165 -16.065  -6.683  0.00  0.00    -0.390 OA
ATOM     20  H12 MMA d          -6.687 -15.420  -6.218  0.00  0.00     0.210 HD
ENDBRANCH   3  19
BRANCH   5  21
ATOM     21  C6  MMA d          -3.028 -18.418  -3.691  0.00  0.00     0.043 C 
ATOM     22  H6  MMA d          -2.336 -18.878  -4.412  0.00  0.00     0.078 H 
ATOM     23  H7  MMA d          -3.057 -19.024  -2.774  0.00  0.00     0.078 H 
BRANCH  21  24
ATOM     24  O6  MMA d          -2.606 -17.068  -3.385  0.00  0.00    -0.398 OA
ATOM     25  H14 MMA d          -2.106 -16.721  -4.114  0.00  0.00     0.209 HD
ENDBRANCH  21  24
ENDBRANCH   5  21
BRANCH   4  26
ATOM     26  O4  MMA d          -3.581 -17.047  -6.255  0.00  0.00    -0.390 OA
ATOM     27  H13 MMA d          -2.846 -16.531  -5.943  0.00  0.00     0.210 HD
ENDBRANCH   4  26
TORSDOF 7
ENDMDL
MODEL 5
REMARK VINA RESULT:      -4.7      1.745      1.921
REMARK  7 active torsions:
REMARK  status: ('A' for Active; 'I' for Inactive)
REMARK    1  A    between atoms: C1_1  and  O1_8 
REMARK    2  A    between atoms: C2_2  and  O2_9 
REMARK    3  A    between atoms: C3_3  and  O3_10 
REMARK    4  A    between atoms: C4_4  and  O4_11 
REMARK    5  A    between atoms: C5_5  and  C6_6 
REMARK    6  A    between atoms: C6_6  and  O6_13 
REMARK    7  A    between atoms: O1_8  and  C7_7 
ROOT
ATOM      1  C1  MMA d          -3.908 -17.136  -5.808  0.00  0.00     0.158 C 
ATOM      2  C2  MMA d          -3.550 -17.978  -4.571  0.00  0.00     0.110 C 
ATOM      3  C3  MMA d          -4.775 -18.713  -4.023  0.00  0.00     0.092 C 
ATOM      4  C4  MMA d          -5.935 -17.740  -3.812  0.00  0.00     0.090 C 
ATOM      5  C5  MMA d          -6.229 -17.108  -5.168  0.00  0.00     0.089 C 
ATOM      6  O5  MMA d          -5.074 -16.342  -5.567  0.00  0.00    -0.349 OA
ATOM      7  H1  MMA d          -3.063 -16.482  -6.070  0.00  0.00     0.133 H 
ATOM      8  H2  MMA d          -2.784 -18.716  -4.852  0.00  0.00     0.094 H 
ATOM      9  H3  MMA d          -5.072 -19.508  -4.723  0.00  0.00     0.091 H 
ATOM     10  H4  MMA d          -5.630 -16.951  -3.109  0.00  0.00     0.091 H 
ATOM     11  H5  MMA d          -6.401 -17.911  -5.899  0.00  0.00     0.090 H 
ENDROOT
BRANCH   1  12
ATOM     12  O1  MMA d          -4.187 -18.040  -6.880  0.00  0.00    -0.363 OA
BRANCH  12  13
ATOM     13  C7  MMA d          -3.073 -18.919  -7.140  0.00  0.00     0.007 C 
ATOM     14  H8  MMA d          -3.020 -19.686  -6.354  0.00  0.00     0.066 H 
ATOM     15  H9  MMA d          -2.140 -18.337  -7.147  0.00  0.00     0.066 H 
ATOM     16  H10 MMA d          -3.210 -19.405  -8.118  0.00  0.00     0.066 H 
ENDBRANCH  12  13
ENDBRANCH   1  12
BRANCH   2  17
ATOM     17  O2  MMA d          -3.029 -17.113  -3.535  0.00  0.00    -0.388 OA
ATOM     18  H11 MMA d          -2.458 -17.614  -2.963  0.00  0.00     0.210 HD
ENDBRANCH   2  17
BRANCH   3  19
ATOM     19  O3  MMA d          -4.455 -19.275  -2.735  0.00  0.00    -0.390 OA
ATOM     20  H12 MMA d          -3.941 -20.066  -2.854  0.00  0.00     0.210 HD
ENDBRANCH   3  19
BRANCH   5  21
ATOM     21  C6  MMA d          -7.462 -16.201  -5.151  0.00  0.00     0.043 C 
ATOM     22  H6  MMA d          -7.568 -15.723  -4.165  0.00  0.00     0.078 H 
ATOM     23  H7  MMA d          -8.366 -16.786  -5.373  0.00  0.00     0.078 H 
BRANCH  21  24
ATOM     24  O6  MMA d          -7.256 -15.196  -6.173  0.00  0.00    -0.398 OA
ATOM     25  H14 MMA d          -7.524 -14.348  -5.840  0.00  0.00     0.209 HD
ENDBRANCH  21  24
ENDBRANCH   5  21
BRANCH   4  26
ATOM     26  O4  MMA d          -7.074 -18.434  -3.249  0.00  0.00    -0.390 OA
ATOM     27  H13 MMA d          -7.869 -18.130  -3.672  0.00  0.00     0.210 HD
ENDBRANCH   4  26
TORSDOF 7
ENDMDL
MODEL 6
REMARK VINA RESULT:      -4.5      1.573      3.761
REMARK  7 active torsions:
REMARK  status: ('A' for Active; 'I' for Inactive)
REMARK    1  A    between atoms: C1_1  and  O1_8 
REMARK    2  A    between atoms: C2_2  and  O2_9 
REMARK    3  A    between atoms: C3_3  and  O3_10 
REMARK    4  A    between atoms: C4_4  and  O4_11 
REMARK    5  A    between atoms: C5_5  and  C6_6 
REMARK    6  A    between atoms: C6_6  and  O6_13 
REMARK    7  A    between atoms: O1_8  and  C7_7 
ROOT
ATOM      1  C1  MMA d          -6.445 -16.376  -4.092  0.00  0.00     0.158 C 
ATOM      2  C2  MMA d          -5.088 -15.658  -4.192  0.00  0.00     0.110 C 
ATOM      3  C3  MMA d          -4.136 -16.394  -5.138  0.00  0.00     0.092 C 
ATOM      4  C4  MMA d          -4.043 -17.873  -4.762  0.00  0.00     0.090 C 
ATOM      5  C5  MMA d          -5.456 -18.437  -4.849  0.00  0.00     0.089 C 
ATOM      6  O5  MMA d          -6.266 -17.777  -3.856  0.00  0.00    -0.349 OA
ATOM      7  H1  MMA d          -7.039 -15.937  -3.277  0.00  0.00     0.133 H 
ATOM      8  H2  MMA d          -5.253 -14.638  -4.570  0.00  0.00     0.094 H 
ATOM      9  H3  MMA d          -4.491 -16.290  -6.174  0.00  0.00     0.091 H 
ATOM     10  H4  MMA d          -3.684 -17.967  -3.726  0.00  0.00     0.091 H 
ATOM     11  H5  MMA d          -5.859 -18.219  -5.849  0.00  0.00     0.090 H 
ENDROOT
BRANCH   1  12
ATOM     12  O1  MMA d          -7.116 -16.208  -5.343  0.00  0.00    -0.363 OA
BRANCH  12  13
ATOM     13  C7  MMA d          -8.404 -16.859  -5.349  0.00  0.00     0.007 C 
ATOM     14  H8  MMA d          -9.009 -16.482  -4.513  0.00  0.00     0.066 H 
ATOM     15  H9  MMA d          -8.266 -17.945  -5.241  0.00  0.00     0.066 H 
ATOM     16  H10 MMA d          -8.918 -16.647  -6.299  0.00  0.00     0.066 H 
ENDBRANCH  12  13
ENDBRANCH   1  12
BRANCH   2  17
ATOM     17  O2  MMA d          -4.479 -15.595  -2.882  0.00  0.00    -0.388 OA
ATOM     18  H11 MMA d          -4.687 -16.386  -2.398  0.00  0.00     0.210 HD
ENDBRANCH   2  17
BRANCH   3  19
ATOM     19  O3  MMA d          -2.812 -15.840  -5.005  0.00  0.00    -0.390 OA
ATOM     20  H12 MMA d          -2.174 -16.545  -4.993  0.00  0.00     0.210 HD
ENDBRANCH   3  19
BRANCH   5  21
ATOM     21  C6  MMA d          -5.511 -19.951  -4.629  0.00  0.00     0.043 C 
ATOM     22  H6  MMA d          -4.532 -20.402  -4.851  0.00  0.00     0.078 H 
ATOM     23  H7  MMA d          -6.277 -20.401  -5.278  0.00  0.00     0.078 H 
BRANCH  21  24
ATOM     24  O6  MMA d          -5.852 -20.158  -3.238  0.00  0.00    -0.398 OA
ATOM     25  H14 MMA d          -6.523 -20.829  -3.174  0.00  0.00     0.209 HD
ENDBRANCH  21  24
ENDBRANCH   5  21
BRANCH   4  26
ATOM     26  O4  MMA d          -3.104 -18.552  -5.630  0.00  0.00    -0.390 OA
ATOM     27  H13 MMA d          -2.897 -19.404  -5.265  0.00  0.00     0.210 HD
ENDBRANCH   4  26
TORSDOF 7
ENDMDL
MODEL 7
REMARK VINA RESULT:      -4.3      1.981      3.520
REMARK  7 active torsions:
REMARK  status: ('A' for Active; 'I' for Inactive)
REMARK    1  A    between atoms: C1_1  and  O1_8 
REMARK    2  A    between atoms: C2_2  and  O2_9 
REMARK    3  A    between atoms: C3_3  and  O3_10 
REMARK    4  A    between atoms: C4_4  and  O4_11 
REMARK    5  A    between atoms: C5_5  and  C6_6 
REMARK    6  A    between atoms: C6_6  and  O6_13 
REMARK    7  A    between atoms: O1_8  and  C7_7 
ROOT
ATOM      1  C1  MMA d          -5.120 -16.123  -4.891  0.00  0.00     0.158 C 
ATOM      2  C2  MMA d          -3.778 -16.867  -5.003  0.00  0.00     0.110 C 
ATOM      3  C3  MMA d          -3.973 -18.383  -4.932  0.00  0.00     0.092 C 
ATOM      4  C4  MMA d          -4.805 -18.761  -3.707  0.00  0.00     0.090 C 
ATOM      5  C5  MMA d          -6.139 -18.036  -3.843  0.00  0.00     0.089 C 
ATOM      6  O5  MMA d          -5.888 -16.618  -3.789  0.00  0.00    -0.349 OA
ATOM      7  H1  MMA d          -4.939 -15.046  -4.761  0.00  0.00     0.133 H 
ATOM      8  H2  MMA d          -3.308 -16.609  -5.964  0.00  0.00     0.094 H 
ATOM      9  H3  MMA d          -4.470 -18.734  -5.848  0.00  0.00     0.091 H 
ATOM     10  H4  MMA d          -4.298 -18.409  -2.796  0.00  0.00     0.091 H 
ATOM     11  H5  MMA d          -6.577 -18.290  -4.819  0.00  0.00     0.090 H 
ENDROOT
BRANCH   1  12
ATOM     12  O1  MMA d          -5.849 -16.362  -6.097  0.00  0.00    -0.363 OA
BRANCH  12  13
ATOM     13  C7  MMA d          -7.234 -15.979  -5.968  0.00  0.00     0.007 C 
ATOM     14  H8  MMA d          -7.508 -15.950  -4.904  0.00  0.00     0.066 H 
ATOM     15  H9  MMA d          -7.866 -16.713  -6.490  0.00  0.00     0.066 H 
ATOM     16  H10 MMA d          -7.382 -14.984  -6.413  0.00  0.00     0.066 H 
ENDBRANCH  12  13
ENDBRANCH   1  12
BRANCH   2  17
ATOM     17  O2  MMA d          -2.911 -16.462  -3.918  0.00  0.00    -0.388 OA
ATOM     18  H11 MMA d          -2.472 -17.226  -3.563  0.00  0.00     0.210 HD
ENDBRANCH   2  17
BRANCH   3  19
ATOM     19  O3  MMA d          -2.688 -19.021  -4.785  0.00  0.00    -0.390 OA
ATOM     20  H12 MMA d          -2.791 -19.962  -4.874  0.00  0.00     0.210 HD
ENDBRANCH   3  19
BRANCH   5  21
ATOM     21  C6  MMA d          -7.142 -18.419  -2.752  0.00  0.00     0.043 C 
ATOM     22  H6  MMA d          -7.892 -17.623  -2.630  0.00  0.00     0.078 H 
ATOM     23  H7  MMA d          -6.621 -18.580  -1.797  0.00  0.00     0.078 H 
BRANCH  21  24
ATOM     24  O6  MMA d          -7.781 -19.644  -3.183  0.00  0.00    -0.398 OA
ATOM     25  H14 MMA d          -8.533 -19.434  -3.724  0.00  0.00     0.209 HD
ENDBRANCH  21  24
ENDBRANCH   5  21
BRANCH   4  26
ATOM     26  O4  MMA d          -4.944 -20.199  -3.621  0.00  0.00    -0.390 OA
ATOM     27  H13 MMA d          -5.449 -20.512  -4.362  0.00  0.00     0.210 HD
ENDBRANCH   4  26
TORSDOF 7
ENDMDL
MODEL 8
REMARK VINA RESULT:      -4.1      2.095      3.936
REMARK  7 active torsions:
REMARK  status: ('A' for Active; 'I' for Inactive)
REMARK    1  A    between atoms: C1_1  and  O1_8 
REMARK    2  A    between atoms: C2_2  and  O2_9 
REMARK    3  A    between atoms: C3_3  and  O3_10 
REMARK    4  A    between atoms: C4_4  and  O4_11 
REMARK    5  A    between atoms: C5_5  and  C6_6 
REMARK    6  A    between atoms: C6_6  and  O6_13 
REMARK    7  A    between atoms: O1_8  and  C7_7 
ROOT
ATOM      1  C1  MMA d          -6.948 -17.906  -2.735  0.00  0.00     0.158 C 
ATOM      2  C2  MMA d          -7.893 -16.884  -3.388  0.00  0.00     0.110 C 
ATOM      3  C3  MMA d          -7.589 -16.716  -4.878  0.00  0.00     0.092 C 
ATOM      4  C4  MMA d          -6.103 -16.431  -5.094  0.00  0.00     0.090 C 
ATOM      5  C5  MMA d          -5.340 -17.611  -4.502  0.00  0.00     0.089 C 
ATOM      6  O5  MMA d          -5.585 -17.639  -3.082  0.00  0.00    -0.349 OA
ATOM      7  H1  MMA d          -7.063 -17.875  -1.641  0.00  0.00     0.133 H 
ATOM      8  H2  MMA d          -8.930 -17.232  -3.270  0.00  0.00     0.094 H 
ATOM      9  H3  MMA d          -7.880 -17.628  -5.420  0.00  0.00     0.091 H 
ATOM     10  H4  MMA d          -5.822 -15.516  -4.552  0.00  0.00     0.091 H 
ATOM     11  H5  MMA d          -5.724 -18.538  -4.954  0.00  0.00     0.090 H 
ENDROOT
BRANCH   1  12
ATOM     12  O1  MMA d          -7.298 -19.200  -3.233  0.00  0.00    -0.363 OA
BRANCH  12  13
ATOM     13  C7  MMA d          -6.275 -20.176  -2.949  0.00  0.00     0.007 C 
ATOM     14  H8  MMA d          -6.514 -20.694  -2.009  0.00  0.00     0.066 H 
ATOM     15  H9  MMA d          -5.303 -19.671  -2.852  0.00  0.00     0.066 H 
ATOM     16  H10 MMA d          -6.228 -20.908  -3.769  0.00  0.00     0.066 H 
ENDBRANCH  12  13
ENDBRANCH   1  12
BRANCH   2  17
ATOM     17  O2  MMA d          -7.739 -15.601  -2.738  0.00  0.00    -0.388 OA
ATOM     18  H11 MMA d          -7.667 -15.730  -1.799  0.00  0.00     0.210 HD
ENDBRANCH   2  17
BRANCH   3  19
ATOM     19  O3  MMA d          -8.316 -15.580  -5.386  0.00  0.00    -0.390 OA
ATOM     20  H12 MMA d          -9.005 -15.880  -5.968  0.00  0.00     0.210 HD
ENDBRANCH   3  19
BRANCH   5  21
ATOM     21  C6  MMA d          -3.833 -17.539  -4.759  0.00  0.00     0.043 C 
ATOM     22  H6  MMA d          -3.639 -17.196  -5.787  0.00  0.00     0.078 H 
ATOM     23  H7  MMA d          -3.375 -18.528  -4.611  0.00  0.00     0.078 H 
BRANCH  21  24
ATOM     24  O6  MMA d          -3.292 -16.592  -3.808  0.00  0.00    -0.398 OA
ATOM     25  H14 MMA d          -4.003 -16.195  -3.319  0.00  0.00     0.209 HD
ENDBRANCH  21  24
ENDBRANCH   5  21
BRANCH   4  26
ATOM     26  O4  MMA d          -5.832 -16.226  -6.501  0.00  0.00    -0.390 OA
ATOM     27  H13 MMA d          -5.300 -15.447  -6.609  0.00  0.00     0.210 HD
ENDBRANCH   4  26
TORSDOF 7
ENDMDL
MODEL 9
REMARK VINA RESULT:      -3.9      1.787      2.701
REMARK  7 active torsions:
REMARK  status: ('A' for Active; 'I' for Inactive)
REMARK    1  A    between atoms: C1_1  and  O1_8 
REMARK    2  A    between atoms: C2_2  and  O2_9 
REMARK    3  A    between atoms: C3_3  and  O3_10 
REMARK    4  A    between atoms: C4_4  and  O4_11 
REMARK    5  A    between atoms: C5_5  and  C6_6 
REMARK    6  A    between atoms: C6_6  and  O6_13 
REMARK    7  A    between atoms: O1_8  and  C7_7 
ROOT
ATOM      1  C1  MMA d          -5.806 -19.065  -5.133  0.00  0.00     0.158 C 
ATOM      2  C2  MMA d          -4.279 -19.085  -4.953  0.00  0.00     0.110 C 
ATOM      3  C3  MMA d          -3.839 -18.157  -3.819  0.00  0.00     0.092 C 
ATOM      4  C4  MMA d          -4.435 -16.762  -4.005  0.00  0.00     0.090 C 
ATOM      5  C5  MMA d          -5.950 -16.932  -4.025  0.00  0.00     0.089 C 
ATOM      6  O5  MMA d          -6.299 -17.721  -5.180  0.00  0.00    -0.349 OA
ATOM      7  H1  MMA d          -6.079 -19.591  -6.060  0.00  0.00     0.133 H 
ATOM      8  H2  MMA d          -3.962 -20.112  -4.720  0.00  0.00     0.094 H 
ATOM      9  H3  MMA d          -4.157 -18.576  -2.853  0.00  0.00     0.091 H 
ATOM     10  H4  MMA d          -4.110 -16.348  -4.971  0.00  0.00     0.091 H 
ATOM     11  H5  MMA d          -6.254 -17.468  -3.114  0.00  0.00     0.090 H 
ENDROOT
BRANCH   1  12
ATOM     12  O1  MMA d          -6.384 -19.721  -4.001  0.00  0.00    -0.363 OA
BRANCH  12  13
ATOM     13  C7  MMA d          -7.804 -19.918  -4.166  0.00  0.00     0.007 C 
ATOM     14  H8  MMA d          -8.346 -19.077  -3.711  0.00  0.00     0.066 H 
ATOM     15  H9  MMA d          -8.103 -20.856  -3.675  0.00  0.00     0.066 H 
ATOM     16  H10 MMA d          -8.045 -19.972  -5.238  0.00  0.00     0.066 H 
ENDBRANCH  12  13
ENDBRANCH   1  12
BRANCH   2  17
ATOM     17  O2  MMA d          -3.644 -18.651  -6.178  0.00  0.00    -0.388 OA
ATOM     18  H11 MMA d          -4.311 -18.397  -6.806  0.00  0.00     0.210 HD
ENDBRANCH   2  17
BRANCH   3  19
ATOM     19  O3  MMA d          -2.405 -18.011  -3.853  0.00  0.00    -0.390 OA
ATOM     20  H12 MMA d          -2.004 -18.717  -3.358  0.00  0.00     0.210 HD
ENDBRANCH   3  19
BRANCH   5  21
ATOM     21  C6  MMA d          -6.702 -15.599  -4.072  0.00  0.00     0.043 C 
ATOM     22  H6  MMA d          -7.746 -15.763  -4.381  0.00  0.00     0.078 H 
ATOM     23  H7  MMA d          -6.214 -14.914  -4.780  0.00  0.00     0.078 H 
BRANCH  21  24
ATOM     24  O6  MMA d          -6.659 -15.048  -2.734  0.00  0.00    -0.398 OA
ATOM     25  H14 MMA d          -6.298 -15.694  -2.139  0.00  0.00     0.209 HD
ENDBRANCH  21  24
ENDBRANCH   5  21
BRANCH   4  26
ATOM     26  O4  MMA d          -3.976 -15.877  -2.956  0.00  0.00    -0.390 OA
ATOM     27  H13 MMA d          -3.085 -16.105  -2.718  0.00  0.00     0.210 HD
ENDBRANCH   4  26
TORSDOF 7
ENDMDL
MODEL 10
REMARK VINA RESULT:      -3.4      1.886      3.360
REMARK  7 active torsions:
REMARK  status: ('A' for Active; 'I' for Inactive)
REMARK    1  A    between atoms: C1_1  and  O1_8 
REMARK    2  A    between atoms: C2_2  and  O2_9 
REMARK    3  A    between atoms: C3_3  and  O3_10 
REMARK    4  A    between atoms: C4_4  and  O4_11 
REMARK    5  A    between atoms: C5_5  and  C6_6 
REMARK    6  A    between atoms: C6_6  and  O6_13 
REMARK    7  A    between atoms: O1_8  and  C7_7 
ROOT
ATOM      1  C1  MMA d          -4.636 -19.073  -5.437  0.00  0.00     0.158 C 
ATOM      2  C2  MMA d          -6.109 -19.517  -5.459  0.00  0.00     0.110 C 
ATOM      3  C3  MMA d          -7.042 -18.340  -5.748  0.00  0.00     0.092 C 
ATOM      4  C4  MMA d          -6.746 -17.176  -4.803  0.00  0.00     0.090 C 
ATOM      5  C5  MMA d          -5.287 -16.793  -5.021  0.00  0.00     0.089 C 
ATOM      6  O5  MMA d          -4.465 -17.908  -4.623  0.00  0.00    -0.349 OA
ATOM      7  H1  MMA d          -4.007 -19.889  -5.051  0.00  0.00     0.133 H 
ATOM      8  H2  MMA d          -6.238 -20.279  -6.242  0.00  0.00     0.094 H 
ATOM      9  H3  MMA d          -6.917 -18.017  -6.793  0.00  0.00     0.091 H 
ATOM     10  H4  MMA d          -6.877 -17.506  -3.761  0.00  0.00     0.091 H 
ATOM     11  H5  MMA d          -5.134 -16.594  -6.092  0.00  0.00     0.090 H 
ENDROOT
BRANCH   1  12
ATOM     12  O1  MMA d          -4.261 -18.750  -6.778  0.00  0.00    -0.363 OA
BRANCH  12  13
ATOM     13  C7  MMA d          -3.006 -19.359  -7.143  0.00  0.00     0.007 C 
ATOM     14  H8  MMA d          -2.181 -18.817  -6.658  0.00  0.00     0.066 H 
ATOM     15  H9  MMA d          -2.881 -19.315  -8.235  0.00  0.00     0.066 H 
ATOM     16  H10 MMA d          -2.998 -20.409  -6.814  0.00  0.00     0.066 H 
ENDBRANCH  12  13
ENDBRANCH   1  12
BRANCH   2  17
ATOM     17  O2  MMA d          -6.461 -20.081  -4.175  0.00  0.00    -0.388 OA
ATOM     18  H11 MMA d          -5.688 -20.463  -3.775  0.00  0.00     0.210 HD
ENDBRANCH   2  17
BRANCH   3  19
ATOM     19  O3  MMA d          -8.405 -18.743  -5.509  0.00  0.00    -0.390 OA
ATOM     20  H12 MMA d          -8.974 -18.328  -6.148  0.00  0.00     0.210 HD
ENDBRANCH   3  19
BRANCH   5  21
ATOM     21  C6  MMA d          -4.871 -15.546  -4.236  0.00  0.00     0.043 C 
ATOM     22  H6  MMA d          -4.893 -14.661  -4.890  0.00  0.00     0.078 H 
ATOM     23  H7  MMA d          -3.858 -15.675  -3.829  0.00  0.00     0.078 H 
BRANCH  21  24
ATOM     24  O6  MMA d          -5.825 -15.393  -3.159  0.00  0.00    -0.398 OA
ATOM     25  H14 MMA d          -5.375 -15.091  -2.379  0.00  0.00     0.209 HD
ENDBRANCH  21  24
ENDBRANCH   5  21
BRANCH   4  26
ATOM     26  O4  MMA d          -7.664 -16.084  -5.050  0.00  0.00    -0.390 OA
ATOM     27  H13 MMA d          -8.515 -16.435  -5.287  0.00  0.00     0.210 HD
ENDBRANCH   4  26
TORSDOF 7
ENDMDL
