MODEL 1
REMARK VINA RESULT:     -10.5      0.000      0.000
REMARK  3 active torsions:
REMARK  status: ('A' for Active; 'I' for Inactive)
REMARK    1  A    between atoms: CAU_21  and  OAA_1 
REMARK    2  A    between atoms: CAQ_17  and  CAP_16 
REMARK    3  A    between atoms: CAR_18  and  CAU_21 
ROOT
ATOM      1  CAK MOL d          58.105  11.861  51.826  0.00  0.00    -0.036 C 
ATOM      2  CAL MOL d          56.686  10.383  53.090  0.00  0.00    -0.036 C 
ATOM      3  CAM MOL d          57.403  11.276  50.605  0.00  0.00     0.084 C 
ATOM      4  CAN MOL d          55.795  10.035  51.900  0.00  0.00     0.084 C 
ATOM      5  CAO MOL d          55.338  12.352  51.334  0.00  0.00     0.116 C 
ATOM      6  CAS MOL d          57.100  11.846  52.972  0.00  0.00    -0.015 C 
ATOM      7  NAT MOL d          55.967  11.089  50.886  0.00  0.00    -0.068 N 
ATOM      8  CAU MOL d          55.905  12.755  52.694  0.00  0.00     0.113 C 
ATOM      9  H11 MOL d          58.425  12.893  51.619  0.00  0.00     0.036 H 
ATOM     10  H12 MOL d          58.982  11.250  52.086  0.00  0.00     0.036 H 
ATOM     11  H13 MOL d          57.581   9.743  53.084  0.00  0.00     0.036 H 
ATOM     12  H14 MOL d          56.132  10.229  54.027  0.00  0.00     0.036 H 
ATOM     13  H15 MOL d          57.854  10.305  50.357  0.00  0.00     0.076 H 
ATOM     14  H16 MOL d          57.520  11.964  49.754  0.00  0.00     0.076 H 
ATOM     15  H17 MOL d          54.743   9.992  52.220  0.00  0.00     0.076 H 
ATOM     16  H18 MOL d          56.090   9.061  51.483  0.00  0.00     0.076 H 
ATOM     17  H19 MOL d          54.251  12.210  51.418  0.00  0.00     0.081 H 
ATOM     18  H20 MOL d          55.549  13.145  50.601  0.00  0.00     0.081 H 
ATOM     19  H21 MOL d          57.584  12.179  53.902  0.00  0.00     0.045 H 
ATOM     20  H22 MOL d          55.511  10.795  50.036  0.00  0.00     0.280 HD
ENDROOT
BRANCH   8  21
ATOM     21  OAA MOL d          54.913  12.487  53.691  0.00  0.00    -0.383 OA
ATOM     22  H1  MOL d          55.291  11.947  54.376  0.00  0.00     0.211 HD
ENDBRANCH   8  21
BRANCH   8  23
ATOM     23  CAR MOL d          56.230  14.222  52.804  0.00  0.00    -0.022 A 
ATOM     24  CAI MOL d          56.920  14.753  53.892  0.00  0.00    -0.073 A 
ATOM     25  CAG MOL d          57.229  16.108  53.959  0.00  0.00    -0.072 A 
ATOM     26  H9  MOL d          57.221  14.099  54.701  0.00  0.00     0.084 H 
ATOM     27  CAQ MOL d          56.877  17.018  52.966  0.00  0.00    -0.026 A 
ATOM     28  H7  MOL d          57.770  16.473  54.825  0.00  0.00     0.084 H 
ATOM     29  CAH MOL d          56.202  16.478  51.872  0.00  0.00    -0.072 A 
ATOM     30  CAJ MOL d          55.900  15.116  51.783  0.00  0.00    -0.073 A 
ATOM     31  H8  MOL d          55.901  17.135  51.065  0.00  0.00     0.084 H 
ATOM     32  H10 MOL d          55.397  14.744  50.899  0.00  0.00     0.084 H 
BRANCH  27  33
ATOM     33  CAP MOL d          57.189  18.369  53.068  0.00  0.00    -0.026 A 
ATOM     34  CAE MOL d          57.719  18.921  54.234  0.00  0.00    -0.072 A 
ATOM     35  CAC MOL d          58.022  20.276  54.370  0.00  0.00    -0.082 A 
ATOM     36  H5  MOL d          57.904  18.265  55.077  0.00  0.00     0.084 H 
ATOM     37  CAB MOL d          57.820  21.152  53.302  0.00  0.00    -0.083 A 
ATOM     38  H3  MOL d          58.415  20.649  55.308  0.00  0.00     0.083 H 
ATOM     39  CAD MOL d          57.322  20.608  52.120  0.00  0.00    -0.082 A 
ATOM     40  H2  MOL d          58.041  22.210  53.389  0.00  0.00     0.083 H 
ATOM     41  CAF MOL d          57.002  19.253  52.011  0.00  0.00    -0.072 A 
ATOM     42  H4  MOL d          57.180  21.254  51.261  0.00  0.00     0.083 H 
ATOM     43  H6  MOL d          56.595  18.881  51.078  0.00  0.00     0.084 H 
ENDBRANCH  27  33
ENDBRANCH   8  23
TORSDOF 3
ENDMDL
MODEL 2
REMARK VINA RESULT:     -10.3      0.359      1.440
REMARK  3 active torsions:
REMARK  status: ('A' for Active; 'I' for Inactive)
REMARK    1  A    between atoms: CAU_21  and  OAA_1 
REMARK    2  A    between atoms: CAQ_17  and  CAP_16 
REMARK    3  A    between atoms: CAR_18  and  CAU_21 
ROOT
ATOM      1  CAK MOL d          58.192  11.879  51.726  0.00  0.00    -0.036 C 
ATOM      2  CAL MOL d          56.745  10.396  52.952  0.00  0.00    -0.036 C 
ATOM      3  CAM MOL d          57.474  11.344  50.491  0.00  0.00     0.084 C 
ATOM      4  CAN MOL d          55.843  10.100  51.755  0.00  0.00     0.084 C 
ATOM      5  CAO MOL d          55.435  12.442  51.256  0.00  0.00     0.116 C 
ATOM      6  CAS MOL d          57.189  11.852  52.874  0.00  0.00    -0.015 C 
ATOM      7  NAT MOL d          56.035  11.179  50.770  0.00  0.00    -0.068 N 
ATOM      8  CAU MOL d          56.012  12.794  52.626  0.00  0.00     0.113 C 
ATOM      9  H11 MOL d          58.533  12.909  51.547  0.00  0.00     0.036 H 
ATOM     10  H12 MOL d          59.056  11.242  51.966  0.00  0.00     0.036 H 
ATOM     11  H13 MOL d          57.626   9.737  52.925  0.00  0.00     0.036 H 
ATOM     12  H14 MOL d          56.189  10.227  53.886  0.00  0.00     0.036 H 
ATOM     13  H15 MOL d          57.903  10.370  50.214  0.00  0.00     0.076 H 
ATOM     14  H16 MOL d          57.604  12.052  49.660  0.00  0.00     0.076 H 
ATOM     15  H17 MOL d          54.791  10.070  52.077  0.00  0.00     0.076 H 
ATOM     16  H18 MOL d          56.117   9.133  51.309  0.00  0.00     0.076 H 
ATOM     17  H19 MOL d          54.345  12.320  51.340  0.00  0.00     0.081 H 
ATOM     18  H20 MOL d          55.660  13.251  50.545  0.00  0.00     0.081 H 
ATOM     19  H21 MOL d          57.682  12.148  53.811  0.00  0.00     0.045 H 
ATOM     20  H22 MOL d          55.571  10.919  49.915  0.00  0.00     0.280 HD
ENDROOT
BRANCH   8  21
ATOM     21  OAA MOL d          55.018  12.519  53.618  0.00  0.00    -0.383 OA
ATOM     22  H1  MOL d          54.907  13.281  54.174  0.00  0.00     0.211 HD
ENDBRANCH   8  21
BRANCH   8  23
ATOM     23  CAR MOL d          56.370  14.250  52.777  0.00  0.00    -0.022 A 
ATOM     24  CAI MOL d          56.084  15.194  51.793  0.00  0.00    -0.073 A 
ATOM     25  CAG MOL d          56.403  16.537  51.965  0.00  0.00    -0.072 A 
ATOM     26  H9  MOL d          55.603  14.876  50.875  0.00  0.00     0.084 H 
ATOM     27  CAQ MOL d          57.023  17.028  53.111  0.00  0.00    -0.026 A 
ATOM     28  H7  MOL d          56.158  17.233  51.172  0.00  0.00     0.084 H 
ATOM     29  CAH MOL d          57.292  16.083  54.099  0.00  0.00    -0.072 A 
ATOM     30  CAJ MOL d          56.961  14.734  53.946  0.00  0.00    -0.073 A 
ATOM     31  H8  MOL d          57.774  16.404  55.015  0.00  0.00     0.084 H 
ATOM     32  H10 MOL d          57.168  14.045  54.756  0.00  0.00     0.084 H 
BRANCH  27  33
ATOM     33  CAP MOL d          57.341  18.375  53.248  0.00  0.00    -0.026 A 
ATOM     34  CAE MOL d          56.602  19.379  52.625  0.00  0.00    -0.072 A 
ATOM     35  CAC MOL d          56.912  20.735  52.730  0.00  0.00    -0.082 A 
ATOM     36  H5  MOL d          55.743  19.092  52.029  0.00  0.00     0.084 H 
ATOM     37  CAB MOL d          57.995  21.151  53.506  0.00  0.00    -0.083 A 
ATOM     38  H3  MOL d          56.309  21.468  52.207  0.00  0.00     0.083 H 
ATOM     39  CAD MOL d          58.723  20.161  54.161  0.00  0.00    -0.082 A 
ATOM     40  H2  MOL d          58.258  22.199  53.594  0.00  0.00     0.083 H 
ATOM     41  CAF MOL d          58.413  18.806  54.024  0.00  0.00    -0.072 A 
ATOM     42  H4  MOL d          59.554  20.450  54.795  0.00  0.00     0.083 H 
ATOM     43  H6  MOL d          59.023  18.071  54.535  0.00  0.00     0.084 H 
ENDBRANCH  27  33
ENDBRANCH   8  23
TORSDOF 3
ENDMDL
MODEL 3
REMARK VINA RESULT:      -9.4      1.291      2.148
REMARK  3 active torsions:
REMARK  status: ('A' for Active; 'I' for Inactive)
REMARK    1  A    between atoms: CAU_21  and  OAA_1 
REMARK    2  A    between atoms: CAQ_17  and  CAP_16 
REMARK    3  A    between atoms: CAR_18  and  CAU_21 
ROOT
ATOM      1  CAK MOL d          54.401  12.288  52.411  0.00  0.00    -0.036 C 
ATOM      2  CAL MOL d          55.768  10.629  51.328  0.00  0.00    -0.036 C 
ATOM      3  CAM MOL d          54.462  11.359  53.619  0.00  0.00     0.084 C 
ATOM      4  CAN MOL d          56.069   9.868  52.618  0.00  0.00     0.084 C 
ATOM      5  CAO MOL d          56.847  11.836  53.809  0.00  0.00     0.116 C 
ATOM      6  CAS MOL d          55.710  12.119  51.648  0.00  0.00    -0.015 C 
ATOM      7  NAT MOL d          55.812  10.779  53.747  0.00  0.00    -0.068 N 
ATOM      8  CAU MOL d          56.914  12.572  52.472  0.00  0.00     0.113 C 
ATOM      9  H11 MOL d          54.291  13.331  52.743  0.00  0.00     0.036 H 
ATOM     10  H12 MOL d          53.552  12.016  51.767  0.00  0.00     0.036 H 
ATOM     11  H13 MOL d          54.802  10.299  50.919  0.00  0.00     0.036 H 
ATOM     12  H14 MOL d          56.563  10.438  50.592  0.00  0.00     0.036 H 
ATOM     13  H15 MOL d          53.730  10.548  53.491  0.00  0.00     0.076 H 
ATOM     14  H16 MOL d          54.223  11.929  54.529  0.00  0.00     0.076 H 
ATOM     15  H17 MOL d          57.121   9.547  52.627  0.00  0.00     0.076 H 
ATOM     16  H18 MOL d          55.416   8.985  52.693  0.00  0.00     0.076 H 
ATOM     17  H19 MOL d          57.823  11.380  54.025  0.00  0.00     0.081 H 
ATOM     18  H20 MOL d          56.592  12.551  54.607  0.00  0.00     0.081 H 
ATOM     19  H21 MOL d          55.682  12.704  50.718  0.00  0.00     0.045 H 
ATOM     20  H22 MOL d          55.852  10.249  54.603  0.00  0.00     0.280 HD
ENDROOT
BRANCH   8  21
ATOM     21  OAA MOL d          58.096  12.148  51.785  0.00  0.00    -0.383 OA
ATOM     22  H1  MOL d          58.745  11.864  52.419  0.00  0.00     0.211 HD
ENDBRANCH   8  21
BRANCH   8  23
ATOM     23  CAR MOL d          57.016  14.069  52.608  0.00  0.00    -0.022 A 
ATOM     24  CAI MOL d          56.766  14.932  51.544  0.00  0.00    -0.073 A 
ATOM     25  CAG MOL d          56.845  16.313  51.701  0.00  0.00    -0.072 A 
ATOM     26  H9  MOL d          56.505  14.522  50.576  0.00  0.00     0.084 H 
ATOM     27  CAQ MOL d          57.177  16.922  52.908  0.00  0.00    -0.026 A 
ATOM     28  H7  MOL d          56.638  16.943  50.844  0.00  0.00     0.084 H 
ATOM     29  CAH MOL d          57.410  16.053  53.973  0.00  0.00    -0.072 A 
ATOM     30  CAJ MOL d          57.317  14.666  53.834  0.00  0.00    -0.073 A 
ATOM     31  H8  MOL d          57.672  16.467  54.940  0.00  0.00     0.084 H 
ATOM     32  H10 MOL d          57.482  14.037  54.700  0.00  0.00     0.084 H 
BRANCH  27  33
ATOM     33  CAP MOL d          57.260  18.305  53.030  0.00  0.00    -0.026 A 
ATOM     34  CAE MOL d          57.550  18.926  54.244  0.00  0.00    -0.072 A 
ATOM     35  CAC MOL d          57.618  20.311  54.397  0.00  0.00    -0.082 A 
ATOM     36  H5  MOL d          57.730  18.302  55.112  0.00  0.00     0.084 H 
ATOM     37  CAB MOL d          57.415  21.151  53.301  0.00  0.00    -0.083 A 
ATOM     38  H3  MOL d          57.831  20.736  55.371  0.00  0.00     0.083 H 
ATOM     39  CAD MOL d          57.157  20.543  52.075  0.00  0.00    -0.082 A 
ATOM     40  H2  MOL d          57.456  22.230  53.400  0.00  0.00     0.083 H 
ATOM     41  CAF MOL d          57.067  19.155  51.946  0.00  0.00    -0.072 A 
ATOM     42  H4  MOL d          57.022  21.164  51.196  0.00  0.00     0.083 H 
ATOM     43  H6  MOL d          56.842  18.730  50.975  0.00  0.00     0.084 H 
ENDBRANCH  27  33
ENDBRANCH   8  23
TORSDOF 3
ENDMDL
MODEL 4
REMARK VINA RESULT:      -7.6      2.584      7.381
REMARK  3 active torsions:
REMARK  status: ('A' for Active; 'I' for Inactive)
REMARK    1  A    between atoms: CAU_21  and  OAA_1 
REMARK    2  A    between atoms: CAQ_17  and  CAP_16 
REMARK    3  A    between atoms: CAR_18  and  CAU_21 
ROOT
ATOM      1  CAK MOL d          58.979  18.199  52.480  0.00  0.00    -0.036 C 
ATOM      2  CAL MOL d          57.453  20.039  52.196  0.00  0.00    -0.036 C 
ATOM      3  CAM MOL d          59.271  18.824  53.841  0.00  0.00     0.084 C 
ATOM      4  CAN MOL d          57.528  20.477  53.657  0.00  0.00     0.084 C 
ATOM      5  CAO MOL d          56.997  18.274  54.532  0.00  0.00     0.116 C 
ATOM      6  CAS MOL d          57.527  18.517  52.144  0.00  0.00    -0.015 C 
ATOM      7  NAT MOL d          58.026  19.335  54.444  0.00  0.00    -0.068 N 
ATOM      8  CAU MOL d          56.556  17.866  53.127  0.00  0.00     0.113 C 
ATOM      9  H11 MOL d          59.125  17.110  52.527  0.00  0.00     0.036 H 
ATOM     10  H12 MOL d          59.645  18.627  51.717  0.00  0.00     0.036 H 
ATOM     11  H13 MOL d          58.295  20.471  51.635  0.00  0.00     0.036 H 
ATOM     12  H14 MOL d          56.505  20.380  51.755  0.00  0.00     0.036 H 
ATOM     13  H15 MOL d          59.981  19.655  53.714  0.00  0.00     0.076 H 
ATOM     14  H16 MOL d          59.710  18.064  54.503  0.00  0.00     0.076 H 
ATOM     15  H17 MOL d          56.529  20.769  54.012  0.00  0.00     0.076 H 
ATOM     16  H18 MOL d          58.216  21.330  53.758  0.00  0.00     0.076 H 
ATOM     17  H19 MOL d          56.130  18.652  55.092  0.00  0.00     0.081 H 
ATOM     18  H20 MOL d          57.417  17.400  55.052  0.00  0.00     0.081 H 
ATOM     19  H21 MOL d          57.288  18.162  51.130  0.00  0.00     0.045 H 
ATOM     20  H22 MOL d          58.230  19.653  55.378  0.00  0.00     0.280 HD
ENDROOT
BRANCH   8  21
ATOM     21  OAA MOL d          55.257  18.416  52.886  0.00  0.00    -0.383 OA
ATOM     22  H1  MOL d          55.282  18.954  52.102  0.00  0.00     0.211 HD
ENDBRANCH   8  21
BRANCH   8  23
ATOM     23  CAR MOL d          56.427  16.376  52.942  0.00  0.00    -0.022 A 
ATOM     24  CAI MOL d          56.764  15.468  53.942  0.00  0.00    -0.073 A 
ATOM     25  CAG MOL d          56.614  14.098  53.755  0.00  0.00    -0.072 A 
ATOM     26  H9  MOL d          57.152  15.836  54.886  0.00  0.00     0.084 H 
ATOM     27  CAQ MOL d          56.127  13.542  52.575  0.00  0.00    -0.026 A 
ATOM     28  H7  MOL d          56.888  13.432  54.565  0.00  0.00     0.084 H 
ATOM     29  CAH MOL d          55.775  14.456  51.583  0.00  0.00    -0.072 A 
ATOM     30  CAJ MOL d          55.904  15.835  51.765  0.00  0.00    -0.073 A 
ATOM     31  H8  MOL d          55.389  14.085  50.641  0.00  0.00     0.084 H 
ATOM     32  H10 MOL d          55.591  16.503  50.971  0.00  0.00     0.084 H 
BRANCH  27  33
ATOM     33  CAP MOL d          56.000  12.167  52.414  0.00  0.00    -0.026 A 
ATOM     34  CAE MOL d          54.998  11.602  51.627  0.00  0.00    -0.072 A 
ATOM     35  CAC MOL d          54.835  10.226  51.465  0.00  0.00    -0.082 A 
ATOM     36  H5  MOL d          54.309  12.265  51.115  0.00  0.00     0.084 H 
ATOM     37  CAB MOL d          55.713   9.337  52.087  0.00  0.00    -0.083 A 
ATOM     38  H3  MOL d          54.025   9.846  50.853  0.00  0.00     0.083 H 
ATOM     39  CAD MOL d          56.740   9.888  52.850  0.00  0.00    -0.082 A 
ATOM     40  H2  MOL d          55.601   8.264  51.981  0.00  0.00     0.083 H 
ATOM     41  CAF MOL d          56.871  11.268  53.021  0.00  0.00    -0.072 A 
ATOM     42  H4  MOL d          57.457   9.227  53.325  0.00  0.00     0.083 H 
ATOM     43  H6  MOL d          57.672  11.648  53.643  0.00  0.00     0.084 H 
ENDBRANCH  27  33
ENDBRANCH   8  23
TORSDOF 3
ENDMDL
