MODEL 1
REMARK VINA RESULT:      -6.7      0.000      0.000
REMARK  5 active torsions:
REMARK  status: ('A' for Active; 'I' for Inactive)
REMARK    1  A    between atoms: C1_1  and  C14_14 
REMARK    2  A    between atoms: C2_2  and  C15_15 
REMARK    3  A    between atoms: C3_3  and  C13_13 
REMARK    4  A    between atoms: C8_8  and  C10_10 
REMARK       I    between atoms: C10_10  and  N12_12 
REMARK    5  A    between atoms: C15_15  and  N16_16 
ROOT
ATOM      1  C1  MOL d          48.131  50.402  34.781  0.00  0.00     0.078 A 
ATOM      2  C2  MOL d          47.162  51.077  34.080  0.00  0.00     0.021 A 
ATOM      3  C3  MOL d          47.509  51.637  32.821  0.00  0.00     0.060 A 
ATOM      4  N4  MOL d          48.709  51.602  32.255  0.00  0.00    -0.067 NA
ATOM      5  N5  MOL d          49.379  50.377  34.246  0.00  0.00    -0.150 N 
ATOM      6  C6  MOL d          49.696  50.949  32.982  0.00  0.00     0.734 A 
ATOM      7  N7  MOL d          51.006  50.751  32.661  0.00  0.00    -0.055 NA
ATOM      8  C8  MOL d          51.498  50.042  33.765  0.00  0.00     0.160 A 
ATOM      9  C9  MOL d          50.545  49.801  34.732  0.00  0.00     0.037 A 
ATOM     10  H1  MOL d          50.678  49.272  35.674  0.00  0.00     0.117 H 
ENDROOT
BRANCH   8  11
ATOM     11  C10 MOL d          52.907  49.590  33.835  0.00  0.00     0.274 C 
ATOM     12  O11 MOL d          53.366  48.864  32.930  0.00  0.00    -0.266 OA
ATOM     13  N12 MOL d          53.534  49.697  35.088  0.00  0.00    -0.343 N 
ATOM     14  C24 MOL d          53.478  50.897  35.951  0.00  0.00     0.018 C 
ATOM     15  C28 MOL d          54.705  48.847  35.390  0.00  0.00     0.018 C 
ATOM     16  C25 MOL d          54.801  51.741  35.770  0.00  0.00     0.034 C 
ATOM     17  H13 MOL d          53.382  50.587  37.002  0.00  0.00     0.067 H 
ATOM     18  H14 MOL d          52.610  51.511  35.668  0.00  0.00     0.067 H 
ATOM     19  O26 MOL d          56.005  50.950  35.872  0.00  0.00    -0.388 OA
ATOM     20  H15 MOL d          54.828  52.518  36.549  0.00  0.00     0.076 H 
ATOM     21  H16 MOL d          54.779  52.217  34.779  0.00  0.00     0.076 H 
ATOM     22  C27 MOL d          55.994  49.684  35.163  0.00  0.00     0.034 C 
ATOM     23  H17 MOL d          56.857  49.091  35.500  0.00  0.00     0.076 H 
ATOM     24  H18 MOL d          56.089  49.890  34.086  0.00  0.00     0.076 H 
ATOM     25  H19 MOL d          54.708  47.971  34.725  0.00  0.00     0.067 H 
ATOM     26  H20 MOL d          54.659  48.512  36.436  0.00  0.00     0.067 H 
ENDBRANCH   8  11
BRANCH   1  27
ATOM     27  C14 MOL d          47.948  49.812  36.118  0.00  0.00     0.014 A 
ATOM     28  C17 MOL d          47.429  48.535  36.233  0.00  0.00    -0.068 A 
ATOM     29  C18 MOL d          47.289  47.977  37.499  0.00  0.00    -0.061 A 
ATOM     30  H10 MOL d          47.136  47.978  35.350  0.00  0.00     0.085 H 
ATOM     31  C19 MOL d          47.683  48.717  38.615  0.00  0.00     0.035 A 
ATOM     32  H11 MOL d          46.879  46.980  37.617  0.00  0.00     0.086 H 
ATOM     33  C20 MOL d          48.194  49.977  38.533  0.00  0.00    -0.040 A 
ATOM     34 CL23 MOL d          47.576  48.026  40.162  0.00  0.00    -0.084 Cl
ATOM     35  C21 MOL d          48.329  50.504  37.279  0.00  0.00     0.048 A 
ATOM     36  H12 MOL d          48.478  50.533  39.418  0.00  0.00     0.088 H 
ATOM     37 CL22 MOL d          48.986  52.064  37.166  0.00  0.00    -0.083 Cl
ENDBRANCH   1  27
BRANCH   3  38
ATOM     38  C13 MOL d          46.495  52.376  32.021  0.00  0.00    -0.034 C 
ATOM     39  H2  MOL d          46.831  53.413  31.871  0.00  0.00     0.035 H 
ATOM     40  H3  MOL d          45.534  52.376  32.557  0.00  0.00     0.035 H 
ATOM     41  H4  MOL d          46.371  51.886  31.044  0.00  0.00     0.035 H 
ENDBRANCH   3  38
BRANCH   2  42
ATOM     42  C15 MOL d          45.742  51.143  34.571  0.00  0.00     0.107 C 
ATOM     43  H5  MOL d          45.270  52.073  34.223  0.00  0.00     0.083 H 
ATOM     44  H6  MOL d          45.726  51.112  35.670  0.00  0.00     0.083 H 
BRANCH  42  45
ATOM     45  N16 MOL d          45.037  50.011  34.041  0.00  0.00    -0.075 N 
ATOM     46  H7  MOL d          45.252  49.193  34.590  0.00  0.00     0.274 HD
ATOM     47  H8  MOL d          45.318  49.857  33.085  0.00  0.00     0.274 HD
ATOM     48  H9  MOL d          44.045  50.187  34.076  0.00  0.00     0.274 HD
ENDBRANCH  42  45
ENDBRANCH   2  42
TORSDOF 5
ENDMDL
MODEL 2
REMARK VINA RESULT:      -6.0      1.835      2.480
REMARK  5 active torsions:
REMARK  status: ('A' for Active; 'I' for Inactive)
REMARK    1  A    between atoms: C1_1  and  C14_14 
REMARK    2  A    between atoms: C2_2  and  C15_15 
REMARK    3  A    between atoms: C3_3  and  C13_13 
REMARK    4  A    between atoms: C8_8  and  C10_10 
REMARK       I    between atoms: C10_10  and  N12_12 
REMARK    5  A    between atoms: C15_15  and  N16_16 
ROOT
ATOM      1  C1  MOL d          48.281  50.660  33.899  0.00  0.00     0.078 A 
ATOM      2  C2  MOL d          47.267  51.077  33.073  0.00  0.00     0.021 A 
ATOM      3  C3  MOL d          47.598  51.480  31.751  0.00  0.00     0.060 A 
ATOM      4  N4  MOL d          48.818  51.527  31.232  0.00  0.00    -0.067 NA
ATOM      5  N5  MOL d          49.547  50.728  33.409  0.00  0.00    -0.150 N 
ATOM      6  C6  MOL d          49.846  51.138  32.080  0.00  0.00     0.734 A 
ATOM      7  N7  MOL d          51.185  51.078  31.831  0.00  0.00    -0.055 NA
ATOM      8  C8  MOL d          51.713  50.623  33.047  0.00  0.00     0.160 A 
ATOM      9  C9  MOL d          50.754  50.402  34.013  0.00  0.00     0.037 A 
ATOM     10  H1  MOL d          50.910  50.048  35.031  0.00  0.00     0.117 H 
ENDROOT
BRANCH   8  11
ATOM     11  C10 MOL d          53.164  50.389  33.227  0.00  0.00     0.274 C 
ATOM     12  O11 MOL d          53.894  51.323  33.618  0.00  0.00    -0.266 OA
ATOM     13  N12 MOL d          53.693  49.247  32.603  0.00  0.00    -0.343 N 
ATOM     14  C24 MOL d          53.082  47.901  32.665  0.00  0.00     0.018 C 
ATOM     15  C28 MOL d          55.138  49.189  32.297  0.00  0.00     0.018 C 
ATOM     16  C25 MOL d          53.817  47.035  33.762  0.00  0.00     0.034 C 
ATOM     17  H13 MOL d          53.178  47.410  31.685  0.00  0.00     0.067 H 
ATOM     18  H14 MOL d          52.017  47.995  32.925  0.00  0.00     0.067 H 
ATOM     19  O26 MOL d          55.257  47.066  33.648  0.00  0.00    -0.388 OA
ATOM     20  H15 MOL d          53.483  45.992  33.665  0.00  0.00     0.076 H 
ATOM     21  H16 MOL d          53.538  47.419  34.754  0.00  0.00     0.076 H 
ATOM     22  C27 MOL d          55.847  48.371  33.412  0.00  0.00     0.034 C 
ATOM     23  H17 MOL d          56.898  48.228  33.122  0.00  0.00     0.076 H 
ATOM     24  H18 MOL d          55.799  48.947  34.348  0.00  0.00     0.076 H 
ATOM     25  H19 MOL d          55.551  50.208  32.264  0.00  0.00     0.067 H 
ATOM     26  H20 MOL d          55.291  48.700  31.324  0.00  0.00     0.067 H 
ENDBRANCH   8  11
BRANCH   1  27
ATOM     27  C14 MOL d          48.114  50.262  35.307  0.00  0.00     0.014 A 
ATOM     28  C17 MOL d          48.514  51.125  36.310  0.00  0.00    -0.068 A 
ATOM     29  C18 MOL d          48.322  50.751  37.636  0.00  0.00    -0.061 A 
ATOM     30  H10 MOL d          48.969  52.079  36.068  0.00  0.00     0.085 H 
ATOM     31  C19 MOL d          47.726  49.520  37.916  0.00  0.00     0.035 A 
ATOM     32  H11 MOL d          48.633  51.407  38.442  0.00  0.00     0.086 H 
ATOM     33  C20 MOL d          47.326  48.648  36.950  0.00  0.00    -0.040 A 
ATOM     34 CL23 MOL d          47.430  49.076  39.528  0.00  0.00    -0.084 Cl
ATOM     35  C21 MOL d          47.516  49.038  35.653  0.00  0.00     0.048 A 
ATOM     36  H12 MOL d          46.878  47.693  37.196  0.00  0.00     0.088 H 
ATOM     37 CL22 MOL d          47.000  47.968  34.442  0.00  0.00    -0.083 Cl
ENDBRANCH   1  27
BRANCH   3  38
ATOM     38  C13 MOL d          46.535  51.939  30.817  0.00  0.00    -0.034 C 
ATOM     39  H2  MOL d          45.707  51.214  30.818  0.00  0.00     0.035 H 
ATOM     40  H3  MOL d          46.949  52.020  29.801  0.00  0.00     0.035 H 
ATOM     41  H4  MOL d          46.161  52.922  31.140  0.00  0.00     0.035 H 
ENDBRANCH   3  38
BRANCH   2  42
ATOM     42  C15 MOL d          45.828  51.018  33.507  0.00  0.00     0.107 C 
ATOM     43  H5  MOL d          45.701  50.234  34.268  0.00  0.00     0.083 H 
ATOM     44  H6  MOL d          45.186  50.797  32.642  0.00  0.00     0.083 H 
BRANCH  42  45
ATOM     45  N16 MOL d          45.479  52.295  34.061  0.00  0.00    -0.075 N 
ATOM     46  H7  MOL d          46.072  53.007  33.663  0.00  0.00     0.274 HD
ATOM     47  H8  MOL d          45.605  52.274  35.061  0.00  0.00     0.274 HD
ATOM     48  H9  MOL d          44.516  52.502  33.847  0.00  0.00     0.274 HD
ENDBRANCH  42  45
ENDBRANCH   2  42
TORSDOF 5
ENDMDL
MODEL 3
REMARK VINA RESULT:      -5.6      2.926      4.406
REMARK  5 active torsions:
REMARK  status: ('A' for Active; 'I' for Inactive)
REMARK    1  A    between atoms: C1_1  and  C14_14 
REMARK    2  A    between atoms: C2_2  and  C15_15 
REMARK    3  A    between atoms: C3_3  and  C13_13 
REMARK    4  A    between atoms: C8_8  and  C10_10 
REMARK       I    between atoms: C10_10  and  N12_12 
REMARK    5  A    between atoms: C15_15  and  N16_16 
ROOT
ATOM      1  C1  MOL d          48.278  50.248  34.742  0.00  0.00     0.078 A 
ATOM      2  C2  MOL d          48.020  50.567  36.052  0.00  0.00     0.021 A 
ATOM      3  C3  MOL d          49.120  50.839  36.908  0.00  0.00     0.060 A 
ATOM      4  N4  MOL d          50.403  50.782  36.573  0.00  0.00    -0.067 NA
ATOM      5  N5  MOL d          49.582  50.147  34.374  0.00  0.00    -0.150 N 
ATOM      6  C6  MOL d          50.663  50.425  35.257  0.00  0.00     0.734 A 
ATOM      7  N7  MOL d          51.866  50.288  34.629  0.00  0.00    -0.055 NA
ATOM      8  C8  MOL d          51.502  49.912  33.329  0.00  0.00     0.160 A 
ATOM      9  C9  MOL d          50.138  49.821  33.145  0.00  0.00     0.037 A 
ATOM     10  H1  MOL d          49.610  49.552  32.231  0.00  0.00     0.117 H 
ENDROOT
BRANCH   8  11
ATOM     11  C10 MOL d          52.515  49.672  32.275  0.00  0.00     0.274 C 
ATOM     12  O11 MOL d          52.714  50.544  31.403  0.00  0.00    -0.266 OA
ATOM     13  N12 MOL d          52.928  48.341  32.099  0.00  0.00    -0.343 N 
ATOM     14  C24 MOL d          53.306  47.431  33.202  0.00  0.00     0.018 C 
ATOM     15  C28 MOL d          53.515  47.926  30.808  0.00  0.00     0.018 C 
ATOM     16  C25 MOL d          54.879  47.381  33.332  0.00  0.00     0.034 C 
ATOM     17  H13 MOL d          52.924  46.421  32.990  0.00  0.00     0.067 H 
ATOM     18  H14 MOL d          52.872  47.797  34.144  0.00  0.00     0.067 H 
ATOM     19  O26 MOL d          55.552  47.157  32.073  0.00  0.00    -0.388 OA
ATOM     20  H15 MOL d          55.147  46.565  34.020  0.00  0.00     0.076 H 
ATOM     21  H16 MOL d          55.226  48.339  33.746  0.00  0.00     0.076 H 
ATOM     22  C27 MOL d          55.063  47.928  30.946  0.00  0.00     0.034 C 
ATOM     23  H17 MOL d          55.494  47.506  30.026  0.00  0.00     0.076 H 
ATOM     24  H18 MOL d          55.399  48.968  31.066  0.00  0.00     0.076 H 
ATOM     25  H19 MOL d          53.212  48.631  30.019  0.00  0.00     0.067 H 
ATOM     26  H20 MOL d          53.166  46.916  30.550  0.00  0.00     0.067 H 
ENDBRANCH   8  11
BRANCH   1  27
ATOM     27  C14 MOL d          47.257  49.889  33.743  0.00  0.00     0.014 A 
ATOM     28  C17 MOL d          46.650  48.648  33.807  0.00  0.00    -0.068 A 
ATOM     29  C18 MOL d          45.665  48.332  32.877  0.00  0.00    -0.061 A 
ATOM     30  H10 MOL d          46.936  47.933  34.569  0.00  0.00     0.085 H 
ATOM     31  C19 MOL d          45.313  49.278  31.911  0.00  0.00     0.035 A 
ATOM     32  H11 MOL d          45.177  47.364  32.900  0.00  0.00     0.086 H 
ATOM     33  C20 MOL d          45.895  50.506  31.822  0.00  0.00    -0.040 A 
ATOM     34 CL23 MOL d          44.070  48.931  30.808  0.00  0.00    -0.084 Cl
ATOM     35  C21 MOL d          46.856  50.799  32.750  0.00  0.00     0.048 A 
ATOM     36  H12 MOL d          45.612  51.215  31.054  0.00  0.00     0.088 H 
ATOM     37 CL22 MOL d          47.571  52.334  32.661  0.00  0.00    -0.083 Cl
ENDBRANCH   1  27
BRANCH   3  38
ATOM     38  C13 MOL d          48.893  51.192  38.336  0.00  0.00    -0.034 C 
ATOM     39  H2  MOL d          48.542  50.304  38.882  0.00  0.00     0.035 H 
ATOM     40  H3  MOL d          48.135  51.987  38.401  0.00  0.00     0.035 H 
ATOM     41  H4  MOL d          49.835  51.547  38.780  0.00  0.00     0.035 H 
ENDBRANCH   3  38
BRANCH   2  42
ATOM     42  C15 MOL d          46.612  50.729  36.556  0.00  0.00     0.107 C 
ATOM     43  H5  MOL d          46.615  50.807  37.652  0.00  0.00     0.083 H 
ATOM     44  H6  MOL d          46.005  49.864  36.251  0.00  0.00     0.083 H 
BRANCH  42  45
ATOM     45  N16 MOL d          46.071  51.930  35.984  0.00  0.00    -0.075 N 
ATOM     46  H7  MOL d          45.791  51.752  35.032  0.00  0.00     0.274 HD
ATOM     47  H8  MOL d          46.773  52.654  35.997  0.00  0.00     0.274 HD
ATOM     48  H9  MOL d          45.271  52.226  36.520  0.00  0.00     0.274 HD
ENDBRANCH  42  45
ENDBRANCH   2  42
TORSDOF 5
ENDMDL
MODEL 4
REMARK VINA RESULT:      -5.3      1.399      2.126
REMARK  5 active torsions:
REMARK  status: ('A' for Active; 'I' for Inactive)
REMARK    1  A    between atoms: C1_1  and  C14_14 
REMARK    2  A    between atoms: C2_2  and  C15_15 
REMARK    3  A    between atoms: C3_3  and  C13_13 
REMARK    4  A    between atoms: C8_8  and  C10_10 
REMARK       I    between atoms: C10_10  and  N12_12 
REMARK    5  A    between atoms: C15_15  and  N16_16 
ROOT
ATOM      1  C1  MOL d          48.220  50.438  34.822  0.00  0.00     0.078 A 
ATOM      2  C2  MOL d          47.271  51.163  34.144  0.00  0.00     0.021 A 
ATOM      3  C3  MOL d          47.625  51.730  32.891  0.00  0.00     0.060 A 
ATOM      4  N4  MOL d          48.816  51.658  32.310  0.00  0.00    -0.067 NA
ATOM      5  N5  MOL d          49.460  50.374  34.272  0.00  0.00    -0.150 N 
ATOM      6  C6  MOL d          49.785  50.955  33.014  0.00  0.00     0.734 A 
ATOM      7  N7  MOL d          51.083  50.712  32.673  0.00  0.00    -0.055 NA
ATOM      8  C8  MOL d          51.559  49.965  33.759  0.00  0.00     0.160 A 
ATOM      9  C9  MOL d          50.608  49.744  34.734  0.00  0.00     0.037 A 
ATOM     10  H1  MOL d          50.731  49.194  35.665  0.00  0.00     0.117 H 
ENDROOT
BRANCH   8  11
ATOM     11  C10 MOL d          52.950  49.457  33.805  0.00  0.00     0.274 C 
ATOM     12  O11 MOL d          53.470  49.187  34.907  0.00  0.00    -0.266 OA
ATOM     13  N12 MOL d          53.723  49.654  32.649  0.00  0.00    -0.343 N 
ATOM     14  C24 MOL d          53.260  49.365  31.274  0.00  0.00     0.018 C 
ATOM     15  C28 MOL d          55.198  49.653  32.752  0.00  0.00     0.018 C 
ATOM     16  C25 MOL d          53.819  47.963  30.810  0.00  0.00     0.034 C 
ATOM     17  H13 MOL d          53.625  50.149  30.594  0.00  0.00     0.067 H 
ATOM     18  H14 MOL d          52.160  49.346  31.255  0.00  0.00     0.067 H 
ATOM     19  O26 MOL d          55.236  47.805  31.041  0.00  0.00    -0.388 OA
ATOM     20  H15 MOL d          53.628  47.851  29.732  0.00  0.00     0.076 H 
ATOM     21  H16 MOL d          53.286  47.175  31.361  0.00  0.00     0.076 H 
ATOM     22  C27 MOL d          55.722  48.251  32.333  0.00  0.00     0.034 C 
ATOM     23  H17 MOL d          56.820  48.289  32.296  0.00  0.00     0.076 H 
ATOM     24  H18 MOL d          55.404  47.522  33.094  0.00  0.00     0.076 H 
ATOM     25  H19 MOL d          55.497  49.868  33.789  0.00  0.00     0.067 H 
ATOM     26  H20 MOL d          55.616  50.420  32.084  0.00  0.00     0.067 H 
ENDBRANCH   8  11
BRANCH   1  27
ATOM     27  C14 MOL d          48.030  49.832  36.151  0.00  0.00     0.014 A 
ATOM     28  C17 MOL d          47.403  48.603  36.255  0.00  0.00    -0.068 A 
ATOM     29  C18 MOL d          47.256  48.027  37.512  0.00  0.00    -0.061 A 
ATOM     30  H10 MOL d          47.034  48.097  35.371  0.00  0.00     0.085 H 
ATOM     31  C19 MOL d          47.751  48.702  38.631  0.00  0.00     0.035 A 
ATOM     32  H11 MOL d          46.764  47.068  37.623  0.00  0.00     0.086 H 
ATOM     33  C20 MOL d          48.368  49.913  38.560  0.00  0.00    -0.040 A 
ATOM     34 CL23 MOL d          47.634  47.983  40.165  0.00  0.00    -0.084 Cl
ATOM     35  C21 MOL d          48.508  50.459  37.314  0.00  0.00     0.048 A 
ATOM     36  H12 MOL d          48.729  50.420  39.446  0.00  0.00     0.088 H 
ATOM     37 CL22 MOL d          49.297  51.957  37.213  0.00  0.00    -0.083 Cl
ENDBRANCH   1  27
BRANCH   3  38
ATOM     38  C13 MOL d          46.632  52.522  32.116  0.00  0.00    -0.034 C 
ATOM     39  H2  MOL d          45.838  51.856  31.748  0.00  0.00     0.035 H 
ATOM     40  H3  MOL d          47.132  53.004  31.263  0.00  0.00     0.035 H 
ATOM     41  H4  MOL d          46.191  53.293  32.766  0.00  0.00     0.035 H 
ENDBRANCH   3  38
BRANCH   2  42
ATOM     42  C15 MOL d          45.860  51.275  34.653  0.00  0.00     0.107 C 
ATOM     43  H5  MOL d          45.519  52.318  34.581  0.00  0.00     0.083 H 
ATOM     44  H6  MOL d          45.815  50.946  35.702  0.00  0.00     0.083 H 
BRANCH  42  45
ATOM     45  N16 MOL d          45.027  50.433  33.842  0.00  0.00    -0.075 N 
ATOM     46  H7  MOL d          44.719  50.946  33.031  0.00  0.00     0.274 HD
ATOM     47  H8  MOL d          44.225  50.138  34.377  0.00  0.00     0.274 HD
ATOM     48  H9  MOL d          45.552  49.624  33.548  0.00  0.00     0.274 HD
ENDBRANCH  42  45
ENDBRANCH   2  42
TORSDOF 5
ENDMDL
MODEL 5
REMARK VINA RESULT:      -4.8      2.739      4.468
REMARK  5 active torsions:
REMARK  status: ('A' for Active; 'I' for Inactive)
REMARK    1  A    between atoms: C1_1  and  C14_14 
REMARK    2  A    between atoms: C2_2  and  C15_15 
REMARK    3  A    between atoms: C3_3  and  C13_13 
REMARK    4  A    between atoms: C8_8  and  C10_10 
REMARK       I    between atoms: C10_10  and  N12_12 
REMARK    5  A    between atoms: C15_15  and  N16_16 
ROOT
ATOM      1  C1  MOL d          47.843  49.931  35.188  0.00  0.00     0.078 A 
ATOM      2  C2  MOL d          47.539  49.770  36.518  0.00  0.00     0.021 A 
ATOM      3  C3  MOL d          48.591  49.447  37.415  0.00  0.00     0.060 A 
ATOM      4  N4  MOL d          49.862  49.247  37.088  0.00  0.00    -0.067 NA
ATOM      5  N5  MOL d          49.128  49.700  34.815  0.00  0.00    -0.150 N 
ATOM      6  C6  MOL d          50.161  49.375  35.738  0.00  0.00     0.734 A 
ATOM      7  N7  MOL d          51.363  49.234  35.111  0.00  0.00    -0.055 NA
ATOM      8  C8  MOL d          51.048  49.475  33.767  0.00  0.00     0.160 A 
ATOM      9  C9  MOL d          49.715  49.760  33.558  0.00  0.00     0.037 A 
ATOM     10  H1  MOL d          49.227  49.983  32.610  0.00  0.00     0.117 H 
ENDROOT
BRANCH   8  11
ATOM     11  C10 MOL d          52.082  49.446  32.707  0.00  0.00     0.274 C 
ATOM     12  O11 MOL d          51.893  48.759  31.681  0.00  0.00    -0.266 OA
ATOM     13  N12 MOL d          53.363  49.892  33.073  0.00  0.00    -0.343 N 
ATOM     14  C24 MOL d          53.631  51.135  33.829  0.00  0.00     0.018 C 
ATOM     15  C28 MOL d          54.538  49.449  32.293  0.00  0.00     0.018 C 
ATOM     16  C25 MOL d          54.060  52.280  32.829  0.00  0.00     0.034 C 
ATOM     17  H13 MOL d          54.442  50.956  34.550  0.00  0.00     0.067 H 
ATOM     18  H14 MOL d          52.721  51.440  34.367  0.00  0.00     0.067 H 
ATOM     19  O26 MOL d          55.089  51.876  31.900  0.00  0.00    -0.388 OA
ATOM     20  H15 MOL d          54.435  53.132  33.415  0.00  0.00     0.076 H 
ATOM     21  H16 MOL d          53.175  52.592  32.255  0.00  0.00     0.076 H 
ATOM     22  C27 MOL d          54.913  50.573  31.286  0.00  0.00     0.034 C 
ATOM     23  H17 MOL d          55.855  50.294  30.791  0.00  0.00     0.076 H 
ATOM     24  H18 MOL d          54.112  50.648  30.536  0.00  0.00     0.076 H 
ATOM     25  H19 MOL d          54.294  48.527  31.745  0.00  0.00     0.067 H 
ATOM     26  H20 MOL d          55.383  49.261  32.970  0.00  0.00     0.067 H 
ENDBRANCH   8  11
BRANCH   1  27
ATOM     27  C14 MOL d          46.863  50.214  34.126  0.00  0.00     0.014 A 
ATOM     28  C17 MOL d          46.707  51.511  33.672  0.00  0.00    -0.068 A 
ATOM     29  C18 MOL d          45.800  51.761  32.648  0.00  0.00    -0.061 A 
ATOM     30  H10 MOL d          47.283  52.320  34.106  0.00  0.00     0.085 H 
ATOM     31  C19 MOL d          45.079  50.696  32.103  0.00  0.00     0.035 A 
ATOM     32  H11 MOL d          45.655  52.770  32.277  0.00  0.00     0.086 H 
ATOM     33  C20 MOL d          45.208  49.411  32.532  0.00  0.00    -0.040 A 
ATOM     34 CL23 MOL d          44.014  50.977  30.811  0.00  0.00    -0.084 Cl
ATOM     35  C21 MOL d          46.110  49.185  33.535  0.00  0.00     0.048 A 
ATOM     36  H12 MOL d          44.625  48.606  32.101  0.00  0.00     0.088 H 
ATOM     37 CL22 MOL d          46.294  47.583  34.060  0.00  0.00    -0.083 Cl
ENDBRANCH   1  27
BRANCH   3  38
ATOM     38  C13 MOL d          48.314  49.264  38.865  0.00  0.00    -0.034 C 
ATOM     39  H2  MOL d          49.152  48.729  39.335  0.00  0.00     0.035 H 
ATOM     40  H3  MOL d          47.389  48.681  38.992  0.00  0.00     0.035 H 
ATOM     41  H4  MOL d          48.194  50.249  39.342  0.00  0.00     0.035 H 
ENDBRANCH   3  38
BRANCH   2  42
ATOM     42  C15 MOL d          46.152  50.027  37.040  0.00  0.00     0.107 C 
ATOM     43  H5  MOL d          46.139  49.916  38.134  0.00  0.00     0.083 H 
ATOM     44  H6  MOL d          45.446  49.313  36.590  0.00  0.00     0.083 H 
BRANCH  42  45
ATOM     45  N16 MOL d          45.784  51.368  36.682  0.00  0.00    -0.075 N 
ATOM     46  H7  MOL d          45.091  51.710  37.329  0.00  0.00     0.274 HD
ATOM     47  H8  MOL d          45.403  51.374  35.749  0.00  0.00     0.274 HD
ATOM     48  H9  MOL d          46.599  51.960  36.717  0.00  0.00     0.274 HD
ENDBRANCH  42  45
ENDBRANCH   2  42
TORSDOF 5
ENDMDL
MODEL 6
REMARK VINA RESULT:      -4.5      1.670      2.000
REMARK  5 active torsions:
REMARK  status: ('A' for Active; 'I' for Inactive)
REMARK    1  A    between atoms: C1_1  and  C14_14 
REMARK    2  A    between atoms: C2_2  and  C15_15 
REMARK    3  A    between atoms: C3_3  and  C13_13 
REMARK    4  A    between atoms: C8_8  and  C10_10 
REMARK       I    between atoms: C10_10  and  N12_12 
REMARK    5  A    between atoms: C15_15  and  N16_16 
ROOT
ATOM      1  C1  MOL d          47.986  49.434  34.492  0.00  0.00     0.078 A 
ATOM      2  C2  MOL d          47.199  49.138  33.406  0.00  0.00     0.021 A 
ATOM      3  C3  MOL d          47.679  49.477  32.113  0.00  0.00     0.060 A 
ATOM      4  N4  MOL d          48.823  50.094  31.843  0.00  0.00    -0.067 NA
ATOM      5  N5  MOL d          49.147  50.097  34.252  0.00  0.00    -0.150 N 
ATOM      6  C6  MOL d          49.601  50.424  32.943  0.00  0.00     0.734 A 
ATOM      7  N7  MOL d          50.811  51.051  32.979  0.00  0.00    -0.055 NA
ATOM      8  C8  MOL d          51.096  51.109  34.350  0.00  0.00     0.160 A 
ATOM      9  C9  MOL d          50.117  50.543  35.139  0.00  0.00     0.037 A 
ATOM     10  H1  MOL d          50.107  50.463  36.225  0.00  0.00     0.117 H 
ENDROOT
BRANCH   8  11
ATOM     11  C10 MOL d          52.353  51.705  34.860  0.00  0.00     0.274 C 
ATOM     12  O11 MOL d          52.306  52.747  35.545  0.00  0.00    -0.266 OA
ATOM     13  N12 MOL d          53.540  51.278  34.243  0.00  0.00    -0.343 N 
ATOM     14  C24 MOL d          53.877  49.864  33.967  0.00  0.00     0.018 C 
ATOM     15  C28 MOL d          54.743  52.134  34.308  0.00  0.00     0.018 C 
ATOM     16  C25 MOL d          54.848  49.322  35.088  0.00  0.00     0.034 C 
ATOM     17  H13 MOL d          54.372  49.791  32.987  0.00  0.00     0.067 H 
ATOM     18  H14 MOL d          52.956  49.263  33.958  0.00  0.00     0.067 H 
ATOM     19  O26 MOL d          55.969  50.195  35.348  0.00  0.00    -0.388 OA
ATOM     20  H15 MOL d          55.236  48.343  34.770  0.00  0.00     0.076 H 
ATOM     21  H16 MOL d          54.275  49.204  36.019  0.00  0.00     0.076 H 
ATOM     22  C27 MOL d          55.662  51.609  35.447  0.00  0.00     0.034 C 
ATOM     23  H17 MOL d          56.607  52.172  35.417  0.00  0.00     0.076 H 
ATOM     24  H18 MOL d          55.158  51.788  36.409  0.00  0.00     0.076 H 
ATOM     25  H19 MOL d          54.448  53.173  34.519  0.00  0.00     0.067 H 
ATOM     26  H20 MOL d          55.280  52.093  33.350  0.00  0.00     0.067 H 
ENDBRANCH   8  11
BRANCH   1  27
ATOM     27  C14 MOL d          47.611  49.197  35.896  0.00  0.00     0.014 A 
ATOM     28  C17 MOL d          47.886  47.972  36.476  0.00  0.00    -0.068 A 
ATOM     29  C18 MOL d          47.554  47.770  37.812  0.00  0.00    -0.061 A 
ATOM     30  H10 MOL d          48.352  47.182  35.900  0.00  0.00     0.085 H 
ATOM     31  C19 MOL d          46.962  48.811  38.530  0.00  0.00     0.035 A 
ATOM     32  H11 MOL d          47.753  46.817  38.289  0.00  0.00     0.086 H 
ATOM     33  C20 MOL d          46.676  50.026  37.985  0.00  0.00    -0.040 A 
ATOM     34 CL23 MOL d          46.608  48.601  40.177  0.00  0.00    -0.084 Cl
ATOM     35  C21 MOL d          47.016  50.206  36.672  0.00  0.00     0.048 A 
ATOM     36  H12 MOL d          46.203  50.811  38.562  0.00  0.00     0.088 H 
ATOM     37 CL22 MOL d          46.686  51.724  35.991  0.00  0.00    -0.083 Cl
ENDBRANCH   1  27
BRANCH   3  38
ATOM     38  C13 MOL d          46.865  49.175  30.905  0.00  0.00    -0.034 C 
ATOM     39  H2  MOL d          47.508  49.202  30.012  0.00  0.00     0.035 H 
ATOM     40  H3  MOL d          46.065  49.924  30.804  0.00  0.00     0.035 H 
ATOM     41  H4  MOL d          46.419  48.173  31.004  0.00  0.00     0.035 H 
ENDBRANCH   3  38
BRANCH   2  42
ATOM     42  C15 MOL d          45.906  48.383  33.559  0.00  0.00     0.107 C 
ATOM     43  H5  MOL d          45.960  47.725  34.438  0.00  0.00     0.083 H 
ATOM     44  H6  MOL d          45.719  47.778  32.659  0.00  0.00     0.083 H 
BRANCH  42  45
ATOM     45  N16 MOL d          44.851  49.341  33.730  0.00  0.00    -0.075 N 
ATOM     46  H7  MOL d          45.037  50.151  33.160  0.00  0.00     0.274 HD
ATOM     47  H8  MOL d          44.801  49.616  34.699  0.00  0.00     0.274 HD
ATOM     48  H9  MOL d          43.974  48.928  33.452  0.00  0.00     0.274 HD
ENDBRANCH  42  45
ENDBRANCH   2  42
TORSDOF 5
ENDMDL
