MODEL 1
REMARK VINA RESULT:      -7.2      0.000      0.000
REMARK  19 active torsions:
REMARK  status: ('A' for Active; 'I' for Inactive)
REMARK    1  A    between atoms: NA1_2  and  OA7_3 
REMARK    2  A    between atoms: CA2_4  and  OA2_5 
REMARK    3  A    between atoms: CA3_6  and  OA3_7 
REMARK    4  A    between atoms: CA4_8  and  OA4_9 
REMARK    5  A    between atoms: OA4_9  and  CB1_14 
REMARK    6  A    between atoms: CA5_10  and  CA6_12 
REMARK    7  A    between atoms: CA6_12  and  OA6_13 
REMARK    8  A    between atoms: CB2_15  and  OB2_20 
REMARK    9  A    between atoms: CB3_16  and  OB3_21 
REMARK   10  A    between atoms: CB4_17  and  OB4_22 
REMARK   11  A    between atoms: CB5_18  and  CB6_19 
REMARK   12  A    between atoms: CB6_19  and  OB6_24 
REMARK   13  A    between atoms: OB4_22  and  CD1_25 
REMARK   14  A    between atoms: CD2_26  and  OD2_31 
REMARK   15  A    between atoms: CD3_27  and  OD3_32 
REMARK   16  A    between atoms: CD4_28  and  OD4_33 
REMARK   17  A    between atoms: CD5_29  and  CD6_30 
REMARK   18  A    between atoms: CD6_30  and  OD6_35 
REMARK   19  A    between atoms: OD4_33  and  CD7_36 
ROOT
ATOM      1  CB1 MOL d          13.647  17.519  40.113  0.00  0.00     0.159 C 
ATOM      2  CB2 MOL d          13.414  17.899  38.574  0.00  0.00     0.110 C 
ATOM      3  CB3 MOL d          13.430  16.641  37.629  0.00  0.00     0.092 C 
ATOM      4  CB4 MOL d          14.821  15.949  37.805  0.00  0.00     0.096 C 
ATOM      5  CB5 MOL d          14.943  15.493  39.404  0.00  0.00     0.089 C 
ATOM      6  OB5 MOL d          14.882  16.708  40.250  0.00  0.00    -0.348 OA
ATOM      7  H12 MOL d          13.770  18.441  40.700  0.00  0.00     0.133 H 
ATOM      8  H13 MOL d          14.233  18.559  38.254  0.00  0.00     0.094 H 
ATOM      9  H14 MOL d          12.627  15.943  37.905  0.00  0.00     0.091 H 
ATOM     10  H15 MOL d          15.633  16.644  37.545  0.00  0.00     0.091 H 
ATOM     11  H16 MOL d          14.109  14.820  39.648  0.00  0.00     0.090 H 
ENDROOT
BRANCH   4  12
ATOM     12  OB4 MOL d          14.871  14.812  36.961  0.00  0.00    -0.348 OA
BRANCH  12  13
ATOM     13  CD1 MOL d          16.033  14.865  36.066  0.00  0.00     0.159 C 
ATOM     14  CD2 MOL d          15.679  14.820  34.525  0.00  0.00     0.110 C 
ATOM     15  CD3 MOL d          14.963  13.433  34.219  0.00  0.00     0.092 C 
ATOM     16  H23 MOL d          16.594  14.903  33.919  0.00  0.00     0.094 H 
ATOM     17  CD4 MOL d          15.960  12.277  34.549  0.00  0.00     0.092 C 
ATOM     18  H24 MOL d          14.051  13.336  34.826  0.00  0.00     0.091 H 
ATOM     19  CD5 MOL d          16.354  12.363  36.135  0.00  0.00     0.089 C 
ATOM     20  H25 MOL d          16.865  12.384  33.932  0.00  0.00     0.091 H 
ATOM     21  OD5 MOL d          16.953  13.714  36.397  0.00  0.00    -0.348 OA
ATOM     22  H26 MOL d          15.445  12.240  36.742  0.00  0.00     0.090 H 
ATOM     23  H22 MOL d          16.562  15.809  36.259  0.00  0.00     0.133 H 
BRANCH  14  24
ATOM     24  OD2 MOL d          14.811  15.938  34.251  0.00  0.00    -0.388 OA
ATOM     25  H29 MOL d          14.084  15.650  33.711  0.00  0.00     0.210 HD
ENDBRANCH  14  24
BRANCH  15  26
ATOM     26  OD3 MOL d          14.643  13.366  32.852  0.00  0.00    -0.390 OA
ATOM     27  H30 MOL d          14.960  14.148  32.415  0.00  0.00     0.210 HD
ENDBRANCH  15  26
BRANCH  17  28
ATOM     28  OD4 MOL d          15.340  10.971  34.285  0.00  0.00    -0.385 OA
BRANCH  28  29
ATOM     29  CD7 MOL d          15.942  10.224  33.194  0.00  0.00     0.005 C 
ATOM     30  H32 MOL d          15.944  10.842  32.283  0.00  0.00     0.066 H 
ATOM     31  H33 MOL d          15.362   9.307  33.013  0.00  0.00     0.066 H 
ATOM     32  H34 MOL d          16.977   9.959  33.458  0.00  0.00     0.066 H 
ENDBRANCH  28  29
ENDBRANCH  17  28
BRANCH  19  33
ATOM     33  CD6 MOL d          17.371  11.248  36.517  0.00  0.00     0.043 C 
ATOM     34  H27 MOL d          17.805  11.483  37.501  0.00  0.00     0.078 H 
ATOM     35  H28 MOL d          18.170  11.220  35.761  0.00  0.00     0.078 H 
BRANCH  33  36
ATOM     36  OD6 MOL d          16.746   9.961  36.581  0.00  0.00    -0.398 OA
ATOM     37  H31 MOL d          16.502   9.685  35.705  0.00  0.00     0.209 HD
ENDBRANCH  33  36
ENDBRANCH  19  33
ENDBRANCH  12  13
ENDBRANCH   4  12
BRANCH   3  38
ATOM     38  OB3 MOL d          13.238  17.088  36.264  0.00  0.00    -0.390 OA
ATOM     39  H20 MOL d          12.323  17.304  36.128  0.00  0.00     0.210 HD
ENDBRANCH   3  38
BRANCH   5  40
ATOM     40  CB6 MOL d          16.254  14.799  39.717  0.00  0.00     0.043 C 
ATOM     41  H17 MOL d          17.087  15.482  39.492  0.00  0.00     0.078 H 
ATOM     42  H18 MOL d          16.342  13.896  39.095  0.00  0.00     0.078 H 
BRANCH  40  43
ATOM     43  OB6 MOL d          16.311  14.438  41.055  0.00  0.00    -0.398 OA
ATOM     44  H21 MOL d          16.985  13.779  41.176  0.00  0.00     0.209 HD
ENDBRANCH  40  43
ENDBRANCH   5  40
BRANCH   2  45
ATOM     45  OB2 MOL d          12.173  18.636  38.483  0.00  0.00    -0.388 OA
ATOM     46  H19 MOL d          12.295  19.393  37.922  0.00  0.00     0.210 HD
ENDBRANCH   2  45
BRANCH   1  47
ATOM     47  OA4 MOL d          12.491  16.835  40.576  0.00  0.00    -0.348 OA
BRANCH  47  48
ATOM     48  CA4 MOL d          12.417  16.755  41.897  0.00  0.00     0.090 C 
ATOM     49  CA3 MOL d          11.539  17.943  42.436  0.00  0.00     0.094 C 
ATOM     50  CA2 MOL d          10.998  17.610  43.871  0.00  0.00     0.121 C 
ATOM     51  H4  MOL d          10.679  18.060  41.759  0.00  0.00     0.091 H 
ATOM     52  CA1 MOL d          10.252  16.263  43.815  0.00  0.00     0.159 C 
ATOM     53  H2  MOL d          11.872  17.480  44.525  0.00  0.00     0.099 H 
ATOM     54  NA1 MOL d           9.190  16.097  44.588  0.00  0.00    -0.120 NA
ATOM     55  NA5 MOL d          10.699  15.202  42.968  0.00  0.00    -0.365 N 
ATOM     56  CA5 MOL d          11.838  15.384  42.048  0.00  0.00     0.059 C 
ATOM     57  H8  MOL d          10.217  14.292  43.001  0.00  0.00     0.161 HD
ATOM     58  H7  MOL d          11.514  15.059  41.049  0.00  0.00     0.079 H 
ATOM     59  H6  MOL d          13.409  16.807  42.368  0.00  0.00     0.090 H 
BRANCH  49  60
ATOM     60  OA3 MOL d          12.197  19.095  42.461  0.00  0.00    -0.390 OA
ATOM     61  H5  MOL d          12.570  19.227  43.325  0.00  0.00     0.210 HD
ENDBRANCH  49  60
BRANCH  50  62
ATOM     62  OA2 MOL d          10.248  18.577  44.423  0.00  0.00    -0.385 OA
ATOM     63  H3  MOL d           9.439  18.201  44.750  0.00  0.00     0.210 HD
ENDBRANCH  50  62
BRANCH  54  64
ATOM     64  OA7 MOL d           8.561  14.934  44.522  0.00  0.00    -0.265 OA
ATOM     65  H1  MOL d           8.262  14.788  43.633  0.00  0.00     0.247 HD
ENDBRANCH  54  64
BRANCH  56  66
ATOM     66  CA6 MOL d          12.957  14.429  42.573  0.00  0.00     0.038 C 
ATOM     67  H9  MOL d          13.157  13.657  41.815  0.00  0.00     0.077 H 
ATOM     68  H10 MOL d          12.617  13.950  43.503  0.00  0.00     0.077 H 
BRANCH  66  69
ATOM     69  OA6 MOL d          14.113  15.124  42.822  0.00  0.00    -0.399 OA
ATOM     70  H11 MOL d          14.813  14.776  42.284  0.00  0.00     0.209 HD
ENDBRANCH  66  69
ENDBRANCH  56  66
ENDBRANCH  47  48
ENDBRANCH   1  47
TORSDOF 19
ENDMDL
MODEL 2
REMARK VINA RESULT:      -6.3      1.730      3.168
REMARK  19 active torsions:
REMARK  status: ('A' for Active; 'I' for Inactive)
REMARK    1  A    between atoms: NA1_2  and  OA7_3 
REMARK    2  A    between atoms: CA2_4  and  OA2_5 
REMARK    3  A    between atoms: CA3_6  and  OA3_7 
REMARK    4  A    between atoms: CA4_8  and  OA4_9 
REMARK    5  A    between atoms: OA4_9  and  CB1_14 
REMARK    6  A    between atoms: CA5_10  and  CA6_12 
REMARK    7  A    between atoms: CA6_12  and  OA6_13 
REMARK    8  A    between atoms: CB2_15  and  OB2_20 
REMARK    9  A    between atoms: CB3_16  and  OB3_21 
REMARK   10  A    between atoms: CB4_17  and  OB4_22 
REMARK   11  A    between atoms: CB5_18  and  CB6_19 
REMARK   12  A    between atoms: CB6_19  and  OB6_24 
REMARK   13  A    between atoms: OB4_22  and  CD1_25 
REMARK   14  A    between atoms: CD2_26  and  OD2_31 
REMARK   15  A    between atoms: CD3_27  and  OD3_32 
REMARK   16  A    between atoms: CD4_28  and  OD4_33 
REMARK   17  A    between atoms: CD5_29  and  CD6_30 
REMARK   18  A    between atoms: CD6_30  and  OD6_35 
REMARK   19  A    between atoms: OD4_33  and  CD7_36 
ROOT
ATOM      1  CB1 MOL d          12.617  16.808  39.905  0.00  0.00     0.159 C 
ATOM      2  CB2 MOL d          12.828  17.580  38.517  0.00  0.00     0.110 C 
ATOM      3  CB3 MOL d          13.509  16.682  37.419  0.00  0.00     0.092 C 
ATOM      4  CB4 MOL d          14.890  16.222  37.991  0.00  0.00     0.096 C 
ATOM      5  CB5 MOL d          14.580  15.341  39.373  0.00  0.00     0.089 C 
ATOM      6  OB5 MOL d          13.904  16.221  40.355  0.00  0.00    -0.348 OA
ATOM      7  H12 MOL d          12.275  17.522  40.669  0.00  0.00     0.133 H 
ATOM      8  H13 MOL d          13.492  18.438  38.697  0.00  0.00     0.094 H 
ATOM      9  H14 MOL d          12.884  15.804  37.199  0.00  0.00     0.091 H 
ATOM     10  H15 MOL d          15.518  17.093  38.229  0.00  0.00     0.091 H 
ATOM     11  H16 MOL d          13.931  14.492  39.116  0.00  0.00     0.090 H 
ENDROOT
BRANCH   4  12
ATOM     12  OB4 MOL d          15.534  15.412  37.022  0.00  0.00    -0.348 OA
BRANCH  12  13
ATOM     13  CD1 MOL d          14.888  14.100  36.912  0.00  0.00     0.159 C 
ATOM     14  CD2 MOL d          15.873  12.908  36.579  0.00  0.00     0.110 C 
ATOM     15  CD3 MOL d          16.528  13.185  35.157  0.00  0.00     0.092 C 
ATOM     16  H23 MOL d          15.324  11.954  36.551  0.00  0.00     0.094 H 
ATOM     17  CD4 MOL d          15.391  13.225  34.086  0.00  0.00     0.092 C 
ATOM     18  H24 MOL d          17.072  14.141  35.172  0.00  0.00     0.091 H 
ATOM     19  CD5 MOL d          14.355  14.433  34.468  0.00  0.00     0.089 C 
ATOM     20  H25 MOL d          14.858  12.263  34.080  0.00  0.00     0.091 H 
ATOM     21  OD5 MOL d          13.820  14.173  35.847  0.00  0.00    -0.348 OA
ATOM     22  H26 MOL d          14.894  15.391  34.458  0.00  0.00     0.090 H 
ATOM     23  H22 MOL d          14.411  13.879  37.878  0.00  0.00     0.133 H 
BRANCH  14  24
ATOM     24  OD2 MOL d          16.866  12.866  37.623  0.00  0.00    -0.388 OA
ATOM     25  H29 MOL d          17.679  12.523  37.272  0.00  0.00     0.210 HD
ENDBRANCH  14  24
BRANCH  15  26
ATOM     26  OD3 MOL d          17.404  12.135  34.834  0.00  0.00    -0.390 OA
ATOM     27  H30 MOL d          18.079  12.457  34.247  0.00  0.00     0.210 HD
ENDBRANCH  15  26
BRANCH  17  28
ATOM     28  OD4 MOL d          15.949  13.485  32.751  0.00  0.00    -0.385 OA
BRANCH  28  29
ATOM     29  CD7 MOL d          16.726  14.708  32.647  0.00  0.00     0.005 C 
ATOM     30  H32 MOL d          16.684  15.251  33.603  0.00  0.00     0.066 H 
ATOM     31  H33 MOL d          16.310  15.340  31.848  0.00  0.00     0.066 H 
ATOM     32  H34 MOL d          17.772  14.459  32.412  0.00  0.00     0.066 H 
ENDBRANCH  28  29
ENDBRANCH  17  28
BRANCH  19  33
ATOM     33  CD6 MOL d          13.181  14.502  33.448  0.00  0.00     0.043 C 
ATOM     34  H27 MOL d          13.321  15.382  32.802  0.00  0.00     0.078 H 
ATOM     35  H28 MOL d          12.234  14.599  34.000  0.00  0.00     0.078 H 
BRANCH  33  36
ATOM     36  OD6 MOL d          13.122  13.329  32.628  0.00  0.00    -0.398 OA
ATOM     37  H31 MOL d          13.994  13.121  32.313  0.00  0.00     0.209 HD
ENDBRANCH  33  36
ENDBRANCH  19  33
ENDBRANCH  12  13
ENDBRANCH   4  12
BRANCH   3  38
ATOM     38  OB3 MOL d          13.678  17.473  36.217  0.00  0.00    -0.390 OA
ATOM     39  H20 MOL d          13.660  18.396  36.441  0.00  0.00     0.210 HD
ENDBRANCH   3  38
BRANCH   5  40
ATOM     40  CB6 MOL d          15.842  14.825  40.034  0.00  0.00     0.043 C 
ATOM     41  H17 MOL d          15.956  13.754  39.809  0.00  0.00     0.078 H 
ATOM     42  H18 MOL d          15.761  14.963  41.123  0.00  0.00     0.078 H 
BRANCH  40  43
ATOM     43  OB6 MOL d          16.956  15.509  39.570  0.00  0.00    -0.398 OA
ATOM     44  H21 MOL d          17.709  15.286  40.104  0.00  0.00     0.209 HD
ENDBRANCH  40  43
ENDBRANCH   5  40
BRANCH   2  45
ATOM     45  OB2 MOL d          11.540  18.084  38.091  0.00  0.00    -0.388 OA
ATOM     46  H19 MOL d          11.194  18.668  38.755  0.00  0.00     0.210 HD
ENDBRANCH   2  45
BRANCH   1  47
ATOM     47  OA4 MOL d          11.607  15.827  39.713  0.00  0.00    -0.348 OA
BRANCH  47  48
ATOM     48  CA4 MOL d          10.883  15.594  40.799  0.00  0.00     0.090 C 
ATOM     49  CA3 MOL d          11.844  15.238  41.992  0.00  0.00     0.094 C 
ATOM     50  CA2 MOL d          11.114  15.467  43.362  0.00  0.00     0.121 C 
ATOM     51  H4  MOL d          12.709  15.916  41.941  0.00  0.00     0.091 H 
ATOM     52  CA1 MOL d          10.586  16.913  43.402  0.00  0.00     0.159 C 
ATOM     53  H2  MOL d          10.245  14.793  43.383  0.00  0.00     0.099 H 
ATOM     54  NA1 MOL d          10.581  17.552  44.562  0.00  0.00    -0.120 NA
ATOM     55  NA5 MOL d          10.089  17.555  42.225  0.00  0.00    -0.365 N 
ATOM     56  CA5 MOL d          10.145  16.890  40.909  0.00  0.00     0.059 C 
ATOM     57  H8  MOL d           9.683  18.499  42.297  0.00  0.00     0.161 HD
ATOM     58  H7  MOL d          10.615  17.590  40.203  0.00  0.00     0.079 H 
ATOM     59  H6  MOL d          10.179  14.762  40.652  0.00  0.00     0.090 H 
BRANCH  49  60
ATOM     60  OA3 MOL d          12.299  13.992  41.928  0.00  0.00    -0.390 OA
ATOM     61  H5  MOL d          11.896  13.547  41.191  0.00  0.00     0.210 HD
ENDBRANCH  49  60
BRANCH  50  62
ATOM     62  OA2 MOL d          11.853  15.172  44.444  0.00  0.00    -0.385 OA
ATOM     63  H3  MOL d          12.647  14.729  44.172  0.00  0.00     0.210 HD
ENDBRANCH  50  62
BRANCH  54  64
ATOM     64  OA7 MOL d          10.126  18.794  44.574  0.00  0.00    -0.265 OA
ATOM     65  H1  MOL d           9.611  18.949  43.791  0.00  0.00     0.247 HD
ENDBRANCH  54  64
BRANCH  56  66
ATOM     66  CA6 MOL d           8.657  16.649  40.497  0.00  0.00     0.038 C 
ATOM     67  H9  MOL d           8.068  17.548  40.731  0.00  0.00     0.077 H 
ATOM     68  H10 MOL d           8.260  15.793  41.062  0.00  0.00     0.077 H 
BRANCH  66  69
ATOM     69  OA6 MOL d           8.561  16.385  39.154  0.00  0.00    -0.399 OA
ATOM     70  H11 MOL d           9.262  16.833  38.694  0.00  0.00     0.209 HD
ENDBRANCH  66  69
ENDBRANCH  56  66
ENDBRANCH  47  48
ENDBRANCH   1  47
TORSDOF 19
ENDMDL
MODEL 3
REMARK VINA RESULT:      -6.2      2.057      2.998
REMARK  19 active torsions:
REMARK  status: ('A' for Active; 'I' for Inactive)
REMARK    1  A    between atoms: NA1_2  and  OA7_3 
REMARK    2  A    between atoms: CA2_4  and  OA2_5 
REMARK    3  A    between atoms: CA3_6  and  OA3_7 
REMARK    4  A    between atoms: CA4_8  and  OA4_9 
REMARK    5  A    between atoms: OA4_9  and  CB1_14 
REMARK    6  A    between atoms: CA5_10  and  CA6_12 
REMARK    7  A    between atoms: CA6_12  and  OA6_13 
REMARK    8  A    between atoms: CB2_15  and  OB2_20 
REMARK    9  A    between atoms: CB3_16  and  OB3_21 
REMARK   10  A    between atoms: CB4_17  and  OB4_22 
REMARK   11  A    between atoms: CB5_18  and  CB6_19 
REMARK   12  A    between atoms: CB6_19  and  OB6_24 
REMARK   13  A    between atoms: OB4_22  and  CD1_25 
REMARK   14  A    between atoms: CD2_26  and  OD2_31 
REMARK   15  A    between atoms: CD3_27  and  OD3_32 
REMARK   16  A    between atoms: CD4_28  and  OD4_33 
REMARK   17  A    between atoms: CD5_29  and  CD6_30 
REMARK   18  A    between atoms: CD6_30  and  OD6_35 
REMARK   19  A    between atoms: OD4_33  and  CD7_36 
ROOT
ATOM      1  CB1 MOL d          12.281  16.066  39.058  0.00  0.00     0.159 C 
ATOM      2  CB2 MOL d          11.966  16.116  37.487  0.00  0.00     0.110 C 
ATOM      3  CB3 MOL d          12.447  14.824  36.729  0.00  0.00     0.092 C 
ATOM      4  CB4 MOL d          13.988  14.699  36.963  0.00  0.00     0.096 C 
ATOM      5  CB5 MOL d          14.225  14.547  38.606  0.00  0.00     0.089 C 
ATOM      6  OB5 MOL d          13.719  15.770  39.274  0.00  0.00    -0.348 OA
ATOM      7  H12 MOL d          12.057  17.046  39.505  0.00  0.00     0.133 H 
ATOM      8  H13 MOL d          12.507  16.970  37.055  0.00  0.00     0.094 H 
ATOM      9  H14 MOL d          11.935  13.934  37.124  0.00  0.00     0.091 H 
ATOM     10  H15 MOL d          14.509  15.591  36.584  0.00  0.00     0.091 H 
ATOM     11  H16 MOL d          13.675  13.665  38.966  0.00  0.00     0.090 H 
ENDROOT
BRANCH   4  12
ATOM     12  OB4 MOL d          14.456  13.544  36.286  0.00  0.00    -0.348 OA
BRANCH  12  13
ATOM     13  CD1 MOL d          14.972  13.880  34.955  0.00  0.00     0.159 C 
ATOM     14  CD2 MOL d          14.588  12.847  33.820  0.00  0.00     0.110 C 
ATOM     15  CD3 MOL d          15.233  11.441  34.189  0.00  0.00     0.092 C 
ATOM     16  H23 MOL d          14.975  13.186  32.848  0.00  0.00     0.094 H 
ATOM     17  CD4 MOL d          16.786  11.602  34.230  0.00  0.00     0.092 C 
ATOM     18  H24 MOL d          14.859  11.098  35.165  0.00  0.00     0.091 H 
ATOM     19  CD5 MOL d          17.167  12.708  35.376  0.00  0.00     0.089 C 
ATOM     20  H25 MOL d          17.146  11.943  33.248  0.00  0.00     0.091 H 
ATOM     21  OD5 MOL d          16.475  13.996  35.032  0.00  0.00    -0.348 OA
ATOM     22  H26 MOL d          16.815  12.352  36.355  0.00  0.00     0.090 H 
ATOM     23  H22 MOL d          14.555  14.857  34.671  0.00  0.00     0.133 H 
BRANCH  14  24
ATOM     24  OD2 MOL d          13.149  12.776  33.773  0.00  0.00    -0.388 OA
ATOM     25  H29 MOL d          12.859  12.827  32.870  0.00  0.00     0.210 HD
ENDBRANCH  14  24
BRANCH  15  26
ATOM     26  OD3 MOL d          14.911  10.505  33.192  0.00  0.00    -0.390 OA
ATOM     27  H30 MOL d          13.971  10.360  33.187  0.00  0.00     0.210 HD
ENDBRANCH  15  26
BRANCH  17  28
ATOM     28  OD4 MOL d          17.428  10.326  34.572  0.00  0.00    -0.385 OA
BRANCH  28  29
ATOM     29  CD7 MOL d          18.304   9.793  33.542  0.00  0.00     0.005 C 
ATOM     30  H32 MOL d          18.162   8.705  33.466  0.00  0.00     0.066 H 
ATOM     31  H33 MOL d          19.351  10.009  33.803  0.00  0.00     0.066 H 
ATOM     32  H34 MOL d          18.062  10.263  32.576  0.00  0.00     0.066 H 
ENDBRANCH  28  29
ENDBRANCH  17  28
BRANCH  19  33
ATOM     33  CD6 MOL d          18.706  12.933  35.443  0.00  0.00     0.043 C 
ATOM     34  H27 MOL d          18.903  13.914  35.900  0.00  0.00     0.078 H 
ATOM     35  H28 MOL d          19.113  12.916  34.421  0.00  0.00     0.078 H 
BRANCH  33  36
ATOM     36  OD6 MOL d          19.355  11.919  36.219  0.00  0.00    -0.398 OA
ATOM     37  H31 MOL d          20.079  12.305  36.699  0.00  0.00     0.209 HD
ENDBRANCH  33  36
ENDBRANCH  19  33
ENDBRANCH  12  13
ENDBRANCH   4  12
BRANCH   3  38
ATOM     38  OB3 MOL d          12.142  14.976  35.321  0.00  0.00    -0.390 OA
ATOM     39  H20 MOL d          12.935  14.853  34.812  0.00  0.00     0.210 HD
ENDBRANCH   3  38
BRANCH   5  40
ATOM     40  CB6 MOL d          15.688  14.411  38.977  0.00  0.00     0.043 C 
ATOM     41  H17 MOL d          15.909  13.356  39.198  0.00  0.00     0.078 H 
ATOM     42  H18 MOL d          15.892  15.022  39.869  0.00  0.00     0.078 H 
BRANCH  40  43
ATOM     43  OB6 MOL d          16.501  14.838  37.937  0.00  0.00    -0.398 OA
ATOM     44  H21 MOL d          17.192  14.201  37.795  0.00  0.00     0.209 HD
ENDBRANCH  40  43
ENDBRANCH   5  40
BRANCH   2  45
ATOM     45  OB2 MOL d          10.547  16.348  37.328  0.00  0.00    -0.388 OA
ATOM     46  H19 MOL d          10.065  15.601  37.662  0.00  0.00     0.210 HD
ENDBRANCH   2  45
BRANCH   1  47
ATOM     47  OA4 MOL d          11.430  15.091  39.645  0.00  0.00    -0.348 OA
BRANCH  47  48
ATOM     48  CA4 MOL d          11.039  15.402  40.873  0.00  0.00     0.090 C 
ATOM     49  CA3 MOL d          12.244  15.205  41.863  0.00  0.00     0.094 C 
ATOM     50  CA2 MOL d          12.006  16.030  43.177  0.00  0.00     0.121 C 
ATOM     51  H4  MOL d          13.150  15.590  41.371  0.00  0.00     0.091 H 
ATOM     52  CA1 MOL d          11.751  17.500  42.795  0.00  0.00     0.159 C 
ATOM     53  H2  MOL d          11.088  15.641  43.642  0.00  0.00     0.099 H 
ATOM     54  NA1 MOL d          12.197  18.449  43.605  0.00  0.00    -0.120 NA
ATOM     55  NA5 MOL d          11.031  17.845  41.609  0.00  0.00    -0.365 N 
ATOM     56  CA5 MOL d          10.583  16.811  40.658  0.00  0.00     0.059 C 
ATOM     57  H8  MOL d          10.822  18.835  41.415  0.00  0.00     0.161 HD
ATOM     58  H7  MOL d          10.924  17.110  39.656  0.00  0.00     0.079 H 
ATOM     59  H6  MOL d          10.200  14.775  41.208  0.00  0.00     0.090 H 
BRANCH  49  60
ATOM     60  OA3 MOL d          12.454  13.930  42.166  0.00  0.00    -0.390 OA
ATOM     61  H5  MOL d          12.161  13.764  43.054  0.00  0.00     0.210 HD
ENDBRANCH  49  60
BRANCH  50  62
ATOM     62  OA2 MOL d          12.979  15.911  44.095  0.00  0.00    -0.385 OA
ATOM     63  H3  MOL d          13.081  14.997  44.330  0.00  0.00     0.210 HD
ENDBRANCH  50  62
BRANCH  54  64
ATOM     64  OA7 MOL d          11.970  19.705  43.256  0.00  0.00    -0.265 OA
ATOM     65  H1  MOL d          12.761  20.216  43.384  0.00  0.00     0.247 HD
ENDBRANCH  54  64
BRANCH  56  66
ATOM     66  CA6 MOL d           9.022  16.840  40.711  0.00  0.00     0.038 C 
ATOM     67  H9  MOL d           8.682  16.311  41.613  0.00  0.00     0.077 H 
ATOM     68  H10 MOL d           8.621  16.338  39.818  0.00  0.00     0.077 H 
BRANCH  66  69
ATOM     69  OA6 MOL d           8.561  18.131  40.745  0.00  0.00    -0.399 OA
ATOM     70  H11 MOL d           7.785  18.175  41.293  0.00  0.00     0.209 HD
ENDBRANCH  66  69
ENDBRANCH  56  66
ENDBRANCH  47  48
ENDBRANCH   1  47
TORSDOF 19
ENDMDL
MODEL 4
REMARK VINA RESULT:      -5.8      2.008      2.911
REMARK  19 active torsions:
REMARK  status: ('A' for Active; 'I' for Inactive)
REMARK    1  A    between atoms: NA1_2  and  OA7_3 
REMARK    2  A    between atoms: CA2_4  and  OA2_5 
REMARK    3  A    between atoms: CA3_6  and  OA3_7 
REMARK    4  A    between atoms: CA4_8  and  OA4_9 
REMARK    5  A    between atoms: OA4_9  and  CB1_14 
REMARK    6  A    between atoms: CA5_10  and  CA6_12 
REMARK    7  A    between atoms: CA6_12  and  OA6_13 
REMARK    8  A    between atoms: CB2_15  and  OB2_20 
REMARK    9  A    between atoms: CB3_16  and  OB3_21 
REMARK   10  A    between atoms: CB4_17  and  OB4_22 
REMARK   11  A    between atoms: CB5_18  and  CB6_19 
REMARK   12  A    between atoms: CB6_19  and  OB6_24 
REMARK   13  A    between atoms: OB4_22  and  CD1_25 
REMARK   14  A    between atoms: CD2_26  and  OD2_31 
REMARK   15  A    between atoms: CD3_27  and  OD3_32 
REMARK   16  A    between atoms: CD4_28  and  OD4_33 
REMARK   17  A    between atoms: CD5_29  and  CD6_30 
REMARK   18  A    between atoms: CD6_30  and  OD6_35 
REMARK   19  A    between atoms: OD4_33  and  CD7_36 
ROOT
ATOM      1  CB1 MOL d          12.251  16.662  37.540  0.00  0.00     0.159 C 
ATOM      2  CB2 MOL d          11.517  16.052  36.253  0.00  0.00     0.110 C 
ATOM      3  CB3 MOL d          12.020  14.606  35.894  0.00  0.00     0.092 C 
ATOM      4  CB4 MOL d          13.559  14.704  35.635  0.00  0.00     0.096 C 
ATOM      5  CB5 MOL d          14.261  15.245  37.048  0.00  0.00     0.089 C 
ATOM      6  OB5 MOL d          13.723  16.590  37.361  0.00  0.00    -0.348 OA
ATOM      7  H12 MOL d          11.967  17.718  37.654  0.00  0.00     0.133 H 
ATOM      8  H13 MOL d          11.737  16.699  35.392  0.00  0.00     0.094 H 
ATOM      9  H14 MOL d          11.824  13.913  36.726  0.00  0.00     0.091 H 
ATOM     10  H15 MOL d          13.768  15.406  34.814  0.00  0.00     0.091 H 
ATOM     11  H16 MOL d          14.019  14.543  37.858  0.00  0.00     0.090 H 
ENDROOT
BRANCH   4  12
ATOM     12  OB4 MOL d          14.047  13.415  35.303  0.00  0.00    -0.348 OA
BRANCH  12  13
ATOM     13  CD1 MOL d          14.474  13.354  33.901  0.00  0.00     0.159 C 
ATOM     14  CD2 MOL d          14.308  11.934  33.224  0.00  0.00     0.110 C 
ATOM     15  CD3 MOL d          15.235  10.901  34.002  0.00  0.00     0.092 C 
ATOM     16  H23 MOL d          14.611  11.976  32.167  0.00  0.00     0.094 H 
ATOM     17  CD4 MOL d          16.720  11.364  33.863  0.00  0.00     0.092 C 
ATOM     18  H24 MOL d          14.945  10.858  35.062  0.00  0.00     0.091 H 
ATOM     19  CD5 MOL d          16.867  12.853  34.526  0.00  0.00     0.089 C 
ATOM     20  H25 MOL d          16.996  11.399  32.799  0.00  0.00     0.091 H 
ATOM     21  OD5 MOL d          15.920  13.777  33.816  0.00  0.00    -0.348 OA
ATOM     22  H26 MOL d          16.603  12.805  35.592  0.00  0.00     0.090 H 
ATOM     23  H22 MOL d          13.861  14.068  33.332  0.00  0.00     0.133 H 
BRANCH  14  24
ATOM     24  OD2 MOL d          12.915  11.573  33.317  0.00  0.00    -0.388 OA
ATOM     25  H29 MOL d          12.762  11.112  34.133  0.00  0.00     0.210 HD
ENDBRANCH  14  24
BRANCH  15  26
ATOM     26  OD3 MOL d          15.109   9.630  33.415  0.00  0.00    -0.390 OA
ATOM     27  H30 MOL d          15.216   8.962  34.083  0.00  0.00     0.210 HD
ENDBRANCH  15  26
BRANCH  17  28
ATOM     28  OD4 MOL d          17.616  10.440  34.571  0.00  0.00    -0.385 OA
BRANCH  28  29
ATOM     29  CD7 MOL d          17.298  10.245  35.976  0.00  0.00     0.005 C 
ATOM     30  H32 MOL d          16.357   9.682  36.064  0.00  0.00     0.066 H 
ATOM     31  H33 MOL d          17.187  11.224  36.466  0.00  0.00     0.066 H 
ATOM     32  H34 MOL d          18.110   9.682  36.461  0.00  0.00     0.066 H 
ENDBRANCH  28  29
ENDBRANCH  17  28
BRANCH  19  33
ATOM     33  CD6 MOL d          18.326  13.381  34.390  0.00  0.00     0.043 C 
ATOM     34  H27 MOL d          18.298  14.468  34.226  0.00  0.00     0.078 H 
ATOM     35  H28 MOL d          18.803  12.892  33.528  0.00  0.00     0.078 H 
BRANCH  33  36
ATOM     36  OD6 MOL d          19.098  13.107  35.565  0.00  0.00    -0.398 OA
ATOM     37  H31 MOL d          19.784  13.759  35.650  0.00  0.00     0.209 HD
ENDBRANCH  33  36
ENDBRANCH  19  33
ENDBRANCH  12  13
ENDBRANCH   4  12
BRANCH   3  38
ATOM     38  OB3 MOL d          11.319  14.154  34.709  0.00  0.00    -0.390 OA
ATOM     39  H20 MOL d          10.382  14.208  34.857  0.00  0.00     0.210 HD
ENDBRANCH   3  38
BRANCH   5  40
ATOM     40  CB6 MOL d          15.767  15.384  36.939  0.00  0.00     0.043 C 
ATOM     41  H17 MOL d          16.055  16.411  37.208  0.00  0.00     0.078 H 
ATOM     42  H18 MOL d          16.074  15.177  35.903  0.00  0.00     0.078 H 
BRANCH  40  43
ATOM     43  OB6 MOL d          16.405  14.494  37.790  0.00  0.00    -0.398 OA
ATOM     44  H21 MOL d          17.011  13.959  37.291  0.00  0.00     0.209 HD
ENDBRANCH  40  43
ENDBRANCH   5  40
BRANCH   2  45
ATOM     45  OB2 MOL d          10.091  16.090  36.498  0.00  0.00    -0.388 OA
ATOM     46  H19 MOL d           9.717  15.235  36.320  0.00  0.00     0.210 HD
ENDBRANCH   2  45
BRANCH   1  47
ATOM     47  OA4 MOL d          11.805  15.943  38.682  0.00  0.00    -0.348 OA
BRANCH  47  48
ATOM     48  CA4 MOL d          12.049  16.566  39.827  0.00  0.00     0.090 C 
ATOM     49  CA3 MOL d          10.686  17.028  40.461  0.00  0.00     0.094 C 
ATOM     50  CA2 MOL d          10.863  17.282  42.000  0.00  0.00     0.121 C 
ATOM     51  H4  MOL d           9.958  16.214  40.325  0.00  0.00     0.091 H 
ATOM     52  CA1 MOL d          11.447  16.010  42.644  0.00  0.00     0.159 C 
ATOM     53  H2  MOL d          11.606  18.085  42.113  0.00  0.00     0.099 H 
ATOM     54  NA1 MOL d          11.065  15.691  43.871  0.00  0.00    -0.120 NA
ATOM     55  NA5 MOL d          12.397  15.196  41.951  0.00  0.00    -0.365 N 
ATOM     56  CA5 MOL d          12.789  15.492  40.560  0.00  0.00     0.059 C 
ATOM     57  H8  MOL d          12.817  14.389  42.433  0.00  0.00     0.161 HD
ATOM     58  H7  MOL d          12.673  14.566  39.978  0.00  0.00     0.079 H 
ATOM     59  H6  MOL d          12.691  17.448  39.687  0.00  0.00     0.090 H 
BRANCH  49  60
ATOM     60  OA3 MOL d          10.195  18.116  39.881  0.00  0.00    -0.390 OA
ATOM     61  H5  MOL d          10.899  18.734  39.721  0.00  0.00     0.210 HD
ENDBRANCH  49  60
BRANCH  50  62
ATOM     62  OA2 MOL d           9.752  17.698  42.628  0.00  0.00    -0.385 OA
ATOM     63  H3  MOL d           9.943  18.492  43.113  0.00  0.00     0.210 HD
ENDBRANCH  50  62
BRANCH  54  64
ATOM     64  OA7 MOL d          11.576  14.593  44.404  0.00  0.00    -0.265 OA
ATOM     65  H1  MOL d          12.410  14.401  43.993  0.00  0.00     0.247 HD
ENDBRANCH  54  64
BRANCH  56  66
ATOM     66  CA6 MOL d          14.299  15.887  40.624  0.00  0.00     0.038 C 
ATOM     67  H9  MOL d          14.880  15.191  40.001  0.00  0.00     0.077 H 
ATOM     68  H10 MOL d          14.645  15.822  41.666  0.00  0.00     0.077 H 
BRANCH  66  69
ATOM     69  OA6 MOL d          14.488  17.166  40.166  0.00  0.00    -0.399 OA
ATOM     70  H11 MOL d          14.112  17.248  39.297  0.00  0.00     0.209 HD
ENDBRANCH  66  69
ENDBRANCH  56  66
ENDBRANCH  47  48
ENDBRANCH   1  47
TORSDOF 19
ENDMDL
MODEL 5
REMARK VINA RESULT:      -5.5      2.089      3.398
REMARK  19 active torsions:
REMARK  status: ('A' for Active; 'I' for Inactive)
REMARK    1  A    between atoms: NA1_2  and  OA7_3 
REMARK    2  A    between atoms: CA2_4  and  OA2_5 
REMARK    3  A    between atoms: CA3_6  and  OA3_7 
REMARK    4  A    between atoms: CA4_8  and  OA4_9 
REMARK    5  A    between atoms: OA4_9  and  CB1_14 
REMARK    6  A    between atoms: CA5_10  and  CA6_12 
REMARK    7  A    between atoms: CA6_12  and  OA6_13 
REMARK    8  A    between atoms: CB2_15  and  OB2_20 
REMARK    9  A    between atoms: CB3_16  and  OB3_21 
REMARK   10  A    between atoms: CB4_17  and  OB4_22 
REMARK   11  A    between atoms: CB5_18  and  CB6_19 
REMARK   12  A    between atoms: CB6_19  and  OB6_24 
REMARK   13  A    between atoms: OB4_22  and  CD1_25 
REMARK   14  A    between atoms: CD2_26  and  OD2_31 
REMARK   15  A    between atoms: CD3_27  and  OD3_32 
REMARK   16  A    between atoms: CD4_28  and  OD4_33 
REMARK   17  A    between atoms: CD5_29  and  CD6_30 
REMARK   18  A    between atoms: CD6_30  and  OD6_35 
REMARK   19  A    between atoms: OD4_33  and  CD7_36 
ROOT
ATOM      1  CB1 MOL d          11.167  16.306  38.693  0.00  0.00     0.159 C 
ATOM      2  CB2 MOL d          10.974  15.874  37.162  0.00  0.00     0.110 C 
ATOM      3  CB3 MOL d          12.134  14.949  36.640  0.00  0.00     0.092 C 
ATOM      4  CB4 MOL d          13.470  15.746  36.806  0.00  0.00     0.096 C 
ATOM      5  CB5 MOL d          13.650  16.067  38.433  0.00  0.00     0.089 C 
ATOM      6  OB5 MOL d          12.513  16.905  38.881  0.00  0.00    -0.348 OA
ATOM      7  H12 MOL d          10.412  17.061  38.956  0.00  0.00     0.133 H 
ATOM      8  H13 MOL d          10.977  16.784  36.544  0.00  0.00     0.094 H 
ATOM      9  H14 MOL d          12.178  14.019  37.226  0.00  0.00     0.091 H 
ATOM     10  H15 MOL d          13.431  16.686  36.236  0.00  0.00     0.091 H 
ATOM     11  H16 MOL d          13.660  15.116  38.985  0.00  0.00     0.090 H 
ENDROOT
BRANCH   4  12
ATOM     12  OB4 MOL d          14.539  14.941  36.339  0.00  0.00    -0.348 OA
BRANCH  12  13
ATOM     13  CD1 MOL d          14.518  13.614  36.964  0.00  0.00     0.159 C 
ATOM     14  CD2 MOL d          15.938  13.069  37.399  0.00  0.00     0.110 C 
ATOM     15  CD3 MOL d          16.832  12.914  36.093  0.00  0.00     0.092 C 
ATOM     16  H23 MOL d          15.837  12.091  37.893  0.00  0.00     0.094 H 
ATOM     17  CD4 MOL d          16.152  11.875  35.145  0.00  0.00     0.092 C 
ATOM     18  H24 MOL d          16.931  13.886  35.586  0.00  0.00     0.091 H 
ATOM     19  CD5 MOL d          14.666  12.430  34.741  0.00  0.00     0.089 C 
ATOM     20  H25 MOL d          16.062  10.909  35.664  0.00  0.00     0.091 H 
ATOM     21  OD5 MOL d          13.883  12.636  36.006  0.00  0.00    -0.348 OA
ATOM     22  H26 MOL d          14.767  13.388  34.212  0.00  0.00     0.090 H 
ATOM     23  H22 MOL d          13.895  13.680  37.869  0.00  0.00     0.133 H 
BRANCH  14  24
ATOM     24  OD2 MOL d          16.502  14.024  38.320  0.00  0.00    -0.388 OA
ATOM     25  H29 MOL d          17.054  14.634  37.844  0.00  0.00     0.210 HD
ENDBRANCH  14  24
BRANCH  15  26
ATOM     26  OD3 MOL d          18.100  12.425  36.451  0.00  0.00    -0.390 OA
ATOM     27  H30 MOL d          18.200  11.539  36.123  0.00  0.00     0.210 HD
ENDBRANCH  15  26
BRANCH  17  28
ATOM     28  OD4 MOL d          16.942  11.702  33.919  0.00  0.00    -0.385 OA
BRANCH  28  29
ATOM     29  CD7 MOL d          17.641  10.431  33.823  0.00  0.00     0.005 C 
ATOM     30  H32 MOL d          17.642  10.091  32.777  0.00  0.00     0.066 H 
ATOM     31  H33 MOL d          17.132   9.685  34.451  0.00  0.00     0.066 H 
ATOM     32  H34 MOL d          18.678  10.557  34.169  0.00  0.00     0.066 H 
ENDBRANCH  28  29
ENDBRANCH  17  28
BRANCH  19  33
ATOM     33  CD6 MOL d          13.926  11.418  33.818  0.00  0.00     0.043 C 
ATOM     34  H27 MOL d          14.214  11.612  32.773  0.00  0.00     0.078 H 
ATOM     35  H28 MOL d          12.841  11.559  33.931  0.00  0.00     0.078 H 
BRANCH  33  36
ATOM     36  OD6 MOL d          14.256  10.064  34.147  0.00  0.00    -0.398 OA
ATOM     37  H31 MOL d          13.503   9.508  33.987  0.00  0.00     0.209 HD
ENDBRANCH  33  36
ENDBRANCH  19  33
ENDBRANCH  12  13
ENDBRANCH   4  12
BRANCH   3  38
ATOM     38  OB3 MOL d          11.883  14.636  35.248  0.00  0.00    -0.390 OA
ATOM     39  H20 MOL d          12.491  15.120  34.701  0.00  0.00     0.210 HD
ENDBRANCH   3  38
BRANCH   5  40
ATOM     40  CB6 MOL d          14.918  16.839  38.741  0.00  0.00     0.043 C 
ATOM     41  H17 MOL d          14.652  17.853  39.073  0.00  0.00     0.078 H 
ATOM     42  H18 MOL d          15.533  16.901  37.831  0.00  0.00     0.078 H 
BRANCH  40  43
ATOM     43  OB6 MOL d          15.646  16.209  39.740  0.00  0.00    -0.398 OA
ATOM     44  H21 MOL d          15.630  16.743  40.526  0.00  0.00     0.209 HD
ENDBRANCH  40  43
ENDBRANCH   5  40
BRANCH   2  45
ATOM     45  OB2 MOL d           9.676  15.245  37.041  0.00  0.00    -0.388 OA
ATOM     46  H19 MOL d           9.409  14.907  37.887  0.00  0.00     0.210 HD
ENDBRANCH   2  45
BRANCH   1  47
ATOM     47  OA4 MOL d          10.964  15.157  39.503  0.00  0.00    -0.348 OA
BRANCH  47  48
ATOM     48  CA4 MOL d          10.744  15.441  40.779  0.00  0.00     0.090 C 
ATOM     49  CA3 MOL d          12.045  15.132  41.607  0.00  0.00     0.094 C 
ATOM     50  CA2 MOL d          12.021  15.917  42.966  0.00  0.00     0.121 C 
ATOM     51  H4  MOL d          12.908  15.482  41.020  0.00  0.00     0.091 H 
ATOM     52  CA1 MOL d          11.817  17.414  42.666  0.00  0.00     0.159 C 
ATOM     53  H2  MOL d          11.143  15.565  43.527  0.00  0.00     0.099 H 
ATOM     54  NA1 MOL d          12.417  18.301  43.446  0.00  0.00    -0.120 NA
ATOM     55  NA5 MOL d          10.983  17.848  41.589  0.00  0.00    -0.365 N 
ATOM     56  CA5 MOL d          10.358  16.882  40.667  0.00  0.00     0.059 C 
ATOM     57  H8  MOL d          10.816  18.856  41.455  0.00  0.00     0.161 HD
ATOM     58  H7  MOL d          10.595  17.200  39.641  0.00  0.00     0.079 H 
ATOM     59  H6  MOL d           9.914  14.852  41.194  0.00  0.00     0.090 H 
BRANCH  49  60
ATOM     60  OA3 MOL d          12.208  13.836  41.840  0.00  0.00    -0.390 OA
ATOM     61  H5  MOL d          11.498  13.351  41.434  0.00  0.00     0.210 HD
ENDBRANCH  49  60
BRANCH  50  62
ATOM     62  OA2 MOL d          13.087  15.703  43.753  0.00  0.00    -0.385 OA
ATOM     63  H3  MOL d          13.235  14.769  43.838  0.00  0.00     0.210 HD
ENDBRANCH  50  62
BRANCH  54  64
ATOM     64  OA7 MOL d          12.231  19.581  43.169  0.00  0.00    -0.265 OA
ATOM     65  H1  MOL d          11.451  19.679  42.635  0.00  0.00     0.247 HD
ENDBRANCH  54  64
BRANCH  56  66
ATOM     66  CA6 MOL d           8.820  17.003  40.912  0.00  0.00     0.038 C 
ATOM     67  H9  MOL d           8.359  16.009  40.809  0.00  0.00     0.077 H 
ATOM     68  H10 MOL d           8.389  17.686  40.166  0.00  0.00     0.077 H 
BRANCH  66  69
ATOM     69  OA6 MOL d           8.564  17.489  42.169  0.00  0.00    -0.399 OA
ATOM     70  H11 MOL d           9.112  17.036  42.800  0.00  0.00     0.209 HD
ENDBRANCH  66  69
ENDBRANCH  56  66
ENDBRANCH  47  48
ENDBRANCH   1  47
TORSDOF 19
ENDMDL
MODEL 6
REMARK VINA RESULT:      -5.3      3.094      8.871
REMARK  19 active torsions:
REMARK  status: ('A' for Active; 'I' for Inactive)
REMARK    1  A    between atoms: NA1_2  and  OA7_3 
REMARK    2  A    between atoms: CA2_4  and  OA2_5 
REMARK    3  A    between atoms: CA3_6  and  OA3_7 
REMARK    4  A    between atoms: CA4_8  and  OA4_9 
REMARK    5  A    between atoms: OA4_9  and  CB1_14 
REMARK    6  A    between atoms: CA5_10  and  CA6_12 
REMARK    7  A    between atoms: CA6_12  and  OA6_13 
REMARK    8  A    between atoms: CB2_15  and  OB2_20 
REMARK    9  A    between atoms: CB3_16  and  OB3_21 
REMARK   10  A    between atoms: CB4_17  and  OB4_22 
REMARK   11  A    between atoms: CB5_18  and  CB6_19 
REMARK   12  A    between atoms: CB6_19  and  OB6_24 
REMARK   13  A    between atoms: OB4_22  and  CD1_25 
REMARK   14  A    between atoms: CD2_26  and  OD2_31 
REMARK   15  A    between atoms: CD3_27  and  OD3_32 
REMARK   16  A    between atoms: CD4_28  and  OD4_33 
REMARK   17  A    between atoms: CD5_29  and  CD6_30 
REMARK   18  A    between atoms: CD6_30  and  OD6_35 
REMARK   19  A    between atoms: OD4_33  and  CD7_36 
ROOT
ATOM      1  CB1 MOL d          15.799  15.014  37.466  0.00  0.00     0.159 C 
ATOM      2  CB2 MOL d          16.045  14.804  39.035  0.00  0.00     0.110 C 
ATOM      3  CB3 MOL d          14.712  14.827  39.869  0.00  0.00     0.092 C 
ATOM      4  CB4 MOL d          14.034  16.213  39.615  0.00  0.00     0.096 C 
ATOM      5  CB5 MOL d          13.716  16.313  37.981  0.00  0.00     0.089 C 
ATOM      6  OB5 MOL d          14.999  16.245  37.243  0.00  0.00    -0.348 OA
ATOM      7  H12 MOL d          16.767  15.134  36.958  0.00  0.00     0.133 H 
ATOM      8  H13 MOL d          16.674  15.629  39.399  0.00  0.00     0.094 H 
ATOM      9  H14 MOL d          14.041  14.018  39.544  0.00  0.00     0.091 H 
ATOM     10  H15 MOL d          14.702  17.031  39.923  0.00  0.00     0.091 H 
ATOM     11  H16 MOL d          13.069  15.473  37.692  0.00  0.00     0.090 H 
ENDROOT
BRANCH   4  12
ATOM     12  OB4 MOL d          12.828  16.271  40.358  0.00  0.00    -0.348 OA
BRANCH  12  13
ATOM     13  CD1 MOL d          12.342  14.926  40.687  0.00  0.00     0.159 C 
ATOM     14  CD2 MOL d          11.022  14.499  39.927  0.00  0.00     0.110 C 
ATOM     15  CD3 MOL d           9.857  15.494  40.355  0.00  0.00     0.092 C 
ATOM     16  H23 MOL d          10.743  13.469  40.194  0.00  0.00     0.094 H 
ATOM     17  CD4 MOL d           9.629  15.357  41.894  0.00  0.00     0.092 C 
ATOM     18  H24 MOL d          10.131  16.528  40.100  0.00  0.00     0.091 H 
ATOM     19  CD5 MOL d          11.016  15.757  42.666  0.00  0.00     0.089 C 
ATOM     20  H25 MOL d           9.353  14.320  42.134  0.00  0.00     0.091 H 
ATOM     21  OD5 MOL d          12.104  14.847  42.176  0.00  0.00    -0.348 OA
ATOM     22  H26 MOL d          11.275  16.800  42.431  0.00  0.00     0.090 H 
ATOM     23  H22 MOL d          13.130  14.209  40.415  0.00  0.00     0.133 H 
BRANCH  14  24
ATOM     24  OD2 MOL d          11.296  14.578  38.514  0.00  0.00    -0.388 OA
ATOM     25  H29 MOL d          10.684  15.180  38.106  0.00  0.00     0.210 HD
ENDBRANCH  14  24
BRANCH  15  26
ATOM     26  OD3 MOL d           8.670  15.132  39.697  0.00  0.00    -0.390 OA
ATOM     27  H30 MOL d           7.953  15.665  40.022  0.00  0.00     0.210 HD
ENDBRANCH  15  26
BRANCH  17  28
ATOM     28  OD4 MOL d           8.561  16.263  42.339  0.00  0.00    -0.385 OA
BRANCH  28  29
ATOM     29  CD7 MOL d           8.596  17.584  41.734  0.00  0.00     0.005 C 
ATOM     30  H32 MOL d           8.609  18.349  42.523  0.00  0.00     0.066 H 
ATOM     31  H33 MOL d           7.704  17.722  41.104  0.00  0.00     0.066 H 
ATOM     32  H34 MOL d           9.501  17.680  41.115  0.00  0.00     0.066 H 
ENDBRANCH  28  29
ENDBRANCH  17  28
BRANCH  19  33
ATOM     33  CD6 MOL d          10.856  15.611  44.208  0.00  0.00     0.043 C 
ATOM     34  H27 MOL d          11.569  16.286  44.706  0.00  0.00     0.078 H 
ATOM     35  H28 MOL d          11.075  14.571  44.493  0.00  0.00     0.078 H 
BRANCH  33  36
ATOM     36  OD6 MOL d           9.529  15.940  44.636  0.00  0.00    -0.398 OA
ATOM     37  H31 MOL d           9.271  15.356  45.339  0.00  0.00     0.209 HD
ENDBRANCH  33  36
ENDBRANCH  19  33
ENDBRANCH  12  13
ENDBRANCH   4  12
BRANCH   3  38
ATOM     38  OB3 MOL d          15.041  14.655  41.269  0.00  0.00    -0.390 OA
ATOM     39  H20 MOL d          14.930  13.742  41.509  0.00  0.00     0.210 HD
ENDBRANCH   3  38
BRANCH   5  40
ATOM     40  CB6 MOL d          13.048  17.617  37.592  0.00  0.00     0.043 C 
ATOM     41  H17 MOL d          13.020  17.695  36.495  0.00  0.00     0.078 H 
ATOM     42  H18 MOL d          13.628  18.456  38.004  0.00  0.00     0.078 H 
BRANCH  40  43
ATOM     43  OB6 MOL d          11.753  17.672  38.086  0.00  0.00    -0.398 OA
ATOM     44  H21 MOL d          11.752  17.403  38.998  0.00  0.00     0.209 HD
ENDBRANCH  40  43
ENDBRANCH   5  40
BRANCH   2  45
ATOM     45  OB2 MOL d          16.776  13.566  39.205  0.00  0.00    -0.388 OA
ATOM     46  H19 MOL d          17.611  13.629  38.758  0.00  0.00     0.210 HD
ENDBRANCH   2  45
BRANCH   1  47
ATOM     47  OA4 MOL d          15.159  13.850  36.961  0.00  0.00    -0.348 OA
BRANCH  47  48
ATOM     48  CA4 MOL d          15.670  13.421  35.816  0.00  0.00     0.090 C 
ATOM     49  CA3 MOL d          16.546  12.144  36.089  0.00  0.00     0.094 C 
ATOM     50  CA2 MOL d          16.729  11.319  34.767  0.00  0.00     0.121 C 
ATOM     51  H4  MOL d          16.011  11.518  36.818  0.00  0.00     0.091 H 
ATOM     52  CA1 MOL d          15.336  11.003  34.189  0.00  0.00     0.159 C 
ATOM     53  H2  MOL d          17.250  11.969  34.048  0.00  0.00     0.099 H 
ATOM     54  NA1 MOL d          15.158   9.845  33.571  0.00  0.00    -0.120 NA
ATOM     55  NA5 MOL d          14.260  11.938  34.290  0.00  0.00    -0.365 N 
ATOM     56  CA5 MOL d          14.415  13.204  35.031  0.00  0.00     0.059 C 
ATOM     57  H8  MOL d          13.360  11.724  33.838  0.00  0.00     0.161 HD
ATOM     58  H7  MOL d          13.575  13.281  35.738  0.00  0.00     0.079 H 
ATOM     59  H6  MOL d          16.297  14.184  35.333  0.00  0.00     0.090 H 
BRANCH  49  60
ATOM     60  OA3 MOL d          17.735  12.440  36.601  0.00  0.00    -0.390 OA
ATOM     61  H5  MOL d          17.992  13.310  36.318  0.00  0.00     0.210 HD
ENDBRANCH  49  60
BRANCH  50  62
ATOM     62  OA2 MOL d          17.481  10.215  34.897  0.00  0.00    -0.385 OA
ATOM     63  H3  MOL d          17.182   9.555  34.284  0.00  0.00     0.210 HD
ENDBRANCH  50  62
BRANCH  54  64
ATOM     64  OA7 MOL d          13.953   9.591  33.085  0.00  0.00    -0.265 OA
ATOM     65  H1  MOL d          13.997   8.835  32.512  0.00  0.00     0.247 HD
ENDBRANCH  54  64
BRANCH  56  66
ATOM     66  CA6 MOL d          14.301  14.334  33.958  0.00  0.00     0.038 C 
ATOM     67  H9  MOL d          13.347  14.227  33.421  0.00  0.00     0.077 H 
ATOM     68  H10 MOL d          15.135  14.241  33.246  0.00  0.00     0.077 H 
BRANCH  66  69
ATOM     69  OA6 MOL d          14.349  15.572  34.547  0.00  0.00    -0.399 OA
ATOM     70  H11 MOL d          14.249  15.477  35.487  0.00  0.00     0.209 HD
ENDBRANCH  66  69
ENDBRANCH  56  66
ENDBRANCH  47  48
ENDBRANCH   1  47
TORSDOF 19
ENDMDL
MODEL 7
REMARK VINA RESULT:      -5.2      2.163      3.651
REMARK  19 active torsions:
REMARK  status: ('A' for Active; 'I' for Inactive)
REMARK    1  A    between atoms: NA1_2  and  OA7_3 
REMARK    2  A    between atoms: CA2_4  and  OA2_5 
REMARK    3  A    between atoms: CA3_6  and  OA3_7 
REMARK    4  A    between atoms: CA4_8  and  OA4_9 
REMARK    5  A    between atoms: OA4_9  and  CB1_14 
REMARK    6  A    between atoms: CA5_10  and  CA6_12 
REMARK    7  A    between atoms: CA6_12  and  OA6_13 
REMARK    8  A    between atoms: CB2_15  and  OB2_20 
REMARK    9  A    between atoms: CB3_16  and  OB3_21 
REMARK   10  A    between atoms: CB4_17  and  OB4_22 
REMARK   11  A    between atoms: CB5_18  and  CB6_19 
REMARK   12  A    between atoms: CB6_19  and  OB6_24 
REMARK   13  A    between atoms: OB4_22  and  CD1_25 
REMARK   14  A    between atoms: CD2_26  and  OD2_31 
REMARK   15  A    between atoms: CD3_27  and  OD3_32 
REMARK   16  A    between atoms: CD4_28  and  OD4_33 
REMARK   17  A    between atoms: CD5_29  and  CD6_30 
REMARK   18  A    between atoms: CD6_30  and  OD6_35 
REMARK   19  A    between atoms: OD4_33  and  CD7_36 
ROOT
ATOM      1  CB1 MOL d          12.216  16.688  37.251  0.00  0.00     0.159 C 
ATOM      2  CB2 MOL d          11.136  16.060  36.246  0.00  0.00     0.110 C 
ATOM      3  CB3 MOL d          11.526  14.616  35.760  0.00  0.00     0.092 C 
ATOM      4  CB4 MOL d          12.915  14.727  35.051  0.00  0.00     0.096 C 
ATOM      5  CB5 MOL d          14.002  15.286  36.185  0.00  0.00     0.089 C 
ATOM      6  OB5 MOL d          13.567  16.628  36.638  0.00  0.00    -0.348 OA
ATOM      7  H12 MOL d          11.967  17.742  37.439  0.00  0.00     0.133 H 
ATOM      8  H13 MOL d          11.081  16.703  35.356  0.00  0.00     0.094 H 
ATOM      9  H14 MOL d          11.596  13.928  36.615  0.00  0.00     0.091 H 
ATOM     10  H15 MOL d          12.860  15.424  34.202  0.00  0.00     0.091 H 
ATOM     11  H16 MOL d          14.022  14.588  37.034  0.00  0.00     0.090 H 
ENDROOT
BRANCH   4  12
ATOM     12  OB4 MOL d          13.294  13.439  34.594  0.00  0.00    -0.348 OA
BRANCH  12  13
ATOM     13  CD1 MOL d          13.317  13.381  33.128  0.00  0.00     0.159 C 
ATOM     14  CD2 MOL d          12.794  12.020  32.516  0.00  0.00     0.110 C 
ATOM     15  CD3 MOL d          13.755  10.851  33.008  0.00  0.00     0.092 C 
ATOM     16  H23 MOL d          12.804  12.066  31.417  0.00  0.00     0.094 H 
ATOM     17  CD4 MOL d          15.195  11.134  32.472  0.00  0.00     0.092 C 
ATOM     18  H24 MOL d          13.758  10.803  34.107  0.00  0.00     0.091 H 
ATOM     19  CD5 MOL d          15.705  12.567  33.077  0.00  0.00     0.089 C 
ATOM     20  H25 MOL d          15.176  11.176  31.373  0.00  0.00     0.091 H 
ATOM     21  OD5 MOL d          14.729  13.627  32.655  0.00  0.00    -0.348 OA
ATOM     22  H26 MOL d          15.733  12.509  34.174  0.00  0.00     0.090 H 
ATOM     23  H22 MOL d          12.671  14.187  32.751  0.00  0.00     0.133 H 
BRANCH  14  24
ATOM     24  OD2 MOL d          11.443  11.830  32.982  0.00  0.00    -0.388 OA
ATOM     25  H29 MOL d          11.422  11.906  33.929  0.00  0.00     0.210 HD
ENDBRANCH  14  24
BRANCH  15  26
ATOM     26  OD3 MOL d          13.314   9.629  32.472  0.00  0.00    -0.390 OA
ATOM     27  H30 MOL d          13.496   8.930  33.089  0.00  0.00     0.210 HD
ENDBRANCH  15  26
BRANCH  17  28
ATOM     28  OD4 MOL d          16.122  10.080  32.906  0.00  0.00    -0.385 OA
BRANCH  28  29
ATOM     29  CD7 MOL d          16.263   9.953  34.347  0.00  0.00     0.005 C 
ATOM     30  H32 MOL d          15.644  10.714  34.845  0.00  0.00     0.066 H 
ATOM     31  H33 MOL d          17.317  10.098  34.626  0.00  0.00     0.066 H 
ATOM     32  H34 MOL d          15.935   8.951  34.661  0.00  0.00     0.066 H 
ENDBRANCH  28  29
ENDBRANCH  17  28
BRANCH  19  33
ATOM     33  CD6 MOL d          17.129  12.916  32.552  0.00  0.00     0.043 C 
ATOM     34  H27 MOL d          17.129  12.853  31.453  0.00  0.00     0.078 H 
ATOM     35  H28 MOL d          17.848  12.191  32.961  0.00  0.00     0.078 H 
BRANCH  33  36
ATOM     36  OD6 MOL d          17.527  14.236  32.941  0.00  0.00    -0.398 OA
ATOM     37  H31 MOL d          18.313  14.185  33.473  0.00  0.00     0.209 HD
ENDBRANCH  33  36
ENDBRANCH  19  33
ENDBRANCH  12  13
ENDBRANCH   4  12
BRANCH   3  38
ATOM     38  OB3 MOL d          10.506  14.148  34.842  0.00  0.00    -0.390 OA
ATOM     39  H20 MOL d          10.668  14.513  33.980  0.00  0.00     0.210 HD
ENDBRANCH   3  38
BRANCH   5  40
ATOM     40  CB6 MOL d          15.404  15.438  35.628  0.00  0.00     0.043 C 
ATOM     41  H17 MOL d          15.897  14.455  35.619  0.00  0.00     0.078 H 
ATOM     42  H18 MOL d          15.973  16.127  36.269  0.00  0.00     0.078 H 
BRANCH  40  43
ATOM     43  OB6 MOL d          15.368  15.940  34.336  0.00  0.00    -0.398 OA
ATOM     44  H21 MOL d          15.377  16.890  34.367  0.00  0.00     0.209 HD
ENDBRANCH  40  43
ENDBRANCH   5  40
BRANCH   2  45
ATOM     45  OB2 MOL d           9.850  16.087  36.908  0.00  0.00    -0.388 OA
ATOM     46  H19 MOL d           9.159  16.086  36.256  0.00  0.00     0.210 HD
ENDBRANCH   2  45
BRANCH   1  47
ATOM     47  OA4 MOL d          12.142  15.974  38.477  0.00  0.00    -0.348 OA
BRANCH  47  48
ATOM     48  CA4 MOL d          12.776  16.572  39.476  0.00  0.00     0.090 C 
ATOM     49  CA3 MOL d          11.745  17.425  40.303  0.00  0.00     0.094 C 
ATOM     50  CA2 MOL d          12.307  17.709  41.740  0.00  0.00     0.121 C 
ATOM     51  H4  MOL d          10.822  16.834  40.402  0.00  0.00     0.091 H 
ATOM     52  CA1 MOL d          12.672  16.366  42.401  0.00  0.00     0.159 C 
ATOM     53  H2  MOL d          13.236  18.285  41.617  0.00  0.00     0.099 H 
ATOM     54  NA1 MOL d          12.494  16.236  43.706  0.00  0.00    -0.120 NA
ATOM     55  NA5 MOL d          13.212  15.286  41.636  0.00  0.00    -0.365 N 
ATOM     56  CA5 MOL d          13.357  15.382  40.171  0.00  0.00     0.059 C 
ATOM     57  H8  MOL d          13.505  14.423  42.117  0.00  0.00     0.161 HD
ATOM     58  H7  MOL d          12.887  14.490  39.731  0.00  0.00     0.079 H 
ATOM     59  H6  MOL d          13.576  17.235  39.117  0.00  0.00     0.090 H 
BRANCH  49  60
ATOM     60  OA3 MOL d          11.435  18.569  39.708  0.00  0.00    -0.390 OA
ATOM     61  H5  MOL d          12.232  19.038  39.489  0.00  0.00     0.210 HD
ENDBRANCH  49  60
BRANCH  50  62
ATOM     62  OA2 MOL d          11.501  18.449  42.518  0.00  0.00    -0.385 OA
ATOM     63  H3  MOL d          10.600  18.178  42.387  0.00  0.00     0.210 HD
ENDBRANCH  50  62
BRANCH  54  64
ATOM     64  OA7 MOL d          12.810  15.073  44.253  0.00  0.00    -0.265 OA
ATOM     65  H1  MOL d          13.706  14.853  44.029  0.00  0.00     0.247 HD
ENDBRANCH  54  64
BRANCH  56  66
ATOM     66  CA6 MOL d          14.895  15.352  39.900  0.00  0.00     0.038 C 
ATOM     67  H9  MOL d          15.081  14.864  38.932  0.00  0.00     0.077 H 
ATOM     68  H10 MOL d          15.392  14.782  40.699  0.00  0.00     0.077 H 
BRANCH  66  69
ATOM     69  OA6 MOL d          15.409  16.624  39.869  0.00  0.00    -0.399 OA
ATOM     70  H11 MOL d          16.358  16.581  39.881  0.00  0.00     0.209 HD
ENDBRANCH  66  69
ENDBRANCH  56  66
ENDBRANCH  47  48
ENDBRANCH   1  47
TORSDOF 19
ENDMDL
MODEL 8
REMARK VINA RESULT:      -5.0      2.102      3.094
REMARK  19 active torsions:
REMARK  status: ('A' for Active; 'I' for Inactive)
REMARK    1  A    between atoms: NA1_2  and  OA7_3 
REMARK    2  A    between atoms: CA2_4  and  OA2_5 
REMARK    3  A    between atoms: CA3_6  and  OA3_7 
REMARK    4  A    between atoms: CA4_8  and  OA4_9 
REMARK    5  A    between atoms: OA4_9  and  CB1_14 
REMARK    6  A    between atoms: CA5_10  and  CA6_12 
REMARK    7  A    between atoms: CA6_12  and  OA6_13 
REMARK    8  A    between atoms: CB2_15  and  OB2_20 
REMARK    9  A    between atoms: CB3_16  and  OB3_21 
REMARK   10  A    between atoms: CB4_17  and  OB4_22 
REMARK   11  A    between atoms: CB5_18  and  CB6_19 
REMARK   12  A    between atoms: CB6_19  and  OB6_24 
REMARK   13  A    between atoms: OB4_22  and  CD1_25 
REMARK   14  A    between atoms: CD2_26  and  OD2_31 
REMARK   15  A    between atoms: CD3_27  and  OD3_32 
REMARK   16  A    between atoms: CD4_28  and  OD4_33 
REMARK   17  A    between atoms: CD5_29  and  CD6_30 
REMARK   18  A    between atoms: CD6_30  and  OD6_35 
REMARK   19  A    between atoms: OD4_33  and  CD7_36 
ROOT
ATOM      1  CB1 MOL d          12.732  16.702  38.872  0.00  0.00     0.159 C 
ATOM      2  CB2 MOL d          11.449  16.552  37.924  0.00  0.00     0.110 C 
ATOM      3  CB3 MOL d          11.462  15.218  37.090  0.00  0.00     0.092 C 
ATOM      4  CB4 MOL d          12.767  15.226  36.228  0.00  0.00     0.096 C 
ATOM      5  CB5 MOL d          14.054  15.278  37.286  0.00  0.00     0.089 C 
ATOM      6  OB5 MOL d          13.971  16.532  38.073  0.00  0.00    -0.348 OA
ATOM      7  H12 MOL d          12.740  17.709  39.315  0.00  0.00     0.133 H 
ATOM      8  H13 MOL d          11.451  17.386  37.207  0.00  0.00     0.094 H 
ATOM      9  H14 MOL d          11.462  14.346  37.760  0.00  0.00     0.091 H 
ATOM     10  H15 MOL d          12.785  16.102  35.564  0.00  0.00     0.091 H 
ATOM     11  H16 MOL d          14.002  14.408  37.956  0.00  0.00     0.090 H 
ENDROOT
BRANCH   4  12
ATOM     12  OB4 MOL d          12.808  14.036  35.458  0.00  0.00    -0.348 OA
BRANCH  12  13
ATOM     13  CD1 MOL d          12.588  14.316  34.035  0.00  0.00     0.159 C 
ATOM     14  CD2 MOL d          11.706  13.241  33.282  0.00  0.00     0.110 C 
ATOM     15  CD3 MOL d          12.470  11.847  33.332  0.00  0.00     0.092 C 
ATOM     16  H23 MOL d          11.552  13.538  32.233  0.00  0.00     0.094 H 
ATOM     17  CD4 MOL d          13.835  12.002  32.588  0.00  0.00     0.092 C 
ATOM     18  H24 MOL d          12.637  11.545  34.376  0.00  0.00     0.091 H 
ATOM     19  CD5 MOL d          14.718  13.150  33.350  0.00  0.00     0.089 C 
ATOM     20  H25 MOL d          13.653  12.301  31.545  0.00  0.00     0.091 H 
ATOM     21  OD5 MOL d          13.928  14.427  33.349  0.00  0.00    -0.348 OA
ATOM     22  H26 MOL d          14.906  12.836  34.387  0.00  0.00     0.090 H 
ATOM     23  H22 MOL d          12.070  15.283  33.960  0.00  0.00     0.133 H 
BRANCH  14  24
ATOM     24  OD2 MOL d          10.435  13.175  33.960  0.00  0.00    -0.388 OA
ATOM     25  H29 MOL d           9.980  12.382  33.702  0.00  0.00     0.210 HD
ENDBRANCH  14  24
BRANCH  15  26
ATOM     26  OD3 MOL d          11.709  10.873  32.663  0.00  0.00    -0.390 OA
ATOM     27  H30 MOL d          10.948  11.284  32.268  0.00  0.00     0.210 HD
ENDBRANCH  15  26
BRANCH  17  28
ATOM     28  OD4 MOL d          14.582  10.737  32.612  0.00  0.00    -0.385 OA
BRANCH  28  29
ATOM     29  CD7 MOL d          14.862  10.224  33.942  0.00  0.00     0.005 C 
ATOM     30  H32 MOL d          13.922  10.137  34.507  0.00  0.00     0.066 H 
ATOM     31  H33 MOL d          15.541  10.914  34.466  0.00  0.00     0.066 H 
ATOM     32  H34 MOL d          15.335   9.234  33.862  0.00  0.00     0.066 H 
ENDBRANCH  28  29
ENDBRANCH  17  28
BRANCH  19  33
ATOM     33  CD6 MOL d          16.083  13.370  32.633  0.00  0.00     0.043 C 
ATOM     34  H27 MOL d          15.898  13.554  31.564  0.00  0.00     0.078 H 
ATOM     35  H28 MOL d          16.696  12.464  32.748  0.00  0.00     0.078 H 
BRANCH  33  36
ATOM     36  OD6 MOL d          16.795  14.485  33.181  0.00  0.00    -0.398 OA
ATOM     37  H31 MOL d          17.553  14.171  33.660  0.00  0.00     0.209 HD
ENDBRANCH  33  36
ENDBRANCH  19  33
ENDBRANCH  12  13
ENDBRANCH   4  12
BRANCH   3  38
ATOM     38  OB3 MOL d          10.282  15.187  36.250  0.00  0.00    -0.390 OA
ATOM     39  H20 MOL d           9.723  15.925  36.465  0.00  0.00     0.210 HD
ENDBRANCH   3  38
BRANCH   5  40
ATOM     40  CB6 MOL d          15.395  15.286  36.579  0.00  0.00     0.043 C 
ATOM     41  H17 MOL d          15.706  14.249  36.383  0.00  0.00     0.078 H 
ATOM     42  H18 MOL d          16.140  15.776  37.224  0.00  0.00     0.078 H 
BRANCH  40  43
ATOM     43  OB6 MOL d          15.312  15.972  35.377  0.00  0.00    -0.398 OA
ATOM     44  H21 MOL d          14.402  16.037  35.113  0.00  0.00     0.209 HD
ENDBRANCH  40  43
ENDBRANCH   5  40
BRANCH   2  45
ATOM     45  OB2 MOL d          10.270  16.667  38.754  0.00  0.00    -0.388 OA
ATOM     46  H19 MOL d          10.291  15.997  39.427  0.00  0.00     0.210 HD
ENDBRANCH   2  45
BRANCH   1  47
ATOM     47  OA4 MOL d          12.621  15.745  39.916  0.00  0.00    -0.348 OA
BRANCH  47  48
ATOM     48  CA4 MOL d          12.933  16.227  41.111  0.00  0.00     0.090 C 
ATOM     49  CA3 MOL d          12.845  17.796  41.073  0.00  0.00     0.094 C 
ATOM     50  CA2 MOL d          12.688  18.366  42.527  0.00  0.00     0.121 C 
ATOM     51  H4  MOL d          11.949  18.069  40.494  0.00  0.00     0.091 H 
ATOM     52  CA1 MOL d          11.472  17.692  43.190  0.00  0.00     0.159 C 
ATOM     53  H2  MOL d          13.584  18.067  43.090  0.00  0.00     0.099 H 
ATOM     54  NA1 MOL d          10.735  18.406  44.027  0.00  0.00    -0.120 NA
ATOM     55  NA5 MOL d          11.149  16.324  42.932  0.00  0.00    -0.365 N 
ATOM     56  CA5 MOL d          11.914  15.528  41.954  0.00  0.00     0.059 C 
ATOM     57  H8  MOL d          10.367  15.885  43.440  0.00  0.00     0.161 HD
ATOM     58  H7  MOL d          11.192  15.063  41.266  0.00  0.00     0.079 H 
ATOM     59  H6  MOL d          13.949  15.937  41.418  0.00  0.00     0.090 H 
BRANCH  49  60
ATOM     60  OA3 MOL d          13.896  18.353  40.484  0.00  0.00    -0.390 OA
ATOM     61  H5  MOL d          14.129  17.849  39.712  0.00  0.00     0.210 HD
ENDBRANCH  49  60
BRANCH  50  62
ATOM     62  OA2 MOL d          12.622  19.705  42.598  0.00  0.00    -0.385 OA
ATOM     63  H3  MOL d          11.831  20.005  42.165  0.00  0.00     0.210 HD
ENDBRANCH  50  62
BRANCH  54  64
ATOM     64  OA7 MOL d           9.692  17.809  44.583  0.00  0.00    -0.265 OA
ATOM     65  H1  MOL d           9.892  16.892  44.726  0.00  0.00     0.247 HD
ENDBRANCH  54  64
BRANCH  56  66
ATOM     66  CA6 MOL d          12.634  14.419  42.786  0.00  0.00     0.038 C 
ATOM     67  H9  MOL d          13.199  13.766  42.104  0.00  0.00     0.077 H 
ATOM     68  H10 MOL d          11.881  13.825  43.323  0.00  0.00     0.077 H 
BRANCH  66  69
ATOM     69  OA6 MOL d          13.498  14.977  43.694  0.00  0.00    -0.399 OA
ATOM     70  H11 MOL d          14.191  15.433  43.230  0.00  0.00     0.209 HD
ENDBRANCH  66  69
ENDBRANCH  56  66
ENDBRANCH  47  48
ENDBRANCH   1  47
TORSDOF 19
ENDMDL
MODEL 9
REMARK VINA RESULT:      -5.0      3.409      9.532
REMARK  19 active torsions:
REMARK  status: ('A' for Active; 'I' for Inactive)
REMARK    1  A    between atoms: NA1_2  and  OA7_3 
REMARK    2  A    between atoms: CA2_4  and  OA2_5 
REMARK    3  A    between atoms: CA3_6  and  OA3_7 
REMARK    4  A    between atoms: CA4_8  and  OA4_9 
REMARK    5  A    between atoms: OA4_9  and  CB1_14 
REMARK    6  A    between atoms: CA5_10  and  CA6_12 
REMARK    7  A    between atoms: CA6_12  and  OA6_13 
REMARK    8  A    between atoms: CB2_15  and  OB2_20 
REMARK    9  A    between atoms: CB3_16  and  OB3_21 
REMARK   10  A    between atoms: CB4_17  and  OB4_22 
REMARK   11  A    between atoms: CB5_18  and  CB6_19 
REMARK   12  A    between atoms: CB6_19  and  OB6_24 
REMARK   13  A    between atoms: OB4_22  and  CD1_25 
REMARK   14  A    between atoms: CD2_26  and  OD2_31 
REMARK   15  A    between atoms: CD3_27  and  OD3_32 
REMARK   16  A    between atoms: CD4_28  and  OD4_33 
REMARK   17  A    between atoms: CD5_29  and  CD6_30 
REMARK   18  A    between atoms: CD6_30  and  OD6_35 
REMARK   19  A    between atoms: OD4_33  and  CD7_36 
ROOT
ATOM      1  CB1 MOL d          15.119  14.930  36.109  0.00  0.00     0.159 C 
ATOM      2  CB2 MOL d          15.882  14.829  37.515  0.00  0.00     0.110 C 
ATOM      3  CB3 MOL d          14.913  14.502  38.710  0.00  0.00     0.092 C 
ATOM      4  CB4 MOL d          13.844  15.641  38.763  0.00  0.00     0.096 C 
ATOM      5  CB5 MOL d          13.026  15.614  37.310  0.00  0.00     0.089 C 
ATOM      6  OB5 MOL d          13.990  15.888  36.218  0.00  0.00    -0.348 OA
ATOM      7  H12 MOL d          15.816  15.301  35.344  0.00  0.00     0.133 H 
ATOM      8  H13 MOL d          16.346  15.804  37.726  0.00  0.00     0.094 H 
ATOM      9  H14 MOL d          14.420  13.532  38.550  0.00  0.00     0.091 H 
ATOM     10  H15 MOL d          14.328  16.618  38.908  0.00  0.00     0.091 H 
ATOM     11  H16 MOL d          12.573  14.622  37.174  0.00  0.00     0.090 H 
ENDROOT
BRANCH   4  12
ATOM     12  OB4 MOL d          12.955  15.379  39.836  0.00  0.00    -0.348 OA
BRANCH  12  13
ATOM     13  CD1 MOL d          12.957  16.478  40.808  0.00  0.00     0.159 C 
ATOM     14  CD2 MOL d          13.097  16.022  42.316  0.00  0.00     0.110 C 
ATOM     15  CD3 MOL d          11.837  15.125  42.684  0.00  0.00     0.092 C 
ATOM     16  H23 MOL d          13.130  16.899  42.979  0.00  0.00     0.094 H 
ATOM     17  CD4 MOL d          10.547  15.992  42.529  0.00  0.00     0.092 C 
ATOM     18  H24 MOL d          11.790  14.249  42.020  0.00  0.00     0.091 H 
ATOM     19  CD5 MOL d          10.439  16.496  40.975  0.00  0.00     0.089 C 
ATOM     20  H25 MOL d          10.607  16.862  43.201  0.00  0.00     0.091 H 
ATOM     21  OD5 MOL d          11.682  17.271  40.646  0.00  0.00    -0.348 OA
ATOM     22  H26 MOL d          10.366  15.620  40.314  0.00  0.00     0.090 H 
ATOM     23  H22 MOL d          13.811  17.130  40.575  0.00  0.00     0.133 H 
BRANCH  14  24
ATOM     24  OD2 MOL d          14.329  15.281  42.427  0.00  0.00    -0.388 OA
ATOM     25  H29 MOL d          14.676  15.112  41.559  0.00  0.00     0.210 HD
ENDBRANCH  14  24
BRANCH  15  26
ATOM     26  OD3 MOL d          11.935  14.711  44.023  0.00  0.00    -0.390 OA
ATOM     27  H30 MOL d          11.638  15.411  44.593  0.00  0.00     0.210 HD
ENDBRANCH  15  26
BRANCH  17  28
ATOM     28  OD4 MOL d           9.352  15.202  42.855  0.00  0.00    -0.385 OA
BRANCH  28  29
ATOM     29  CD7 MOL d           8.733  15.538  44.126  0.00  0.00     0.005 C 
ATOM     30  H32 MOL d           7.897  14.849  44.320  0.00  0.00     0.066 H 
ATOM     31  H33 MOL d           8.355  16.571  44.088  0.00  0.00     0.066 H 
ATOM     32  H34 MOL d           9.477  15.448  44.932  0.00  0.00     0.066 H 
ENDBRANCH  28  29
ENDBRANCH  17  28
BRANCH  19  33
ATOM     33  CD6 MOL d           9.183  17.392  40.767  0.00  0.00     0.043 C 
ATOM     34  H27 MOL d           8.442  16.836  40.174  0.00  0.00     0.078 H 
ATOM     35  H28 MOL d           9.480  18.301  40.223  0.00  0.00     0.078 H 
BRANCH  33  36
ATOM     36  OD6 MOL d           8.591  17.770  42.015  0.00  0.00    -0.398 OA
ATOM     37  H31 MOL d           7.654  17.616  41.980  0.00  0.00     0.209 HD
ENDBRANCH  33  36
ENDBRANCH  19  33
ENDBRANCH  12  13
ENDBRANCH   4  12
BRANCH   3  38
ATOM     38  OB3 MOL d          15.689  14.457  39.933  0.00  0.00    -0.390 OA
ATOM     39  H20 MOL d          15.803  15.339  40.268  0.00  0.00     0.210 HD
ENDBRANCH   3  38
BRANCH   5  40
ATOM     40  CB6 MOL d          11.947  16.675  37.225  0.00  0.00     0.043 C 
ATOM     41  H17 MOL d          11.020  16.283  37.669  0.00  0.00     0.078 H 
ATOM     42  H18 MOL d          11.769  16.925  36.168  0.00  0.00     0.078 H 
BRANCH  40  43
ATOM     43  OB6 MOL d          12.329  17.821  37.906  0.00  0.00    -0.398 OA
ATOM     44  H21 MOL d          12.676  17.581  38.758  0.00  0.00     0.209 HD
ENDBRANCH  40  43
ENDBRANCH   5  40
BRANCH   2  45
ATOM     45  OB2 MOL d          16.934  13.845  37.377  0.00  0.00    -0.388 OA
ATOM     46  H19 MOL d          17.410  14.003  36.571  0.00  0.00     0.210 HD
ENDBRANCH   2  45
BRANCH   1  47
ATOM     47  OA4 MOL d          14.694  13.625  35.746  0.00  0.00    -0.348 OA
BRANCH  47  48
ATOM     48  CA4 MOL d          15.087  13.259  34.533  0.00  0.00     0.090 C 
ATOM     49  CA3 MOL d          16.280  14.176  34.080  0.00  0.00     0.094 C 
ATOM     50  CA2 MOL d          17.097  13.478  32.936  0.00  0.00     0.121 C 
ATOM     51  H4  MOL d          16.945  14.316  34.946  0.00  0.00     0.091 H 
ATOM     52  CA1 MOL d          17.537  12.085  33.426  0.00  0.00     0.159 C 
ATOM     53  H2  MOL d          16.410  13.332  32.090  0.00  0.00     0.099 H 
ATOM     54  NA1 MOL d          18.710  11.618  33.028  0.00  0.00    -0.120 NA
ATOM     55  NA5 MOL d          16.697  11.297  34.273  0.00  0.00    -0.365 N 
ATOM     56  CA5 MOL d          15.417  11.821  34.784  0.00  0.00     0.059 C 
ATOM     57  H8  MOL d          16.992  10.344  34.531  0.00  0.00     0.161 HD
ATOM     58  H7  MOL d          15.408  11.674  35.874  0.00  0.00     0.079 H 
ATOM     59  H6  MOL d          14.276  13.343  33.796  0.00  0.00     0.090 H 
BRANCH  49  60
ATOM     60  OA3 MOL d          15.879  15.375  33.676  0.00  0.00    -0.390 OA
ATOM     61  H5  MOL d          16.403  16.044  34.102  0.00  0.00     0.210 HD
ENDBRANCH  49  60
BRANCH  50  62
ATOM     62  OA2 MOL d          18.131  14.196  32.470  0.00  0.00    -0.385 OA
ATOM     63  H3  MOL d          18.817  14.223  33.125  0.00  0.00     0.210 HD
ENDBRANCH  50  62
BRANCH  54  64
ATOM     64  OA7 MOL d          19.071  10.421  33.464  0.00  0.00    -0.265 OA
ATOM     65  H1  MOL d          19.943  10.471  33.837  0.00  0.00     0.247 HD
ENDBRANCH  54  64
BRANCH  56  66
ATOM     66  CA6 MOL d          14.309  10.937  34.127  0.00  0.00     0.038 C 
ATOM     67  H9  MOL d          13.591  11.587  33.606  0.00  0.00     0.077 H 
ATOM     68  H10 MOL d          13.787  10.369  34.912  0.00  0.00     0.077 H 
BRANCH  66  69
ATOM     69  OA6 MOL d          14.857  10.059  33.227  0.00  0.00    -0.399 OA
ATOM     70  H11 MOL d          15.525  10.505  32.718  0.00  0.00     0.209 HD
ENDBRANCH  66  69
ENDBRANCH  56  66
ENDBRANCH  47  48
ENDBRANCH   1  47
TORSDOF 19
ENDMDL
MODEL 10
REMARK VINA RESULT:      -5.0      3.185      9.278
REMARK  19 active torsions:
REMARK  status: ('A' for Active; 'I' for Inactive)
REMARK    1  A    between atoms: NA1_2  and  OA7_3 
REMARK    2  A    between atoms: CA2_4  and  OA2_5 
REMARK    3  A    between atoms: CA3_6  and  OA3_7 
REMARK    4  A    between atoms: CA4_8  and  OA4_9 
REMARK    5  A    between atoms: OA4_9  and  CB1_14 
REMARK    6  A    between atoms: CA5_10  and  CA6_12 
REMARK    7  A    between atoms: CA6_12  and  OA6_13 
REMARK    8  A    between atoms: CB2_15  and  OB2_20 
REMARK    9  A    between atoms: CB3_16  and  OB3_21 
REMARK   10  A    between atoms: CB4_17  and  OB4_22 
REMARK   11  A    between atoms: CB5_18  and  CB6_19 
REMARK   12  A    between atoms: CB6_19  and  OB6_24 
REMARK   13  A    between atoms: OB4_22  and  CD1_25 
REMARK   14  A    between atoms: CD2_26  and  OD2_31 
REMARK   15  A    between atoms: CD3_27  and  OD3_32 
REMARK   16  A    between atoms: CD4_28  and  OD4_33 
REMARK   17  A    between atoms: CD5_29  and  CD6_30 
REMARK   18  A    between atoms: CD6_30  and  OD6_35 
REMARK   19  A    between atoms: OD4_33  and  CD7_36 
ROOT
ATOM      1  CB1 MOL d          14.614  14.744  36.236  0.00  0.00     0.159 C 
ATOM      2  CB2 MOL d          15.648  15.036  37.425  0.00  0.00     0.110 C 
ATOM      3  CB3 MOL d          15.101  14.587  38.830  0.00  0.00     0.092 C 
ATOM      4  CB4 MOL d          13.769  15.367  39.077  0.00  0.00     0.096 C 
ATOM      5  CB5 MOL d          12.713  14.933  37.861  0.00  0.00     0.089 C 
ATOM      6  OB5 MOL d          13.294  15.340  36.560  0.00  0.00    -0.348 OA
ATOM      7  H12 MOL d          14.986  15.206  35.310  0.00  0.00     0.133 H 
ATOM      8  H13 MOL d          15.822  16.120  37.472  0.00  0.00     0.094 H 
ATOM      9  H14 MOL d          14.908  13.504  38.840  0.00  0.00     0.091 H 
ATOM     10  H15 MOL d          13.947  16.452  39.055  0.00  0.00     0.091 H 
ATOM     11  H16 MOL d          12.569  13.843  37.886  0.00  0.00     0.090 H 
ENDROOT
BRANCH   4  12
ATOM     12  OB4 MOL d          13.249  14.990  40.341  0.00  0.00    -0.348 OA
BRANCH  12  13
ATOM     13  CD1 MOL d          13.262  16.117  41.279  0.00  0.00     0.159 C 
ATOM     14  CD2 MOL d          13.171  15.706  42.803  0.00  0.00     0.110 C 
ATOM     15  CD3 MOL d          11.781  14.968  43.037  0.00  0.00     0.092 C 
ATOM     16  H23 MOL d          13.226  16.598  43.445  0.00  0.00     0.094 H 
ATOM     17  CD4 MOL d          10.627  15.967  42.706  0.00  0.00     0.092 C 
ATOM     18  H24 MOL d          11.712  14.079  42.393  0.00  0.00     0.091 H 
ATOM     19  CD5 MOL d          10.761  16.421  41.138  0.00  0.00     0.089 C 
ATOM     20  H25 MOL d          10.706  16.850  43.358  0.00  0.00     0.091 H 
ATOM     21  OD5 MOL d          12.115  17.040  40.944  0.00  0.00    -0.348 OA
ATOM     22  H26 MOL d          10.667  15.535  40.494  0.00  0.00     0.090 H 
ATOM     23  H22 MOL d          14.208  16.661  41.137  0.00  0.00     0.133 H 
BRANCH  14  24
ATOM     24  OD2 MOL d          14.287  14.837  43.082  0.00  0.00    -0.388 OA
ATOM     25  H29 MOL d          14.821  15.219  43.769  0.00  0.00     0.210 HD
ENDBRANCH  14  24
BRANCH  15  26
ATOM     26  OD3 MOL d          11.672  14.597  44.388  0.00  0.00    -0.390 OA
ATOM     27  H30 MOL d          12.080  13.748  44.515  0.00  0.00     0.210 HD
ENDBRANCH  15  26
BRANCH  17  28
ATOM     28  OD4 MOL d           9.319  15.328  42.903  0.00  0.00    -0.385 OA
BRANCH  28  29
ATOM     29  CD7 MOL d           8.609  15.757  44.095  0.00  0.00     0.005 C 
ATOM     30  H32 MOL d           8.252  16.789  43.958  0.00  0.00     0.066 H 
ATOM     31  H33 MOL d           9.287  15.716  44.961  0.00  0.00     0.066 H 
ATOM     32  H34 MOL d           7.750  15.092  44.270  0.00  0.00     0.066 H 
ENDBRANCH  28  29
ENDBRANCH  17  28
BRANCH  19  33
ATOM     33  CD6 MOL d           9.651  17.443  40.758  0.00  0.00     0.043 C 
ATOM     34  H27 MOL d          10.125  18.387  40.449  0.00  0.00     0.078 H 
ATOM     35  H28 MOL d           9.015  17.623  41.637  0.00  0.00     0.078 H 
BRANCH  33  36
ATOM     36  OD6 MOL d           8.834  16.961  39.685  0.00  0.00    -0.398 OA
ATOM     37  H31 MOL d           8.188  16.355  40.028  0.00  0.00     0.209 HD
ENDBRANCH  33  36
ENDBRANCH  19  33
ENDBRANCH  12  13
ENDBRANCH   4  12
BRANCH   3  38
ATOM     38  OB3 MOL d          16.092  14.914  39.836  0.00  0.00    -0.390 OA
ATOM     39  H20 MOL d          16.812  14.297  39.782  0.00  0.00     0.210 HD
ENDBRANCH   3  38
BRANCH   5  40
ATOM     40  CB6 MOL d          11.367  15.619  37.980  0.00  0.00     0.043 C 
ATOM     41  H17 MOL d          10.907  15.348  38.942  0.00  0.00     0.078 H 
ATOM     42  H18 MOL d          10.717  15.285  37.157  0.00  0.00     0.078 H 
BRANCH  40  43
ATOM     43  OB6 MOL d          11.510  16.997  37.916  0.00  0.00    -0.398 OA
ATOM     44  H21 MOL d          11.360  17.370  38.777  0.00  0.00     0.209 HD
ENDBRANCH  40  43
ENDBRANCH   5  40
BRANCH   2  45
ATOM     45  OB2 MOL d          16.899  14.388  37.092  0.00  0.00    -0.388 OA
ATOM     46  H19 MOL d          17.593  15.036  37.066  0.00  0.00     0.210 HD
ENDBRANCH   2  45
BRANCH   1  47
ATOM     47  OA4 MOL d          14.546  13.338  36.049  0.00  0.00    -0.348 OA
BRANCH  47  48
ATOM     48  CA4 MOL d          14.613  12.969  34.777  0.00  0.00     0.090 C 
ATOM     49  CA3 MOL d          15.375  11.598  34.677  0.00  0.00     0.094 C 
ATOM     50  CA2 MOL d          15.031  10.884  33.322  0.00  0.00     0.121 C 
ATOM     51  H4  MOL d          15.029  10.959  35.504  0.00  0.00     0.091 H 
ATOM     52  CA1 MOL d          13.500  10.752  33.211  0.00  0.00     0.159 C 
ATOM     53  H2  MOL d          15.370  11.546  32.512  0.00  0.00     0.099 H 
ATOM     54  NA1 MOL d          13.001   9.677  32.620  0.00  0.00    -0.120 NA
ATOM     55  NA5 MOL d          12.629  11.770  33.710  0.00  0.00    -0.365 N 
ATOM     56  CA5 MOL d          13.157  12.943  34.431  0.00  0.00     0.059 C 
ATOM     57  H8  MOL d          11.614  11.682  33.563  0.00  0.00     0.161 HD
ATOM     58  H7  MOL d          12.600  13.032  35.376  0.00  0.00     0.079 H 
ATOM     59  H6  MOL d          15.140  13.713  34.161  0.00  0.00     0.090 H 
BRANCH  49  60
ATOM     60  OA3 MOL d          16.690  11.734  34.791  0.00  0.00    -0.390 OA
ATOM     61  H5  MOL d          16.895  12.121  35.635  0.00  0.00     0.210 HD
ENDBRANCH  49  60
BRANCH  50  62
ATOM     62  OA2 MOL d          15.651   9.707  33.138  0.00  0.00    -0.385 OA
ATOM     63  H3  MOL d          16.545   9.862  32.858  0.00  0.00     0.210 HD
ENDBRANCH  50  62
BRANCH  54  64
ATOM     64  OA7 MOL d          11.684   9.582  32.538  0.00  0.00    -0.265 OA
ATOM     65  H1  MOL d          11.397   8.787  32.972  0.00  0.00     0.247 HD
ENDBRANCH  54  64
BRANCH  56  66
ATOM     66  CA6 MOL d          12.843  14.172  33.520  0.00  0.00     0.038 C 
ATOM     67  H9  MOL d          12.324  14.939  34.114  0.00  0.00     0.077 H 
ATOM     68  H10 MOL d          12.195  13.850  32.691  0.00  0.00     0.077 H 
BRANCH  66  69
ATOM     69  OA6 MOL d          13.997  14.706  33.006  0.00  0.00    -0.399 OA
ATOM     70  H11 MOL d          14.050  14.510  32.078  0.00  0.00     0.209 HD
ENDBRANCH  66  69
ENDBRANCH  56  66
ENDBRANCH  47  48
ENDBRANCH   1  47
TORSDOF 19
ENDMDL
