MODEL 1
REMARK VINA RESULT:     -11.2      0.000      0.000
REMARK  1 active torsions:
REMARK  status: ('A' for Active; 'I' for Inactive)
REMARK    1  A    between atoms: CAI_24  and  OAJ_25 
ROOT
ATOM      1  CAV SY9 d         -42.699   7.206 -16.977  0.00  0.00     0.118 C 
ATOM      2  CAU SY9 d         -41.793   6.842 -18.159  0.00  0.00    -0.030 C 
ATOM      3  CAT SY9 d         -40.587   6.059 -17.663  0.00  0.00    -0.021 C 
ATOM      4  CAN SY9 d         -41.070   4.728 -17.084  0.00  0.00    -0.001 C 
ATOM      5  CAK SY9 d         -42.037   4.914 -15.920  0.00  0.00     0.034 C 
ATOM      6  NAH SY9 d         -42.815   3.667 -15.867  0.00  0.00    -0.347 N 
ATOM      7  CAA SY9 d         -44.168   3.884 -16.114  0.00  0.00     0.040 A 
ATOM      8  CAF SY9 d         -45.186   2.948 -16.299  0.00  0.00    -0.057 A 
ATOM      9  CAE SY9 d         -46.469   3.358 -16.623  0.00  0.00    -0.081 A 
ATOM     10  CAD SY9 d         -46.716   4.713 -16.802  0.00  0.00    -0.082 A 
ATOM     11  CAC SY9 d         -45.694   5.648 -16.651  0.00  0.00    -0.074 A 
ATOM     12  CAB SY9 d         -44.404   5.238 -16.351  0.00  0.00    -0.019 A 
ATOM     13  CAG SY9 d         -43.104   6.017 -16.064  0.00  0.00     0.040 C 
ATOM     14  CAW SY9 d         -43.331   6.708 -14.721  0.00  0.00    -0.027 C 
ATOM     15  CAX SY9 d         -42.101   7.603 -14.674  0.00  0.00     0.085 C 
ATOM     16  NAY SY9 d         -41.988   8.150 -16.054  0.00  0.00    -0.062 N 
ATOM     17  CAS SY9 d         -40.545   8.292 -16.324  0.00  0.00     0.104 C 
ATOM     18  CAR SY9 d         -39.957   6.914 -16.603  0.00  0.00    -0.051 C 
ATOM     19  CAQ SY9 d         -38.882   6.570 -15.802  0.00  0.00    -0.076 C 
ATOM     20  CAP SY9 d         -38.260   5.330 -15.925  0.00  0.00     0.035 C 
ATOM     21  OAO SY9 d         -39.038   4.139 -15.657  0.00  0.00    -0.382 OA
ATOM     22  CAM SY9 d         -39.971   3.727 -16.652  0.00  0.00     0.049 C 
ATOM     23  CAL SY9 d         -40.575   2.494 -15.891  0.00  0.00     0.000 C 
ATOM     24  CAI SY9 d         -42.105   2.475 -15.936  0.00  0.00     0.105 C 
ATOM     25  H1  SY9 d         -43.608   7.679 -17.379  0.00  0.00     0.086 H 
ATOM     26  H2  SY9 d         -41.452   7.763 -18.655  0.00  0.00     0.037 H 
ATOM     27  H3  SY9 d         -42.356   6.228 -18.876  0.00  0.00     0.037 H 
ATOM     28  H4  SY9 d         -39.874   5.875 -18.480  0.00  0.00     0.048 H 
ATOM     29  H5  SY9 d         -41.631   4.240 -17.896  0.00  0.00     0.048 H 
ATOM     30  H6  SY9 d         -41.463   5.080 -14.996  0.00  0.00     0.075 H 
ATOM     31  H7  SY9 d         -44.972   1.891 -16.189  0.00  0.00     0.086 H 
ATOM     32  H8  SY9 d         -47.268   2.633 -16.736  0.00  0.00     0.083 H 
ATOM     33  H9  SY9 d         -47.714   5.047 -17.063  0.00  0.00     0.083 H 
ATOM     34  H10 SY9 d         -45.910   6.703 -16.769  0.00  0.00     0.084 H 
ATOM     35  H11 SY9 d         -43.345   5.990 -13.889  0.00  0.00     0.037 H 
ATOM     36  H12 SY9 d         -44.263   7.293 -14.716  0.00  0.00     0.037 H 
ATOM     37  H13 SY9 d         -41.205   7.020 -14.412  0.00  0.00     0.076 H 
ATOM     38  H14 SY9 d         -42.237   8.414 -13.944  0.00  0.00     0.076 H 
ATOM     39  H15 SY9 d         -42.427   9.056 -16.112  0.00  0.00     0.280 HD
ATOM     40  H16 SY9 d         -40.047   8.736 -15.449  0.00  0.00     0.083 H 
ATOM     41  H17 SY9 d         -40.396   8.941 -17.200  0.00  0.00     0.083 H 
ATOM     42  H18 SY9 d         -38.516   7.281 -15.063  0.00  0.00     0.080 H 
ATOM     43  H19 SY9 d         -37.408   5.325 -15.231  0.00  0.00     0.080 H 
ATOM     44  H20 SY9 d         -37.892   5.253 -16.958  0.00  0.00     0.080 H 
ATOM     45  H21 SY9 d         -39.436   3.414 -17.562  0.00  0.00     0.084 H 
ATOM     46  H22 SY9 d         -40.253   2.535 -14.841  0.00  0.00     0.043 H 
ATOM     47  H23 SY9 d         -40.197   1.572 -16.356  0.00  0.00     0.043 H 
ATOM     48  H24 SY9 d         -42.099   2.502 -17.035  0.00  0.00     0.117 H 
ENDROOT
BRANCH  24  49
ATOM     49  OAJ SY9 d         -42.797   1.302 -15.933  0.00  0.00    -0.377 OA
ATOM     50  H25 SY9 d         -42.186   0.575 -15.984  0.00  0.00     0.212 HD
ENDBRANCH  24  49
TORSDOF 1
ENDMDL
