MODEL 1
REMARK VINA RESULT:     -11.2      0.000      0.000
REMARK  1 active torsions:
REMARK  status: ('A' for Active; 'I' for Inactive)
REMARK    1  A    between atoms: CAI_24  and  OAJ_25 
ROOT
ATOM      1  CAV SY9 d         -42.670   7.234 -16.960  0.00  0.00     0.118 C 
ATOM      2  CAU SY9 d         -41.766   6.863 -18.142  0.00  0.00    -0.030 C 
ATOM      3  CAT SY9 d         -40.569   6.067 -17.648  0.00  0.00    -0.021 C 
ATOM      4  CAN SY9 d         -41.067   4.739 -17.073  0.00  0.00    -0.001 C 
ATOM      5  CAK SY9 d         -42.032   4.932 -15.909  0.00  0.00     0.034 C 
ATOM      6  NAH SY9 d         -42.823   3.693 -15.859  0.00  0.00    -0.347 N 
ATOM      7  CAA SY9 d         -44.174   3.926 -16.106  0.00  0.00     0.040 A 
ATOM      8  CAF SY9 d         -45.202   3.000 -16.294  0.00  0.00    -0.057 A 
ATOM      9  CAE SY9 d         -46.480   3.425 -16.618  0.00  0.00    -0.081 A 
ATOM     10  CAD SY9 d         -46.713   4.783 -16.794  0.00  0.00    -0.082 A 
ATOM     11  CAC SY9 d         -45.681   5.706 -16.639  0.00  0.00    -0.074 A 
ATOM     12  CAB SY9 d         -44.395   5.282 -16.340  0.00  0.00    -0.019 A 
ATOM     13  CAG SY9 d         -43.087   6.046 -16.050  0.00  0.00     0.040 C 
ATOM     14  CAW SY9 d         -43.308   6.737 -14.706  0.00  0.00    -0.027 C 
ATOM     15  CAX SY9 d         -42.068   7.618 -14.656  0.00  0.00     0.085 C 
ATOM     16  NAY SY9 d         -41.949   8.168 -16.034  0.00  0.00    -0.062 N 
ATOM     17  CAS SY9 d         -40.504   8.295 -16.304  0.00  0.00     0.104 C 
ATOM     18  CAR SY9 d         -39.931   6.911 -16.585  0.00  0.00    -0.051 C 
ATOM     19  CAQ SY9 d         -38.859   6.554 -15.785  0.00  0.00    -0.076 C 
ATOM     20  CAP SY9 d         -38.251   5.308 -15.911  0.00  0.00     0.035 C 
ATOM     21  OAO SY9 d         -39.041   4.124 -15.646  0.00  0.00    -0.382 OA
ATOM     22  CAM SY9 d         -39.979   3.725 -16.643  0.00  0.00     0.049 C 
ATOM     23  CAL SY9 d         -40.596   2.497 -15.886  0.00  0.00     0.000 C 
ATOM     24  CAI SY9 d         -42.126   2.494 -15.931  0.00  0.00     0.105 C 
ATOM     25  H1  SY9 d         -43.573   7.718 -17.361  0.00  0.00     0.086 H 
ATOM     26  H2  SY9 d         -41.416   7.782 -18.636  0.00  0.00     0.037 H 
ATOM     27  H3  SY9 d         -42.336   6.257 -18.862  0.00  0.00     0.037 H 
ATOM     28  H4  SY9 d         -39.858   5.876 -18.465  0.00  0.00     0.048 H 
ATOM     29  H5  SY9 d         -41.632   4.259 -17.886  0.00  0.00     0.048 H 
ATOM     30  H6  SY9 d         -41.457   5.089 -14.984  0.00  0.00     0.075 H 
ATOM     31  H7  SY9 d         -44.999   1.941 -16.187  0.00  0.00     0.086 H 
ATOM     32  H8  SY9 d         -47.286   2.709 -16.733  0.00  0.00     0.083 H 
ATOM     33  H9  SY9 d         -47.707   5.128 -17.053  0.00  0.00     0.083 H 
ATOM     34  H10 SY9 d         -45.885   6.765 -16.754  0.00  0.00     0.084 H 
ATOM     35  H11 SY9 d         -43.329   6.016 -13.875  0.00  0.00     0.037 H 
ATOM     36  H12 SY9 d         -44.233   7.332 -14.699  0.00  0.00     0.037 H 
ATOM     37  H13 SY9 d         -41.178   7.026 -14.395  0.00  0.00     0.076 H 
ATOM     38  H14 SY9 d         -42.196   8.429 -13.924  0.00  0.00     0.076 H 
ATOM     39  H15 SY9 d         -42.378   9.078 -16.090  0.00  0.00     0.280 HD
ATOM     40  H16 SY9 d         -40.002   8.731 -15.427  0.00  0.00     0.083 H 
ATOM     41  H17 SY9 d         -40.347   8.945 -17.178  0.00  0.00     0.083 H 
ATOM     42  H18 SY9 d         -38.486   7.260 -15.044  0.00  0.00     0.080 H 
ATOM     43  H19 SY9 d         -37.399   5.292 -15.216  0.00  0.00     0.080 H 
ATOM     44  H20 SY9 d         -37.883   5.230 -16.944  0.00  0.00     0.080 H 
ATOM     45  H21 SY9 d         -39.447   3.408 -17.553  0.00  0.00     0.084 H 
ATOM     46  H22 SY9 d         -40.273   2.532 -14.835  0.00  0.00     0.043 H 
ATOM     47  H23 SY9 d         -40.227   1.572 -16.352  0.00  0.00     0.043 H 
ATOM     48  H24 SY9 d         -42.119   2.524 -17.030  0.00  0.00     0.117 H 
ENDROOT
BRANCH  24  49
ATOM     49  OAJ SY9 d         -42.830   1.328 -15.931  0.00  0.00    -0.377 OA
ATOM     50  H25 SY9 d         -43.761   1.521 -15.934  0.00  0.00     0.212 HD
ENDBRANCH  24  49
TORSDOF 1
ENDMDL
MODEL 2
REMARK VINA RESULT:     -10.7      1.298      4.827
REMARK  1 active torsions:
REMARK  status: ('A' for Active; 'I' for Inactive)
REMARK    1  A    between atoms: CAI_24  and  OAJ_25 
ROOT
ATOM      1  CAV SY9 d         -41.514   7.275 -16.015  0.00  0.00     0.118 C 
ATOM      2  CAU SY9 d         -42.357   7.147 -14.741  0.00  0.00    -0.030 C 
ATOM      3  CAT SY9 d         -43.497   6.166 -14.971  0.00  0.00    -0.021 C 
ATOM      4  CAN SY9 d         -42.905   4.777 -15.220  0.00  0.00    -0.001 C 
ATOM      5  CAK SY9 d         -41.986   4.743 -16.435  0.00  0.00     0.034 C 
ATOM      6  NAH SY9 d         -41.097   3.592 -16.210  0.00  0.00    -0.347 N 
ATOM      7  CAA SY9 d         -39.765   3.977 -16.086  0.00  0.00     0.040 A 
ATOM      8  CAF SY9 d         -38.661   3.206 -15.718  0.00  0.00    -0.057 A 
ATOM      9  CAE SY9 d         -37.415   3.791 -15.564  0.00  0.00    -0.081 A 
ATOM     10  CAD SY9 d         -37.290   5.163 -15.740  0.00  0.00    -0.082 A 
ATOM     11  CAC SY9 d         -38.396   5.940 -16.075  0.00  0.00    -0.074 A 
ATOM     12  CAB SY9 d         -39.650   5.361 -16.205  0.00  0.00    -0.019 A 
ATOM     13  CAG SY9 d         -41.022   5.931 -16.619  0.00  0.00     0.040 C 
ATOM     14  CAW SY9 d         -40.889   6.277 -18.101  0.00  0.00    -0.027 C 
ATOM     15  CAX SY9 d         -42.198   7.025 -18.315  0.00  0.00     0.085 C 
ATOM     16  NAY SY9 d         -42.330   7.892 -17.112  0.00  0.00    -0.062 N 
ATOM     17  CAS SY9 d         -43.773   7.976 -16.822  0.00  0.00     0.104 C 
ATOM     18  CAR SY9 d         -44.225   6.669 -16.182  0.00  0.00    -0.051 C 
ATOM     19  CAQ SY9 d         -45.282   6.045 -16.823  0.00  0.00    -0.076 C 
ATOM     20  CAP SY9 d         -45.784   4.829 -16.367  0.00  0.00     0.035 C 
ATOM     21  OAO SY9 d         -44.906   3.678 -16.363  0.00  0.00    -0.382 OA
ATOM     22  CAM SY9 d         -43.917   3.611 -15.339  0.00  0.00     0.049 C 
ATOM     23  CAL SY9 d         -43.219   2.281 -15.794  0.00  0.00     0.000 C 
ATOM     24  CAI SY9 d         -41.693   2.401 -15.814  0.00  0.00     0.105 C 
ATOM     25  H1  SY9 d         -40.645   7.908 -15.785  0.00  0.00     0.086 H 
ATOM     26  H2  SY9 d         -42.770   8.131 -14.476  0.00  0.00     0.037 H 
ATOM     27  H3  SY9 d         -41.724   6.783 -13.918  0.00  0.00     0.037 H 
ATOM     28  H4  SY9 d         -44.172   6.135 -14.103  0.00  0.00     0.048 H 
ATOM     29  H5  SY9 d         -42.285   4.559 -14.338  0.00  0.00     0.048 H 
ATOM     30  H6  SY9 d         -42.593   4.621 -17.345  0.00  0.00     0.075 H 
ATOM     31  H7  SY9 d         -38.780   2.142 -15.551  0.00  0.00     0.086 H 
ATOM     32  H8  SY9 d         -36.551   3.187 -15.309  0.00  0.00     0.083 H 
ATOM     33  H9  SY9 d         -36.322   5.634 -15.616  0.00  0.00     0.083 H 
ATOM     34  H10 SY9 d         -38.277   7.006 -16.234  0.00  0.00     0.084 H 
ATOM     35  H11 SY9 d         -40.828   5.375 -18.727  0.00  0.00     0.037 H 
ATOM     36  H12 SY9 d         -40.016   6.918 -18.294  0.00  0.00     0.037 H 
ATOM     37  H13 SY9 d         -43.042   6.322 -18.383  0.00  0.00     0.076 H 
ATOM     38  H14 SY9 d         -42.153   7.634 -19.230  0.00  0.00     0.076 H 
ATOM     39  H15 SY9 d         -41.975   8.816 -17.302  0.00  0.00     0.280 HD
ATOM     40  H16 SY9 d         -44.329   8.141 -17.757  0.00  0.00     0.083 H 
ATOM     41  H17 SY9 d         -43.963   8.810 -16.130  0.00  0.00     0.083 H 
ATOM     42  H18 SY9 d         -45.728   6.514 -17.699  0.00  0.00     0.080 H 
ATOM     43  H19 SY9 d         -46.648   4.577 -16.999  0.00  0.00     0.080 H 
ATOM     44  H20 SY9 d         -46.121   4.985 -15.332  0.00  0.00     0.080 H 
ATOM     45  H21 SY9 d         -44.401   3.494 -14.357  0.00  0.00     0.084 H 
ATOM     46  H22 SY9 d         -43.567   2.028 -16.806  0.00  0.00     0.043 H 
ATOM     47  H23 SY9 d         -43.500   1.477 -15.097  0.00  0.00     0.043 H 
ATOM     48  H24 SY9 d         -41.678   2.705 -14.757  0.00  0.00     0.117 H 
ENDROOT
BRANCH  24  49
ATOM     49  OAJ SY9 d         -40.897   1.328 -15.555  0.00  0.00    -0.377 OA
ATOM     50  H25 SY9 d         -41.439   0.565 -15.390  0.00  0.00     0.212 HD
ENDBRANCH  24  49
TORSDOF 1
ENDMDL
MODEL 3
REMARK VINA RESULT:      -9.4      1.788      3.246
REMARK  1 active torsions:
REMARK  status: ('A' for Active; 'I' for Inactive)
REMARK    1  A    between atoms: CAI_24  and  OAJ_25 
ROOT
ATOM      1  CAV SY9 d         -44.035   6.260 -16.685  0.00  0.00     0.118 C 
ATOM      2  CAU SY9 d         -43.615   6.589 -18.122  0.00  0.00    -0.030 C 
ATOM      3  CAT SY9 d         -42.308   7.368 -18.112  0.00  0.00    -0.021 C 
ATOM      4  CAN SY9 d         -41.205   6.467 -17.552  0.00  0.00    -0.001 C 
ATOM      5  CAK SY9 d         -41.499   6.000 -16.131  0.00  0.00     0.034 C 
ATOM      6  NAH SY9 d         -40.715   4.766 -15.966  0.00  0.00    -0.347 N 
ATOM      7  CAA SY9 d         -41.528   3.656 -15.752  0.00  0.00     0.040 A 
ATOM      8  CAF SY9 d         -41.173   2.306 -15.705  0.00  0.00    -0.057 A 
ATOM      9  CAE SY9 d         -42.144   1.328 -15.566  0.00  0.00    -0.081 A 
ATOM     10  CAD SY9 d         -43.479   1.709 -15.518  0.00  0.00    -0.082 A 
ATOM     11  CAC SY9 d         -43.839   3.052 -15.599  0.00  0.00    -0.074 A 
ATOM     12  CAB SY9 d         -42.870   4.032 -15.762  0.00  0.00    -0.019 A 
ATOM     13  CAG SY9 d         -42.945   5.571 -15.819  0.00  0.00     0.040 C 
ATOM     14  CAW SY9 d         -43.332   6.012 -14.408  0.00  0.00    -0.027 C 
ATOM     15  CAX SY9 d         -43.594   7.491 -14.657  0.00  0.00     0.085 C 
ATOM     16  NAY SY9 d         -44.351   7.522 -15.939  0.00  0.00    -0.062 N 
ATOM     17  CAS SY9 d         -43.938   8.757 -16.631  0.00  0.00     0.104 C 
ATOM     18  CAR SY9 d         -42.548   8.550 -17.221  0.00  0.00    -0.051 C 
ATOM     19  CAQ SY9 d         -41.609   9.492 -16.838  0.00  0.00    -0.076 C 
ATOM     20  CAP SY9 d         -40.291   9.416 -17.277  0.00  0.00     0.035 C 
ATOM     21  OAO SY9 d         -39.505   8.258 -16.903  0.00  0.00    -0.382 OA
ATOM     22  CAM SY9 d         -39.767   7.038 -17.593  0.00  0.00     0.049 C 
ATOM     23  CAL SY9 d         -38.757   6.124 -16.812  0.00  0.00     0.000 C 
ATOM     24  CAI SY9 d         -39.388   4.799 -16.376  0.00  0.00     0.105 C 
ATOM     25  H1  SY9 d         -44.923   5.612 -16.730  0.00  0.00     0.086 H 
ATOM     26  H2  SY9 d         -44.398   7.194 -18.602  0.00  0.00     0.037 H 
ATOM     27  H3  SY9 d         -43.478   5.654 -18.686  0.00  0.00     0.037 H 
ATOM     28  H4  SY9 d         -42.040   7.700 -19.126  0.00  0.00     0.048 H 
ATOM     29  H5  SY9 d         -41.201   5.573 -18.193  0.00  0.00     0.048 H 
ATOM     30  H6  SY9 d         -41.188   6.781 -15.422  0.00  0.00     0.075 H 
ATOM     31  H7  SY9 d         -40.130   2.022 -15.777  0.00  0.00     0.086 H 
ATOM     32  H8  SY9 d         -41.867   0.282 -15.497  0.00  0.00     0.083 H 
ATOM     33  H9  SY9 d         -44.249   0.953 -15.416  0.00  0.00     0.083 H 
ATOM     34  H10 SY9 d         -44.883   3.334 -15.533  0.00  0.00     0.084 H 
ATOM     35  H11 SY9 d         -42.512   5.858 -13.692  0.00  0.00     0.037 H 
ATOM     36  H12 SY9 d         -44.233   5.492 -14.051  0.00  0.00     0.037 H 
ATOM     37  H13 SY9 d         -42.647   8.044 -14.751  0.00  0.00     0.076 H 
ATOM     38  H14 SY9 d         -44.192   7.923 -13.842  0.00  0.00     0.076 H 
ATOM     39  H15 SY9 d         -45.343   7.557 -15.762  0.00  0.00     0.280 HD
ATOM     40  H16 SY9 d         -43.915   9.592 -15.916  0.00  0.00     0.083 H 
ATOM     41  H17 SY9 d         -44.651   8.984 -17.438  0.00  0.00     0.083 H 
ATOM     42  H18 SY9 d         -41.909  10.309 -16.182  0.00  0.00     0.080 H 
ATOM     43  H19 SY9 d         -39.767  10.302 -16.889  0.00  0.00     0.080 H 
ATOM     44  H20 SY9 d         -40.311   9.454 -18.376  0.00  0.00     0.080 H 
ATOM     45  H21 SY9 d         -39.481   7.137 -18.651  0.00  0.00     0.084 H 
ATOM     46  H22 SY9 d         -38.412   6.662 -15.917  0.00  0.00     0.043 H 
ATOM     47  H23 SY9 d         -37.898   5.908 -17.464  0.00  0.00     0.043 H 
ATOM     48  H24 SY9 d         -39.668   4.562 -17.413  0.00  0.00     0.117 H 
ENDROOT
BRANCH  24  49
ATOM     49  OAJ SY9 d         -38.646   3.662 -16.278  0.00  0.00    -0.377 OA
ATOM     50  H25 SY9 d         -37.920   3.704 -16.890  0.00  0.00     0.212 HD
ENDBRANCH  24  49
TORSDOF 1
ENDMDL
MODEL 4
REMARK VINA RESULT:      -8.4      2.189      4.375
REMARK  1 active torsions:
REMARK  status: ('A' for Active; 'I' for Inactive)
REMARK    1  A    between atoms: CAI_24  and  OAJ_25 
ROOT
ATOM      1  CAV SY9 d         -41.177   6.436 -15.938  0.00  0.00     0.118 C 
ATOM      2  CAU SY9 d         -41.884   7.260 -14.856  0.00  0.00    -0.030 C 
ATOM      3  CAT SY9 d         -43.153   7.878 -15.424  0.00  0.00    -0.021 C 
ATOM      4  CAN SY9 d         -44.123   6.753 -15.791  0.00  0.00    -0.001 C 
ATOM      5  CAK SY9 d         -43.544   5.799 -16.830  0.00  0.00     0.034 C 
ATOM      6  NAH SY9 d         -44.288   4.542 -16.649  0.00  0.00    -0.347 N 
ATOM      7  CAA SY9 d         -43.458   3.498 -16.249  0.00  0.00     0.040 A 
ATOM      8  CAF SY9 d         -43.807   2.212 -15.833  0.00  0.00    -0.057 A 
ATOM      9  CAE SY9 d         -42.838   1.329 -15.386  0.00  0.00    -0.081 A 
ATOM     10  CAD SY9 d         -41.519   1.758 -15.318  0.00  0.00    -0.082 A 
ATOM     11  CAC SY9 d         -41.172   3.053 -15.700  0.00  0.00    -0.074 A 
ATOM     12  CAB SY9 d         -42.144   3.946 -16.125  0.00  0.00    -0.019 A 
ATOM     13  CAG SY9 d         -42.069   5.390 -16.661  0.00  0.00     0.040 C 
ATOM     14  CAW SY9 d         -41.392   5.283 -18.026  0.00  0.00    -0.027 C 
ATOM     15  CAX SY9 d         -41.174   6.759 -18.329  0.00  0.00     0.085 C 
ATOM     16  NAY SY9 d         -40.701   7.335 -17.041  0.00  0.00    -0.062 N 
ATOM     17  CAS SY9 d         -41.238   8.707 -16.981  0.00  0.00     0.104 C 
ATOM     18  CAR SY9 d         -42.722   8.641 -16.641  0.00  0.00    -0.051 C 
ATOM     19  CAQ SY9 d         -43.552   9.293 -17.537  0.00  0.00    -0.076 C 
ATOM     20  CAP SY9 d         -44.933   9.294 -17.370  0.00  0.00     0.035 C 
ATOM     21  OAO SY9 d         -45.634   8.027 -17.407  0.00  0.00    -0.382 OA
ATOM     22  CAM SY9 d         -45.533   7.189 -16.259  0.00  0.00     0.049 C 
ATOM     23  CAL SY9 d         -46.366   5.973 -16.801  0.00  0.00     0.000 C 
ATOM     24  CAI SY9 d         -45.670   4.633 -16.552  0.00  0.00     0.105 C 
ATOM     25  H1  SY9 d         -40.323   5.923 -15.471  0.00  0.00     0.086 H 
ATOM     26  H2  SY9 d         -41.213   8.059 -14.508  0.00  0.00     0.037 H 
ATOM     27  H3  SY9 d         -42.143   6.607 -14.010  0.00  0.00     0.037 H 
ATOM     28  H4  SY9 d         -43.623   8.553 -14.694  0.00  0.00     0.048 H 
ATOM     29  H5  SY9 d         -44.269   6.176 -14.867  0.00  0.00     0.048 H 
ATOM     30  H6  SY9 d         -43.693   6.223 -17.834  0.00  0.00     0.075 H 
ATOM     31  H7  SY9 d         -44.845   1.901 -15.861  0.00  0.00     0.086 H 
ATOM     32  H8  SY9 d         -43.104   0.320 -15.094  0.00  0.00     0.083 H 
ATOM     33  H9  SY9 d         -40.751   1.080 -14.963  0.00  0.00     0.083 H 
ATOM     34  H10 SY9 d         -40.134   3.363 -15.665  0.00  0.00     0.084 H 
ATOM     35  H11 SY9 d         -42.047   4.806 -18.770  0.00  0.00     0.037 H 
ATOM     36  H12 SY9 d         -40.441   4.732 -17.969  0.00  0.00     0.037 H 
ATOM     37  H13 SY9 d         -42.115   7.234 -18.646  0.00  0.00     0.076 H 
ATOM     38  H14 SY9 d         -40.416   6.887 -19.115  0.00  0.00     0.076 H 
ATOM     39  H15 SY9 d         -39.693   7.372 -17.020  0.00  0.00     0.280 HD
ATOM     40  H16 SY9 d         -41.104   9.199 -17.956  0.00  0.00     0.083 H 
ATOM     41  H17 SY9 d         -40.707   9.278 -16.205  0.00  0.00     0.083 H 
ATOM     42  H18 SY9 d         -43.115   9.814 -18.389  0.00  0.00     0.080 H 
ATOM     43  H19 SY9 d         -45.356   9.922 -18.167  0.00  0.00     0.080 H 
ATOM     44  H20 SY9 d         -45.142   9.753 -16.393  0.00  0.00     0.080 H 
ATOM     45  H21 SY9 d         -46.032   7.665 -15.402  0.00  0.00     0.084 H 
ATOM     46  H22 SY9 d         -46.512   6.100 -17.884  0.00  0.00     0.043 H 
ATOM     47  H23 SY9 d         -47.344   5.962 -16.298  0.00  0.00     0.043 H 
ATOM     48  H24 SY9 d         -45.615   4.833 -15.472  0.00  0.00     0.117 H 
ENDROOT
BRANCH  24  49
ATOM     49  OAJ SY9 d         -46.386   3.494 -16.341  0.00  0.00    -0.377 OA
ATOM     50  H25 SY9 d         -45.806   2.810 -16.027  0.00  0.00     0.212 HD
ENDBRANCH  24  49
TORSDOF 1
ENDMDL
MODEL 5
REMARK VINA RESULT:      -8.3      2.005      3.168
REMARK  1 active torsions:
REMARK  status: ('A' for Active; 'I' for Inactive)
REMARK    1  A    between atoms: CAI_24  and  OAJ_25 
ROOT
ATOM      1  CAV SY9 d         -40.772   7.753 -17.522  0.00  0.00     0.118 C 
ATOM      2  CAU SY9 d         -40.576   6.613 -18.529  0.00  0.00    -0.030 C 
ATOM      3  CAT SY9 d         -40.661   5.273 -17.815  0.00  0.00    -0.021 C 
ATOM      4  CAN SY9 d         -42.077   5.100 -17.262  0.00  0.00    -0.001 C 
ATOM      5  CAK SY9 d         -42.455   6.198 -16.274  0.00  0.00     0.034 C 
ATOM      6  NAH SY9 d         -43.926   6.235 -16.289  0.00  0.00    -0.347 N 
ATOM      7  CAA SY9 d         -44.413   7.453 -16.755  0.00  0.00     0.040 A 
ATOM      8  CAF SY9 d         -45.727   7.813 -17.057  0.00  0.00    -0.057 A 
ATOM      9  CAE SY9 d         -46.010   9.057 -17.597  0.00  0.00    -0.081 A 
ATOM     10  CAD SY9 d         -44.961   9.924 -17.872  0.00  0.00    -0.082 A 
ATOM     11  CAC SY9 d         -43.644   9.555 -17.603  0.00  0.00    -0.074 A 
ATOM     12  CAB SY9 d         -43.356   8.300 -17.086  0.00  0.00    -0.019 A 
ATOM     13  CAG SY9 d         -42.040   7.638 -16.633  0.00  0.00     0.040 C 
ATOM     14  CAW SY9 d         -41.616   8.393 -15.374  0.00  0.00    -0.027 C 
ATOM     15  CAX SY9 d         -40.224   7.810 -15.173  0.00  0.00     0.085 C 
ATOM     16  NAY SY9 d         -39.637   7.773 -16.541  0.00  0.00    -0.062 N 
ATOM     17  CAS SY9 d         -38.773   6.579 -16.587  0.00  0.00     0.104 C 
ATOM     18  CAR SY9 d         -39.651   5.339 -16.708  0.00  0.00    -0.051 C 
ATOM     19  CAQ SY9 d         -39.437   4.379 -15.734  0.00  0.00    -0.076 C 
ATOM     20  CAP SY9 d         -40.184   3.206 -15.702  0.00  0.00     0.035 C 
ATOM     21  OAO SY9 d         -41.616   3.304 -15.508  0.00  0.00    -0.382 OA
ATOM     22  CAM SY9 d         -42.401   3.730 -16.619  0.00  0.00     0.049 C 
ATOM     23  CAL SY9 d         -43.801   3.738 -15.908  0.00  0.00     0.000 C 
ATOM     24  CAI SY9 d         -44.590   5.019 -16.192  0.00  0.00     0.105 C 
ATOM     25  H1  SY9 d         -40.807   8.699 -18.082  0.00  0.00     0.086 H 
ATOM     26  H2  SY9 d         -39.590   6.712 -19.005  0.00  0.00     0.037 H 
ATOM     27  H3  SY9 d         -41.361   6.667 -19.298  0.00  0.00     0.037 H 
ATOM     28  H4  SY9 d         -40.425   4.446 -18.501  0.00  0.00     0.048 H 
ATOM     29  H5  SY9 d         -42.746   5.200 -18.129  0.00  0.00     0.048 H 
ATOM     30  H6  SY9 d         -42.061   5.941 -15.279  0.00  0.00     0.075 H 
ATOM     31  H7  SY9 d         -46.534   7.114 -16.867  0.00  0.00     0.086 H 
ATOM     32  H8  SY9 d         -47.034   9.349 -17.801  0.00  0.00     0.083 H 
ATOM     33  H9  SY9 d         -45.167  10.898 -18.301  0.00  0.00     0.083 H 
ATOM     34  H10 SY9 d         -42.839  10.253 -17.800  0.00  0.00     0.084 H 
ATOM     35  H11 SY9 d         -42.277   8.172 -14.523  0.00  0.00     0.037 H 
ATOM     36  H12 SY9 d         -41.584   9.480 -15.541  0.00  0.00     0.037 H 
ATOM     37  H13 SY9 d         -40.283   6.797 -14.748  0.00  0.00     0.076 H 
ATOM     38  H14 SY9 d         -39.625   8.451 -14.511  0.00  0.00     0.076 H 
ATOM     39  H15 SY9 d         -39.077   8.595 -16.707  0.00  0.00     0.280 HD
ATOM     40  H16 SY9 d         -38.176   6.520 -15.665  0.00  0.00     0.083 H 
ATOM     41  H17 SY9 d         -38.102   6.642 -17.456  0.00  0.00     0.083 H 
ATOM     42  H18 SY9 d         -38.670   4.546 -14.978  0.00  0.00     0.080 H 
ATOM     43  H19 SY9 d         -39.787   2.590 -14.883  0.00  0.00     0.080 H 
ATOM     44  H20 SY9 d         -40.021   2.691 -16.660  0.00  0.00     0.080 H 
ATOM     45  H21 SY9 d         -42.362   2.974 -17.417  0.00  0.00     0.084 H 
ATOM     46  H22 SY9 d         -43.646   3.651 -14.823  0.00  0.00     0.043 H 
ATOM     47  H23 SY9 d         -44.384   2.877 -16.266  0.00  0.00     0.043 H 
ATOM     48  H24 SY9 d         -44.517   4.853 -17.277  0.00  0.00     0.117 H 
ENDROOT
BRANCH  24  49
ATOM     49  OAJ SY9 d         -45.951   5.012 -16.247  0.00  0.00    -0.377 OA
ATOM     50  H25 SY9 d         -46.289   4.386 -15.616  0.00  0.00     0.212 HD
ENDBRANCH  24  49
TORSDOF 1
ENDMDL
