MODEL 1
REMARK VINA RESULT:      -6.1      0.000      0.000
REMARK  16 active torsions:
REMARK  status: ('A' for Active; 'I' for Inactive)
REMARK    1  A    between atoms: C1_1  and  C2_4 
REMARK    2  A    between atoms: C2_4  and  O2_16 
REMARK    3  A    between atoms: C4_6  and  O4_7 
REMARK    4  A    between atoms: C5_8  and  O5_9 
REMARK    5  A    between atoms: C6_10  and  C7_12 
REMARK    6  A    between atoms: C7_12  and  O7_13 
REMARK    7  A    between atoms: C7_12  and  C8_14 
REMARK    8  A    between atoms: C8_14  and  O8_15 
REMARK    9  A    between atoms: O8_15  and  C2_20 
REMARK   10  A    between atoms: O2_16  and  C9_17 
REMARK   11  A    between atoms: C10_18  and  C11_19 
REMARK   12  A    between atoms: C2_20  and  C1_21 
REMARK   13  A    between atoms: C6_27  and  C7_29 
REMARK   14  A    between atoms: C7_29  and  O7_30 
REMARK   15  A    between atoms: C7_29  and  C8_31 
REMARK   16  A    between atoms: C8_31  and  O8_32 
ROOT
ATOM      1  C7  KDA d          29.687  -5.251   1.861  0.00  0.00     0.083 C 
ATOM      2  H8  KDA d          30.738  -5.346   1.549  0.00  0.00     0.090 H 
ENDROOT
BRANCH   1   3
ATOM      3  C6  KDA d          29.089  -3.978   1.274  0.00  0.00     0.096 C 
ATOM      4  C5  KDA d          28.283  -4.158  -0.029  0.00  0.00     0.088 C 
ATOM      5  C4  KDA d          27.822  -2.780  -0.548  0.00  0.00     0.068 C 
ATOM      6  H5  KDA d          27.396  -4.780   0.160  0.00  0.00     0.091 H 
ATOM      7  C3  KDA d          28.950  -1.730  -0.644  0.00  0.00     0.024 C 
ATOM      8  H3  KDA d          27.062  -2.401   0.151  0.00  0.00     0.087 H 
ATOM      9  C2  KDA d          29.822  -1.757   0.633  0.00  0.00     0.262 C 
ATOM     10  H1  KDA d          29.580  -1.954  -1.518  0.00  0.00     0.045 H 
ATOM     11  H2  KDA d          28.505  -0.731  -0.759  0.00  0.00     0.045 H 
ATOM     12  O6  KDA d          30.201  -3.081   1.006  0.00  0.00    -0.335 OA
ATOM     13  H7  KDA d          28.422  -3.531   2.027  0.00  0.00     0.091 H 
BRANCH   4  14
ATOM     14  O5  KDA d          29.162  -4.840  -0.972  0.00  0.00    -0.390 OA
ATOM     15  H6  KDA d          29.332  -4.271  -1.713  0.00  0.00     0.210 HD
ENDBRANCH   4  14
BRANCH   5  16
ATOM     16  O4  KDA d          27.237  -2.897  -1.845  0.00  0.00    -0.393 OA
ATOM     17  H4  KDA d          26.588  -2.213  -1.962  0.00  0.00     0.210 HD
ENDBRANCH   5  16
BRANCH   9  18
ATOM     18  C1  KDA d          31.067  -0.903   0.312  0.00  0.00     0.239 C 
ATOM     19  O1A KDA d          30.891   0.302   0.011  0.00  0.00    -0.644 OA
ATOM     20  O1B KDA d          32.173  -1.497   0.375  0.00  0.00    -0.644 OA
ENDBRANCH   9  18
BRANCH   9  21
ATOM     21  O2  KDA d          29.066  -1.137   1.724  0.00  0.00    -0.317 OA
BRANCH  21  22
ATOM     22  C9  KDA d          29.932  -0.985   2.787  0.00  0.00     0.013 C 
ATOM     23  C10 KDA d          29.749  -0.096   3.840  0.00  0.00    -0.086 C 
ATOM     24  H13 KDA d          30.518  -0.024   4.608  0.00  0.00     0.079 H 
ATOM     25  H12 KDA d          30.825  -1.607   2.802  0.00  0.00     0.122 H 
BRANCH  23  26
ATOM     26  C11 KDA d          28.629   0.695   3.944  0.00  0.00    -0.058 C 
ATOM     27  H14 KDA d          28.111   0.474   4.889  0.00  0.00     0.032 H 
ATOM     28  H15 KDA d          27.955   0.489   3.100  0.00  0.00     0.032 H 
ATOM     29  H16 KDA d          28.925   1.754   3.927  0.00  0.00     0.032 H 
ENDBRANCH  23  26
ENDBRANCH  21  22
ENDBRANCH   9  21
ENDBRANCH   1   3
BRANCH   1  30
ATOM     30  O7  KDA d          28.928  -6.372   1.391  0.00  0.00    -0.391 OA
ATOM     31  H9  KDA d          29.099  -6.503   0.466  0.00  0.00     0.210 HD
ENDBRANCH   1  30
BRANCH   1  32
ATOM     32  C8  KDA d          29.598  -5.219   3.388  0.00  0.00     0.050 C 
ATOM     33  H10 KDA d          30.600  -5.196   3.841  0.00  0.00     0.078 H 
ATOM     34  H11 KDA d          29.043  -6.088   3.769  0.00  0.00     0.078 H 
BRANCH  32  35
ATOM     35  O8  KDA d          28.873  -3.976   3.651  0.00  0.00    -0.341 OA
BRANCH  35  36
ATOM     36  C2  KDA d          27.761  -4.109   4.599  0.00  0.00     0.276 C 
ATOM     37  C3  KDA d          26.991  -2.945   4.629  0.00  0.00    -0.036 C 
ATOM     38  C4  KDA d          26.920  -2.053   5.722  0.00  0.00    -0.099 C 
ATOM     39  H17 KDA d          26.400  -2.708   3.744  0.00  0.00     0.085 H 
ATOM     40  C5  KDA d          27.647  -2.249   6.903  0.00  0.00    -0.023 C 
ATOM     41  H18 KDA d          26.276  -1.179   5.643  0.00  0.00     0.076 H 
ATOM     42  C6  KDA d          28.744  -3.297   6.720  0.00  0.00     0.072 C 
ATOM     43  H19 KDA d          26.960  -2.586   7.694  0.00  0.00     0.042 H 
ATOM     44  H20 KDA d          28.109  -1.296   7.201  0.00  0.00     0.042 H 
ATOM     45  O6  KDA d          28.264  -4.412   5.923  0.00  0.00    -0.335 OA
ATOM     46  H21 KDA d          29.594  -2.806   6.225  0.00  0.00     0.088 H 
BRANCH  36  47
ATOM     47  C1  KDA d          26.869  -5.276   4.157  0.00  0.00     0.243 C 
ATOM     48  O1B KDA d          26.750  -6.208   4.945  0.00  0.00    -0.644 OA
ATOM     49  O1A KDA d          26.330  -5.193   3.036  0.00  0.00    -0.644 OA
ENDBRANCH  36  47
BRANCH  42  50
ATOM     50  C7  KDA d          29.237  -4.013   7.992  0.00  0.00     0.081 C 
ATOM     51  H22 KDA d          28.403  -4.054   8.708  0.00  0.00     0.090 H 
BRANCH  50  52
ATOM     52  O7  KDA d          30.298  -3.261   8.558  0.00  0.00    -0.391 OA
ATOM     53  H23 KDA d          30.959  -3.097   7.894  0.00  0.00     0.210 HD
ENDBRANCH  50  52
BRANCH  50  54
ATOM     54  C8  KDA d          29.717  -5.436   7.743  0.00  0.00     0.043 C 
ATOM     55  H24 KDA d          30.428  -5.434   6.904  0.00  0.00     0.078 H 
ATOM     56  H25 KDA d          28.853  -6.068   7.488  0.00  0.00     0.078 H 
BRANCH  54  57
ATOM     57  O8  KDA d          30.365  -5.974   8.907  0.00  0.00    -0.398 OA
ATOM     58  H26 KDA d          31.282  -5.726   8.901  0.00  0.00     0.209 HD
ENDBRANCH  54  57
ENDBRANCH  50  54
ENDBRANCH  42  50
ENDBRANCH  35  36
ENDBRANCH  32  35
ENDBRANCH   1  32
TORSDOF 16
ENDMDL
MODEL 2
REMARK VINA RESULT:      -5.5      1.698      2.172
REMARK  16 active torsions:
REMARK  status: ('A' for Active; 'I' for Inactive)
REMARK    1  A    between atoms: C1_1  and  C2_4 
REMARK    2  A    between atoms: C2_4  and  O2_16 
REMARK    3  A    between atoms: C4_6  and  O4_7 
REMARK    4  A    between atoms: C5_8  and  O5_9 
REMARK    5  A    between atoms: C6_10  and  C7_12 
REMARK    6  A    between atoms: C7_12  and  O7_13 
REMARK    7  A    between atoms: C7_12  and  C8_14 
REMARK    8  A    between atoms: C8_14  and  O8_15 
REMARK    9  A    between atoms: O8_15  and  C2_20 
REMARK   10  A    between atoms: O2_16  and  C9_17 
REMARK   11  A    between atoms: C10_18  and  C11_19 
REMARK   12  A    between atoms: C2_20  and  C1_21 
REMARK   13  A    between atoms: C6_27  and  C7_29 
REMARK   14  A    between atoms: C7_29  and  O7_30 
REMARK   15  A    between atoms: C7_29  and  C8_31 
REMARK   16  A    between atoms: C8_31  and  O8_32 
ROOT
ATOM      1  C7  KDA d          28.260  -4.707   1.071  0.00  0.00     0.083 C 
ATOM      2  H8  KDA d          28.574  -5.412   0.286  0.00  0.00     0.090 H 
ENDROOT
BRANCH   1   3
ATOM      3  C6  KDA d          28.762  -3.307   0.737  0.00  0.00     0.096 C 
ATOM      4  C5  KDA d          27.809  -2.441  -0.112  0.00  0.00     0.088 C 
ATOM      5  C4  KDA d          28.488  -1.096  -0.445  0.00  0.00     0.068 C 
ATOM      6  H5  KDA d          26.883  -2.242   0.447  0.00  0.00     0.091 H 
ATOM      7  C3  KDA d          29.908  -1.232  -1.034  0.00  0.00     0.024 C 
ATOM      8  H3  KDA d          28.560  -0.523   0.491  0.00  0.00     0.087 H 
ATOM      9  C2  KDA d          30.729  -2.267  -0.229  0.00  0.00     0.262 C 
ATOM     10  H1  KDA d          29.836  -1.562  -2.080  0.00  0.00     0.045 H 
ATOM     11  H2  KDA d          30.413  -0.256  -0.991  0.00  0.00     0.045 H 
ATOM     12  O6  KDA d          30.006  -3.475   0.003  0.00  0.00    -0.335 OA
ATOM     13  H7  KDA d          28.955  -2.775   1.680  0.00  0.00     0.091 H 
BRANCH   4  14
ATOM     14  O5  KDA d          27.496  -3.214  -1.308  0.00  0.00    -0.390 OA
ATOM     15  H6  KDA d          27.887  -4.077  -1.238  0.00  0.00     0.210 HD
ENDBRANCH   4  14
BRANCH   5  16
ATOM     16  O4  KDA d          27.707  -0.352  -1.381  0.00  0.00    -0.393 OA
ATOM     17  H4  KDA d          26.784  -0.503  -1.213  0.00  0.00     0.210 HD
ENDBRANCH   5  16
BRANCH   9  18
ATOM     18  C1  KDA d          31.997  -2.541  -1.064  0.00  0.00     0.239 C 
ATOM     19  O1A KDA d          32.808  -1.599  -1.227  0.00  0.00    -0.644 OA
ATOM     20  O1B KDA d          32.112  -3.706  -1.524  0.00  0.00    -0.644 OA
ENDBRANCH   9  18
BRANCH   9  21
ATOM     21  O2  KDA d          31.103  -1.665   1.054  0.00  0.00    -0.317 OA
BRANCH  21  22
ATOM     22  C9  KDA d          31.755  -2.636   1.786  0.00  0.00     0.013 C 
ATOM     23  C10 KDA d          32.051  -2.544   3.141  0.00  0.00    -0.086 C 
ATOM     24  H13 KDA d          32.610  -3.351   3.614  0.00  0.00     0.079 H 
ATOM     25  H12 KDA d          32.062  -3.540   1.263  0.00  0.00     0.122 H 
BRANCH  23  26
ATOM     26  C11 KDA d          31.660  -1.469   3.905  0.00  0.00    -0.058 C 
ATOM     27  H14 KDA d          30.577  -1.314   3.791  0.00  0.00     0.032 H 
ATOM     28  H15 KDA d          32.197  -0.569   3.571  0.00  0.00     0.032 H 
ATOM     29  H16 KDA d          31.894  -1.665   4.961  0.00  0.00     0.032 H 
ENDBRANCH  23  26
ENDBRANCH  21  22
ENDBRANCH   9  21
ENDBRANCH   1   3
BRANCH   1  30
ATOM     30  O7  KDA d          26.831  -4.671   1.160  0.00  0.00    -0.391 OA
ATOM     31  H9  KDA d          26.536  -5.333   1.774  0.00  0.00     0.210 HD
ENDBRANCH   1  30
BRANCH   1  32
ATOM     32  C8  KDA d          28.813  -5.155   2.424  0.00  0.00     0.050 C 
ATOM     33  H10 KDA d          29.898  -5.332   2.369  0.00  0.00     0.078 H 
ATOM     34  H11 KDA d          28.311  -6.069   2.773  0.00  0.00     0.078 H 
BRANCH  32  35
ATOM     35  O8  KDA d          28.509  -4.022   3.298  0.00  0.00    -0.341 OA
BRANCH  35  36
ATOM     36  C2  KDA d          28.120  -4.394   4.663  0.00  0.00     0.276 C 
ATOM     37  C3  KDA d          27.666  -3.281   5.372  0.00  0.00    -0.036 C 
ATOM     38  C4  KDA d          28.346  -2.684   6.457  0.00  0.00    -0.099 C 
ATOM     39  H17 KDA d          26.718  -2.840   5.066  0.00  0.00     0.085 H 
ATOM     40  C5  KDA d          29.578  -3.156   6.927  0.00  0.00    -0.023 C 
ATOM     41  H18 KDA d          27.894  -1.823   6.948  0.00  0.00     0.076 H 
ATOM     42  C6  KDA d          30.227  -4.117   5.931  0.00  0.00     0.072 C 
ATOM     43  H19 KDA d          29.419  -3.683   7.880  0.00  0.00     0.042 H 
ATOM     44  H20 KDA d          30.250  -2.300   7.088  0.00  0.00     0.042 H 
ATOM     45  O6  KDA d          29.236  -5.007   5.353  0.00  0.00    -0.335 OA
ATOM     46  H21 KDA d          30.707  -3.511   5.149  0.00  0.00     0.088 H 
BRANCH  36  47
ATOM     47  C1  KDA d          26.988  -5.426   4.593  0.00  0.00     0.243 C 
ATOM     48  O1B KDA d          25.950  -5.071   4.046  0.00  0.00    -0.644 OA
ATOM     49  O1A KDA d          27.203  -6.548   5.092  0.00  0.00    -0.644 OA
ENDBRANCH  36  47
BRANCH  42  50
ATOM     50  C7  KDA d          31.251  -5.118   6.501  0.00  0.00     0.081 C 
ATOM     51  H22 KDA d          31.441  -4.853   7.552  0.00  0.00     0.090 H 
BRANCH  50  52
ATOM     52  O7  KDA d          32.460  -5.003   5.768  0.00  0.00    -0.391 OA
ATOM     53  H23 KDA d          32.439  -4.208   5.247  0.00  0.00     0.210 HD
ENDBRANCH  50  52
BRANCH  50  54
ATOM     54  C8  KDA d          30.779  -6.564   6.455  0.00  0.00     0.043 C 
ATOM     55  H24 KDA d          31.608  -7.222   6.754  0.00  0.00     0.078 H 
ATOM     56  H25 KDA d          30.470  -6.809   5.428  0.00  0.00     0.078 H 
BRANCH  54  57
ATOM     57  O8  KDA d          29.669  -6.774   7.342  0.00  0.00    -0.398 OA
ATOM     58  H26 KDA d          29.960  -6.676   8.241  0.00  0.00     0.209 HD
ENDBRANCH  54  57
ENDBRANCH  50  54
ENDBRANCH  42  50
ENDBRANCH  35  36
ENDBRANCH  32  35
ENDBRANCH   1  32
TORSDOF 16
ENDMDL
MODEL 3
REMARK VINA RESULT:      -5.3      1.990      2.777
REMARK  16 active torsions:
REMARK  status: ('A' for Active; 'I' for Inactive)
REMARK    1  A    between atoms: C1_1  and  C2_4 
REMARK    2  A    between atoms: C2_4  and  O2_16 
REMARK    3  A    between atoms: C4_6  and  O4_7 
REMARK    4  A    between atoms: C5_8  and  O5_9 
REMARK    5  A    between atoms: C6_10  and  C7_12 
REMARK    6  A    between atoms: C7_12  and  O7_13 
REMARK    7  A    between atoms: C7_12  and  C8_14 
REMARK    8  A    between atoms: C8_14  and  O8_15 
REMARK    9  A    between atoms: O8_15  and  C2_20 
REMARK   10  A    between atoms: O2_16  and  C9_17 
REMARK   11  A    between atoms: C10_18  and  C11_19 
REMARK   12  A    between atoms: C2_20  and  C1_21 
REMARK   13  A    between atoms: C6_27  and  C7_29 
REMARK   14  A    between atoms: C7_29  and  O7_30 
REMARK   15  A    between atoms: C7_29  and  C8_31 
REMARK   16  A    between atoms: C8_31  and  O8_32 
ROOT
ATOM      1  C7  KDA d          29.282  -5.174   2.263  0.00  0.00     0.083 C 
ATOM      2  H8  KDA d          30.089  -5.862   1.970  0.00  0.00     0.090 H 
ENDROOT
BRANCH   1   3
ATOM      3  C6  KDA d          29.221  -4.005   1.288  0.00  0.00     0.096 C 
ATOM      4  C5  KDA d          28.085  -4.064   0.246  0.00  0.00     0.088 C 
ATOM      5  C4  KDA d          28.207  -2.868  -0.722  0.00  0.00     0.068 C 
ATOM      6  H5  KDA d          27.109  -4.013   0.751  0.00  0.00     0.091 H 
ATOM      7  C3  KDA d          29.613  -2.689  -1.332  0.00  0.00     0.024 C 
ATOM      8  H3  KDA d          27.963  -1.958  -0.155  0.00  0.00     0.087 H 
ATOM      9  C2  KDA d          30.698  -2.838  -0.240  0.00  0.00     0.262 C 
ATOM     10  H1  KDA d          29.772  -3.454  -2.107  0.00  0.00     0.045 H 
ATOM     11  H2  KDA d          29.688  -1.689  -1.784  0.00  0.00     0.045 H 
ATOM     12  O6  KDA d          30.491  -3.985   0.582  0.00  0.00    -0.335 OA
ATOM     13  H7  KDA d          29.102  -3.078   1.868  0.00  0.00     0.091 H 
BRANCH   4  14
ATOM     14  O5  KDA d          28.211  -5.346  -0.437  0.00  0.00    -0.390 OA
ATOM     15  H6  KDA d          27.348  -5.717  -0.574  0.00  0.00     0.210 HD
ENDBRANCH   4  14
BRANCH   5  16
ATOM     16  O4  KDA d          27.285  -2.997  -1.805  0.00  0.00    -0.393 OA
ATOM     17  H4  KDA d          26.519  -2.463  -1.632  0.00  0.00     0.210 HD
ENDBRANCH   5  16
BRANCH   9  18
ATOM     18  C1  KDA d          32.043  -2.939  -0.992  0.00  0.00     0.239 C 
ATOM     19  O1A KDA d          32.522  -4.081  -1.187  0.00  0.00    -0.644 OA
ATOM     20  O1B KDA d          32.558  -1.849  -1.348  0.00  0.00    -0.644 OA
ENDBRANCH   9  18
BRANCH   9  21
ATOM     21  O2  KDA d          30.688  -1.631   0.591  0.00  0.00    -0.317 OA
BRANCH  21  22
ATOM     22  C9  KDA d          31.672  -1.783   1.545  0.00  0.00     0.013 C 
ATOM     23  C10 KDA d          32.077  -0.793   2.434  0.00  0.00    -0.086 C 
ATOM     24  H13 KDA d          32.896  -1.004   3.120  0.00  0.00     0.079 H 
ATOM     25  H12 KDA d          32.169  -2.749   1.607  0.00  0.00     0.122 H 
BRANCH  23  26
ATOM     26  C11 KDA d          31.477   0.443   2.475  0.00  0.00    -0.058 C 
ATOM     27  H14 KDA d          30.982   0.578   3.449  0.00  0.00     0.032 H 
ATOM     28  H15 KDA d          30.729   0.515   1.671  0.00  0.00     0.032 H 
ATOM     29  H16 KDA d          32.238   1.225   2.339  0.00  0.00     0.032 H 
ENDBRANCH  23  26
ENDBRANCH  21  22
ENDBRANCH   9  21
ENDBRANCH   1   3
BRANCH   1  30
ATOM     30  O7  KDA d          28.021  -5.854   2.242  0.00  0.00    -0.391 OA
ATOM     31  H9  KDA d          27.404  -5.391   2.797  0.00  0.00     0.210 HD
ENDBRANCH   1  30
BRANCH   1  32
ATOM     32  C8  KDA d          29.527  -4.663   3.684  0.00  0.00     0.050 C 
ATOM     33  H10 KDA d          30.548  -4.897   4.018  0.00  0.00     0.078 H 
ATOM     34  H11 KDA d          28.803  -5.095   4.390  0.00  0.00     0.078 H 
BRANCH  32  35
ATOM     35  O8  KDA d          29.334  -3.218   3.554  0.00  0.00    -0.341 OA
BRANCH  35  36
ATOM     36  C2  KDA d          28.300  -2.660   4.432  0.00  0.00     0.276 C 
ATOM     37  C3  KDA d          27.331  -1.981   3.690  0.00  0.00    -0.036 C 
ATOM     38  C4  KDA d          27.139  -0.582   3.707  0.00  0.00    -0.099 C 
ATOM     39  H17 KDA d          26.676  -2.574   3.053  0.00  0.00     0.085 H 
ATOM     40  C5  KDA d          27.930   0.280   4.476  0.00  0.00    -0.023 C 
ATOM     41  H18 KDA d          26.343  -0.156   3.097  0.00  0.00     0.076 H 
ATOM     42  C6  KDA d          29.194  -0.418   4.979  0.00  0.00     0.072 C 
ATOM     43  H19 KDA d          27.346   0.627   5.341  0.00  0.00     0.042 H 
ATOM     44  H20 KDA d          28.221   1.144   3.860  0.00  0.00     0.042 H 
ATOM     45  O6  KDA d          28.897  -1.773   5.409  0.00  0.00    -0.335 OA
ATOM     46  H21 KDA d          29.921  -0.424   4.155  0.00  0.00     0.088 H 
BRANCH  36  47
ATOM     47  C1  KDA d          27.622  -3.807   5.191  0.00  0.00     0.243 C 
ATOM     48  O1B KDA d          28.074  -4.078   6.298  0.00  0.00    -0.644 OA
ATOM     49  O1A KDA d          26.663  -4.375   4.634  0.00  0.00    -0.644 OA
ENDBRANCH  36  47
BRANCH  42  50
ATOM     50  C7  KDA d          29.855   0.171   6.240  0.00  0.00     0.081 C 
ATOM     51  H22 KDA d          29.082   0.273   7.017  0.00  0.00     0.090 H 
BRANCH  50  52
ATOM     52  O7  KDA d          30.372   1.455   5.928  0.00  0.00    -0.391 OA
ATOM     53  H23 KDA d          31.296   1.381   5.718  0.00  0.00     0.210 HD
ENDBRANCH  50  52
BRANCH  50  54
ATOM     54  C8  KDA d          30.977  -0.692   6.799  0.00  0.00     0.043 C 
ATOM     55  H24 KDA d          30.776  -1.746   6.555  0.00  0.00     0.078 H 
ATOM     56  H25 KDA d          31.015  -0.570   7.892  0.00  0.00     0.078 H 
BRANCH  54  57
ATOM     57  O8  KDA d          32.246  -0.315   6.240  0.00  0.00    -0.398 OA
ATOM     58  H26 KDA d          32.162   0.527   5.807  0.00  0.00     0.209 HD
ENDBRANCH  54  57
ENDBRANCH  50  54
ENDBRANCH  42  50
ENDBRANCH  35  36
ENDBRANCH  32  35
ENDBRANCH   1  32
TORSDOF 16
ENDMDL
MODEL 4
REMARK VINA RESULT:      -5.2      2.082      6.248
REMARK  16 active torsions:
REMARK  status: ('A' for Active; 'I' for Inactive)
REMARK    1  A    between atoms: C1_1  and  C2_4 
REMARK    2  A    between atoms: C2_4  and  O2_16 
REMARK    3  A    between atoms: C4_6  and  O4_7 
REMARK    4  A    between atoms: C5_8  and  O5_9 
REMARK    5  A    between atoms: C6_10  and  C7_12 
REMARK    6  A    between atoms: C7_12  and  O7_13 
REMARK    7  A    between atoms: C7_12  and  C8_14 
REMARK    8  A    between atoms: C8_14  and  O8_15 
REMARK    9  A    between atoms: O8_15  and  C2_20 
REMARK   10  A    between atoms: O2_16  and  C9_17 
REMARK   11  A    between atoms: C10_18  and  C11_19 
REMARK   12  A    between atoms: C2_20  and  C1_21 
REMARK   13  A    between atoms: C6_27  and  C7_29 
REMARK   14  A    between atoms: C7_29  and  O7_30 
REMARK   15  A    between atoms: C7_29  and  C8_31 
REMARK   16  A    between atoms: C8_31  and  O8_32 
ROOT
ATOM      1  C7  KDA d          31.292  -0.329   2.263  0.00  0.00     0.083 C 
ATOM      2  H8  KDA d          32.302  -0.428   2.690  0.00  0.00     0.090 H 
ENDROOT
BRANCH   1   3
ATOM      3  C6  KDA d          30.264  -0.883   3.242  0.00  0.00     0.096 C 
ATOM      4  C5  KDA d          29.425   0.170   3.996  0.00  0.00     0.088 C 
ATOM      5  C4  KDA d          28.499  -0.535   5.010  0.00  0.00     0.068 C 
ATOM      6  H5  KDA d          28.806   0.736   3.285  0.00  0.00     0.091 H 
ATOM      7  C3  KDA d          29.219  -1.543   5.930  0.00  0.00     0.024 C 
ATOM      8  H3  KDA d          27.736  -1.080   4.436  0.00  0.00     0.087 H 
ATOM      9  C2  KDA d          30.183  -2.430   5.108  0.00  0.00     0.262 C 
ATOM     10  H1  KDA d          29.792  -0.994   6.691  0.00  0.00     0.045 H 
ATOM     11  H2  KDA d          28.471  -2.181   6.424  0.00  0.00     0.045 H 
ATOM     12  O6  KDA d          30.999  -1.669   4.219  0.00  0.00    -0.335 OA
ATOM     13  H7  KDA d          29.572  -1.533   2.685  0.00  0.00     0.091 H 
BRANCH   4  14
ATOM     14  O5  KDA d          30.371   1.072   4.642  0.00  0.00    -0.390 OA
ATOM     15  H6  KDA d          29.991   1.404   5.447  0.00  0.00     0.210 HD
ENDBRANCH   4  14
BRANCH   5  16
ATOM     16  O4  KDA d          27.849   0.420   5.850  0.00  0.00    -0.393 OA
ATOM     17  H4  KDA d          27.541   1.147   5.321  0.00  0.00     0.210 HD
ENDBRANCH   5  16
BRANCH   9  18
ATOM     18  C1  KDA d          31.052  -3.179   6.141  0.00  0.00     0.239 C 
ATOM     19  O1A KDA d          31.854  -4.044   5.717  0.00  0.00    -0.644 OA
ATOM     20  O1B KDA d          30.877  -2.857   7.344  0.00  0.00    -0.644 OA
ENDBRANCH   9  18
BRANCH   9  21
ATOM     21  O2  KDA d          29.388  -3.393   4.342  0.00  0.00    -0.317 OA
BRANCH  21  22
ATOM     22  C9  KDA d          28.507  -3.987   5.221  0.00  0.00     0.013 C 
ATOM     23  C10 KDA d          28.354  -5.359   5.388  0.00  0.00    -0.086 C 
ATOM     24  H13 KDA d          27.596  -5.724   6.080  0.00  0.00     0.079 H 
ATOM     25  H12 KDA d          27.884  -3.333   5.829  0.00  0.00     0.122 H 
BRANCH  23  26
ATOM     26  C11 KDA d          29.130  -6.269   4.710  0.00  0.00    -0.058 C 
ATOM     27  H14 KDA d          30.187  -5.976   4.782  0.00  0.00     0.032 H 
ATOM     28  H15 KDA d          28.827  -6.293   3.653  0.00  0.00     0.032 H 
ATOM     29  H16 KDA d          28.995  -7.267   5.152  0.00  0.00     0.032 H 
ENDBRANCH  23  26
ENDBRANCH  21  22
ENDBRANCH   9  21
ENDBRANCH   1   3
BRANCH   1  30
ATOM     30  O7  KDA d          30.992   1.049   2.016  0.00  0.00    -0.391 OA
ATOM     31  H9  KDA d          30.945   1.199   1.079  0.00  0.00     0.210 HD
ENDBRANCH   1  30
BRANCH   1  32
ATOM     32  C8  KDA d          31.213  -1.083   0.935  0.00  0.00     0.050 C 
ATOM     33  H10 KDA d          31.930  -1.917   0.910  0.00  0.00     0.078 H 
ATOM     34  H11 KDA d          31.406  -0.409   0.087  0.00  0.00     0.078 H 
BRANCH  32  35
ATOM     35  O8  KDA d          29.835  -1.573   0.913  0.00  0.00    -0.341 OA
BRANCH  35  36
ATOM     36  C2  KDA d          29.597  -2.679  -0.021  0.00  0.00     0.276 C 
ATOM     37  C3  KDA d          28.264  -3.091   0.025  0.00  0.00    -0.036 C 
ATOM     38  C4  KDA d          27.821  -4.330   0.540  0.00  0.00    -0.099 C 
ATOM     39  H17 KDA d          27.511  -2.408  -0.365  0.00  0.00     0.085 H 
ATOM     40  C5  KDA d          28.697  -5.280   1.080  0.00  0.00    -0.023 C 
ATOM     41  H18 KDA d          26.756  -4.555   0.516  0.00  0.00     0.076 H 
ATOM     42  C6  KDA d          30.074  -4.677   1.359  0.00  0.00     0.072 C 
ATOM     43  H19 KDA d          28.809  -6.110   0.367  0.00  0.00     0.042 H 
ATOM     44  H20 KDA d          28.276  -5.659   2.022  0.00  0.00     0.042 H 
ATOM     45  O6  KDA d          30.476  -3.789   0.282  0.00  0.00    -0.335 OA
ATOM     46  H21 KDA d          30.011  -4.129   2.310  0.00  0.00     0.088 H 
BRANCH  36  47
ATOM     47  C1  KDA d          29.915  -2.204  -1.444  0.00  0.00     0.243 C 
ATOM     48  O1B KDA d          29.363  -1.176  -1.818  0.00  0.00    -0.644 OA
ATOM     49  O1A KDA d          30.710  -2.893  -2.114  0.00  0.00    -0.644 OA
ENDBRANCH  36  47
BRANCH  42  50
ATOM     50  C7  KDA d          31.261  -5.658   1.413  0.00  0.00     0.081 C 
ATOM     51  H22 KDA d          31.750  -5.660   0.428  0.00  0.00     0.090 H 
BRANCH  50  52
ATOM     52  O7  KDA d          30.767  -6.960   1.688  0.00  0.00    -0.391 OA
ATOM     53  H23 KDA d          29.820  -6.962   1.605  0.00  0.00     0.210 HD
ENDBRANCH  50  52
BRANCH  50  54
ATOM     54  C8  KDA d          32.305  -5.294   2.459  0.00  0.00     0.043 C 
ATOM     55  H24 KDA d          33.307  -5.497   2.053  0.00  0.00     0.078 H 
ATOM     56  H25 KDA d          32.143  -5.908   3.358  0.00  0.00     0.078 H 
BRANCH  54  57
ATOM     57  O8  KDA d          32.215  -3.905   2.817  0.00  0.00    -0.398 OA
ATOM     58  H26 KDA d          32.185  -3.377   2.028  0.00  0.00     0.209 HD
ENDBRANCH  54  57
ENDBRANCH  50  54
ENDBRANCH  42  50
ENDBRANCH  35  36
ENDBRANCH  32  35
ENDBRANCH   1  32
TORSDOF 16
ENDMDL
MODEL 5
REMARK VINA RESULT:      -5.2      1.918      5.899
REMARK  16 active torsions:
REMARK  status: ('A' for Active; 'I' for Inactive)
REMARK    1  A    between atoms: C1_1  and  C2_4 
REMARK    2  A    between atoms: C2_4  and  O2_16 
REMARK    3  A    between atoms: C4_6  and  O4_7 
REMARK    4  A    between atoms: C5_8  and  O5_9 
REMARK    5  A    between atoms: C6_10  and  C7_12 
REMARK    6  A    between atoms: C7_12  and  O7_13 
REMARK    7  A    between atoms: C7_12  and  C8_14 
REMARK    8  A    between atoms: C8_14  and  O8_15 
REMARK    9  A    between atoms: O8_15  and  C2_20 
REMARK   10  A    between atoms: O2_16  and  C9_17 
REMARK   11  A    between atoms: C10_18  and  C11_19 
REMARK   12  A    between atoms: C2_20  and  C1_21 
REMARK   13  A    between atoms: C6_27  and  C7_29 
REMARK   14  A    between atoms: C7_29  and  O7_30 
REMARK   15  A    between atoms: C7_29  and  C8_31 
REMARK   16  A    between atoms: C8_31  and  O8_32 
ROOT
ATOM      1  C7  KDA d          30.853  -0.377   2.389  0.00  0.00     0.083 C 
ATOM      2  H8  KDA d          31.890  -0.731   2.292  0.00  0.00     0.090 H 
ENDROOT
BRANCH   1   3
ATOM      3  C6  KDA d          30.268  -0.854   3.713  0.00  0.00     0.096 C 
ATOM      4  C5  KDA d          31.129  -1.864   4.498  0.00  0.00     0.088 C 
ATOM      5  C4  KDA d          30.370  -2.322   5.761  0.00  0.00     0.068 C 
ATOM      6  H5  KDA d          32.075  -1.394   4.804  0.00  0.00     0.091 H 
ATOM      7  C3  KDA d          28.926  -2.799   5.494  0.00  0.00     0.024 C 
ATOM      8  H3  KDA d          30.324  -1.464   6.447  0.00  0.00     0.087 H 
ATOM      9  C2  KDA d          28.202  -1.819   4.541  0.00  0.00     0.262 C 
ATOM     10  H1  KDA d          28.954  -3.797   5.034  0.00  0.00     0.045 H 
ATOM     11  H2  KDA d          28.379  -2.849   6.447  0.00  0.00     0.045 H 
ATOM     12  O6  KDA d          28.993  -1.481   3.403  0.00  0.00    -0.335 OA
ATOM     13  H7  KDA d          30.104   0.025   4.354  0.00  0.00     0.091 H 
BRANCH   4  14
ATOM     14  O5  KDA d          31.409  -2.969   3.589  0.00  0.00    -0.390 OA
ATOM     15  H6  KDA d          31.950  -2.659   2.872  0.00  0.00     0.210 HD
ENDBRANCH   4  14
BRANCH   5  16
ATOM     16  O4  KDA d          31.060  -3.392   6.407  0.00  0.00    -0.393 OA
ATOM     17  H4  KDA d          31.932  -3.104   6.650  0.00  0.00     0.210 HD
ENDBRANCH   5  16
BRANCH   9  18
ATOM     18  C1  KDA d          26.902  -2.531   4.111  0.00  0.00     0.239 C 
ATOM     19  O1A KDA d          26.135  -1.929   3.323  0.00  0.00    -0.644 OA
ATOM     20  O1B KDA d          26.714  -3.675   4.599  0.00  0.00    -0.644 OA
ENDBRANCH   9  18
BRANCH   9  21
ATOM     21  O2  KDA d          27.874  -0.602   5.288  0.00  0.00    -0.317 OA
BRANCH  21  22
ATOM     22  C9  KDA d          27.266  -0.995   6.463  0.00  0.00     0.013 C 
ATOM     23  C10 KDA d          27.336  -0.300   7.665  0.00  0.00    -0.086 C 
ATOM     24  H13 KDA d          26.855  -0.722   8.546  0.00  0.00     0.079 H 
ATOM     25  H12 KDA d          26.690  -1.919   6.448  0.00  0.00     0.122 H 
BRANCH  23  26
ATOM     26  C11 KDA d          27.992   0.904   7.777  0.00  0.00    -0.058 C 
ATOM     27  H14 KDA d          27.370   1.701   7.344  0.00  0.00     0.032 H 
ATOM     28  H15 KDA d          28.949   0.851   7.238  0.00  0.00     0.032 H 
ATOM     29  H16 KDA d          28.180   1.120   8.839  0.00  0.00     0.032 H 
ENDBRANCH  23  26
ENDBRANCH  21  22
ENDBRANCH   9  21
ENDBRANCH   1   3
BRANCH   1  30
ATOM     30  O7  KDA d          30.814   1.055   2.361  0.00  0.00    -0.391 OA
ATOM     31  H9  KDA d          30.812   1.354   1.460  0.00  0.00     0.210 HD
ENDBRANCH   1  30
BRANCH   1  32
ATOM     32  C8  KDA d          30.013  -0.901   1.223  0.00  0.00     0.050 C 
ATOM     33  H10 KDA d          29.921  -0.145   0.431  0.00  0.00     0.078 H 
ATOM     34  H11 KDA d          29.011  -1.201   1.561  0.00  0.00     0.078 H 
BRANCH  32  35
ATOM     35  O8  KDA d          30.779  -2.059   0.758  0.00  0.00    -0.341 OA
BRANCH  35  36
ATOM     36  C2  KDA d          30.017  -3.000  -0.070  0.00  0.00     0.276 C 
ATOM     37  C3  KDA d          28.699  -2.568  -0.229  0.00  0.00    -0.036 C 
ATOM     38  C4  KDA d          27.569  -3.204   0.333  0.00  0.00    -0.099 C 
ATOM     39  H17 KDA d          28.529  -1.676  -0.831  0.00  0.00     0.085 H 
ATOM     40  C5  KDA d          27.668  -4.348   1.135  0.00  0.00    -0.023 C 
ATOM     41  H18 KDA d          26.583  -2.788   0.134  0.00  0.00     0.076 H 
ATOM     42  C6  KDA d          29.105  -4.586   1.598  0.00  0.00     0.072 C 
ATOM     43  H19 KDA d          27.330  -5.220   0.557  0.00  0.00     0.042 H 
ATOM     44  H20 KDA d          27.024  -4.221   2.018  0.00  0.00     0.042 H 
ATOM     45  O6  KDA d          30.044  -4.322   0.521  0.00  0.00    -0.335 OA
ATOM     46  H21 KDA d          29.295  -3.917   2.449  0.00  0.00     0.088 H 
BRANCH  36  47
ATOM     47  C1  KDA d          30.674  -3.091  -1.452  0.00  0.00     0.243 C 
ATOM     48  O1B KDA d          30.388  -4.067  -2.136  0.00  0.00    -0.644 OA
ATOM     49  O1A KDA d          31.445  -2.168  -1.781  0.00  0.00    -0.644 OA
ENDBRANCH  36  47
BRANCH  42  50
ATOM     50  C7  KDA d          29.477  -6.029   1.989  0.00  0.00     0.081 C 
ATOM     51  H22 KDA d          30.492  -6.234   1.618  0.00  0.00     0.090 H 
BRANCH  50  52
ATOM     52  O7  KDA d          28.566  -6.921   1.366  0.00  0.00    -0.391 OA
ATOM     53  H23 KDA d          28.878  -7.132   0.493  0.00  0.00     0.210 HD
ENDBRANCH  50  52
BRANCH  50  54
ATOM     54  C8  KDA d          29.462  -6.276   3.491  0.00  0.00     0.043 C 
ATOM     55  H24 KDA d          30.069  -5.504   3.987  0.00  0.00     0.078 H 
ATOM     56  H25 KDA d          29.892  -7.268   3.696  0.00  0.00     0.078 H 
BRANCH  54  57
ATOM     57  O8  KDA d          28.123  -6.227   4.009  0.00  0.00    -0.398 OA
ATOM     58  H26 KDA d          27.732  -7.091   3.955  0.00  0.00     0.209 HD
ENDBRANCH  54  57
ENDBRANCH  50  54
ENDBRANCH  42  50
ENDBRANCH  35  36
ENDBRANCH  32  35
ENDBRANCH   1  32
TORSDOF 16
ENDMDL
MODEL 6
REMARK VINA RESULT:      -5.2      2.049      6.018
REMARK  16 active torsions:
REMARK  status: ('A' for Active; 'I' for Inactive)
REMARK    1  A    between atoms: C1_1  and  C2_4 
REMARK    2  A    between atoms: C2_4  and  O2_16 
REMARK    3  A    between atoms: C4_6  and  O4_7 
REMARK    4  A    between atoms: C5_8  and  O5_9 
REMARK    5  A    between atoms: C6_10  and  C7_12 
REMARK    6  A    between atoms: C7_12  and  O7_13 
REMARK    7  A    between atoms: C7_12  and  C8_14 
REMARK    8  A    between atoms: C8_14  and  O8_15 
REMARK    9  A    between atoms: O8_15  and  C2_20 
REMARK   10  A    between atoms: O2_16  and  C9_17 
REMARK   11  A    between atoms: C10_18  and  C11_19 
REMARK   12  A    between atoms: C2_20  and  C1_21 
REMARK   13  A    between atoms: C6_27  and  C7_29 
REMARK   14  A    between atoms: C7_29  and  O7_30 
REMARK   15  A    between atoms: C7_29  and  C8_31 
REMARK   16  A    between atoms: C8_31  and  O8_32 
ROOT
ATOM      1  C7  KDA d          27.173  -2.828   1.861  0.00  0.00     0.083 C 
ATOM      2  H8  KDA d          27.175  -2.201   0.957  0.00  0.00     0.090 H 
ENDROOT
BRANCH   1   3
ATOM      3  C6  KDA d          27.297  -1.947   3.099  0.00  0.00     0.096 C 
ATOM      4  C5  KDA d          27.687  -0.478   2.837  0.00  0.00     0.088 C 
ATOM      5  C4  KDA d          27.863   0.259   4.181  0.00  0.00     0.068 C 
ATOM      6  H5  KDA d          26.897   0.023   2.258  0.00  0.00     0.091 H 
ATOM      7  C3  KDA d          28.783  -0.466   5.185  0.00  0.00     0.024 C 
ATOM      8  H3  KDA d          26.867   0.355   4.637  0.00  0.00     0.087 H 
ATOM      9  C2  KDA d          28.441  -1.974   5.237  0.00  0.00     0.262 C 
ATOM     10  H1  KDA d          29.830  -0.343   4.872  0.00  0.00     0.045 H 
ATOM     11  H2  KDA d          28.645  -0.028   6.185  0.00  0.00     0.045 H 
ATOM     12  O6  KDA d          28.319  -2.551   3.938  0.00  0.00    -0.335 OA
ATOM     13  H7  KDA d          26.331  -1.954   3.626  0.00  0.00     0.091 H 
BRANCH   4  14
ATOM     14  O5  KDA d          28.917  -0.506   2.054  0.00  0.00    -0.390 OA
ATOM     15  H6  KDA d          28.920   0.222   1.444  0.00  0.00     0.210 HD
ENDBRANCH   4  14
BRANCH   5  16
ATOM     16  O4  KDA d          28.403   1.565   3.975  0.00  0.00    -0.393 OA
ATOM     17  H4  KDA d          28.973   1.555   3.214  0.00  0.00     0.210 HD
ENDBRANCH   5  16
BRANCH   9  18
ATOM     18  C1  KDA d          29.589  -2.640   6.025  0.00  0.00     0.239 C 
ATOM     19  O1A KDA d          29.489  -3.862   6.289  0.00  0.00    -0.644 OA
ATOM     20  O1B KDA d          30.543  -1.888   6.348  0.00  0.00    -0.644 OA
ENDBRANCH   9  18
BRANCH   9  21
ATOM     21  O2  KDA d          27.181  -2.139   5.967  0.00  0.00    -0.317 OA
BRANCH  21  22
ATOM     22  C9  KDA d          27.439  -1.868   7.295  0.00  0.00     0.013 C 
ATOM     23  C10 KDA d          26.875  -0.822   8.016  0.00  0.00    -0.086 C 
ATOM     24  H13 KDA d          27.182  -0.670   9.050  0.00  0.00     0.079 H 
ATOM     25  H12 KDA d          28.136  -2.521   7.816  0.00  0.00     0.122 H 
BRANCH  23  26
ATOM     26  C11 KDA d          25.943   0.027   7.467  0.00  0.00    -0.058 C 
ATOM     27  H14 KDA d          25.619  -0.366   6.492  0.00  0.00     0.032 H 
ATOM     28  H15 KDA d          26.390   1.023   7.331  0.00  0.00     0.032 H 
ATOM     29  H16 KDA d          25.076   0.104   8.139  0.00  0.00     0.032 H 
ENDBRANCH  23  26
ENDBRANCH  21  22
ENDBRANCH   9  21
ENDBRANCH   1   3
BRANCH   1  30
ATOM     30  O7  KDA d          25.949  -3.567   1.947  0.00  0.00    -0.391 OA
ATOM     31  H9  KDA d          26.144  -4.487   2.083  0.00  0.00     0.210 HD
ENDBRANCH   1  30
BRANCH   1  32
ATOM     32  C8  KDA d          28.332  -3.824   1.806  0.00  0.00     0.050 C 
ATOM     33  H10 KDA d          28.073  -4.761   2.321  0.00  0.00     0.078 H 
ATOM     34  H11 KDA d          29.240  -3.399   2.255  0.00  0.00     0.078 H 
BRANCH  32  35
ATOM     35  O8  KDA d          28.510  -4.046   0.371  0.00  0.00    -0.341 OA
BRANCH  35  36
ATOM     36  C2  KDA d          29.505  -3.172  -0.261  0.00  0.00     0.276 C 
ATOM     37  C3  KDA d          30.255  -3.875  -1.206  0.00  0.00    -0.036 C 
ATOM     38  C4  KDA d          31.624  -4.197  -1.070  0.00  0.00    -0.099 C 
ATOM     39  H17 KDA d          29.748  -4.197  -2.115  0.00  0.00     0.085 H 
ATOM     40  C5  KDA d          32.373  -3.847   0.060  0.00  0.00    -0.023 C 
ATOM     41  H18 KDA d          32.115  -4.739  -1.876  0.00  0.00     0.076 H 
ATOM     42  C6  KDA d          31.473  -3.419   1.219  0.00  0.00     0.072 C 
ATOM     43  H19 KDA d          33.042  -3.013  -0.199  0.00  0.00     0.042 H 
ATOM     44  H20 KDA d          32.972  -4.714   0.375  0.00  0.00     0.042 H 
ATOM     45  O6  KDA d          30.375  -2.596   0.743  0.00  0.00    -0.335 OA
ATOM     46  H21 KDA d          31.092  -4.332   1.699  0.00  0.00     0.088 H 
BRANCH  36  47
ATOM     47  C1  KDA d          28.778  -2.022  -0.968  0.00  0.00     0.243 C 
ATOM     48  O1B KDA d          27.693  -2.283  -1.475  0.00  0.00    -0.644 OA
ATOM     49  O1A KDA d          29.338  -0.908  -0.974  0.00  0.00    -0.644 OA
ENDBRANCH  36  47
BRANCH  42  50
ATOM     50  C7  KDA d          32.106  -2.507   2.287  0.00  0.00     0.081 C 
ATOM     51  H22 KDA d          32.857  -3.093   2.838  0.00  0.00     0.090 H 
BRANCH  50  52
ATOM     52  O7  KDA d          31.093  -2.088   3.189  0.00  0.00    -0.391 OA
ATOM     53  H23 KDA d          31.388  -1.315   3.658  0.00  0.00     0.210 HD
ENDBRANCH  50  52
BRANCH  50  54
ATOM     54  C8  KDA d          32.794  -1.278   1.710  0.00  0.00     0.043 C 
ATOM     55  H24 KDA d          33.517  -1.598   0.945  0.00  0.00     0.078 H 
ATOM     56  H25 KDA d          33.323  -0.750   2.516  0.00  0.00     0.078 H 
BRANCH  54  57
ATOM     57  O8  KDA d          31.840  -0.386   1.110  0.00  0.00    -0.398 OA
ATOM     58  H26 KDA d          32.152  -0.120   0.254  0.00  0.00     0.209 HD
ENDBRANCH  54  57
ENDBRANCH  50  54
ENDBRANCH  42  50
ENDBRANCH  35  36
ENDBRANCH  32  35
ENDBRANCH   1  32
TORSDOF 16
ENDMDL
MODEL 7
REMARK VINA RESULT:      -5.2      1.881      6.277
REMARK  16 active torsions:
REMARK  status: ('A' for Active; 'I' for Inactive)
REMARK    1  A    between atoms: C1_1  and  C2_4 
REMARK    2  A    between atoms: C2_4  and  O2_16 
REMARK    3  A    between atoms: C4_6  and  O4_7 
REMARK    4  A    between atoms: C5_8  and  O5_9 
REMARK    5  A    between atoms: C6_10  and  C7_12 
REMARK    6  A    between atoms: C7_12  and  O7_13 
REMARK    7  A    between atoms: C7_12  and  C8_14 
REMARK    8  A    between atoms: C8_14  and  O8_15 
REMARK    9  A    between atoms: O8_15  and  C2_20 
REMARK   10  A    between atoms: O2_16  and  C9_17 
REMARK   11  A    between atoms: C10_18  and  C11_19 
REMARK   12  A    between atoms: C2_20  and  C1_21 
REMARK   13  A    between atoms: C6_27  and  C7_29 
REMARK   14  A    between atoms: C7_29  and  O7_30 
REMARK   15  A    between atoms: C7_29  and  C8_31 
REMARK   16  A    between atoms: C8_31  and  O8_32 
ROOT
ATOM      1  C7  KDA d          27.440  -3.245   1.775  0.00  0.00     0.083 C 
ATOM      2  H8  KDA d          27.383  -2.258   1.294  0.00  0.00     0.090 H 
ENDROOT
BRANCH   1   3
ATOM      3  C6  KDA d          27.281  -3.094   3.283  0.00  0.00     0.096 C 
ATOM      4  C5  KDA d          26.731  -1.735   3.763  0.00  0.00     0.088 C 
ATOM      5  C4  KDA d          26.713  -1.699   5.305  0.00  0.00     0.068 C 
ATOM      6  H5  KDA d          25.705  -1.593   3.393  0.00  0.00     0.091 H 
ATOM      7  C3  KDA d          28.048  -2.105   5.964  0.00  0.00     0.024 C 
ATOM      8  H3  KDA d          25.938  -2.402   5.643  0.00  0.00     0.087 H 
ATOM      9  C2  KDA d          28.620  -3.373   5.286  0.00  0.00     0.262 C 
ATOM     10  H1  KDA d          28.770  -1.282   5.858  0.00  0.00     0.045 H 
ATOM     11  H2  KDA d          27.879  -2.310   7.031  0.00  0.00     0.045 H 
ATOM     12  O6  KDA d          28.601  -3.285   3.862  0.00  0.00    -0.335 OA
ATOM     13  H7  KDA d          26.600  -3.881   3.639  0.00  0.00     0.091 H 
BRANCH   4  14
ATOM     14  O5  KDA d          27.597  -0.709   3.194  0.00  0.00    -0.390 OA
ATOM     15  H6  KDA d          27.563  -0.757   2.246  0.00  0.00     0.210 HD
ENDBRANCH   4  14
BRANCH   5  16
ATOM     16  O4  KDA d          26.386  -0.391   5.777  0.00  0.00    -0.393 OA
ATOM     17  H4  KDA d          27.068   0.217   5.519  0.00  0.00     0.210 HD
ENDBRANCH   5  16
BRANCH   9  18
ATOM     18  C1  KDA d          30.067  -3.513   5.805  0.00  0.00     0.239 C 
ATOM     19  O1A KDA d          30.997  -3.489   4.966  0.00  0.00    -0.644 OA
ATOM     20  O1B KDA d          30.194  -3.649   7.049  0.00  0.00    -0.644 OA
ENDBRANCH   9  18
BRANCH   9  21
ATOM     21  O2  KDA d          27.827  -4.527   5.717  0.00  0.00    -0.317 OA
BRANCH  21  22
ATOM     22  C9  KDA d          28.194  -5.595   4.925  0.00  0.00     0.013 C 
ATOM     23  C10 KDA d          28.761  -6.774   5.395  0.00  0.00    -0.086 C 
ATOM     24  H13 KDA d          29.056  -7.539   4.677  0.00  0.00     0.079 H 
ATOM     25  H12 KDA d          28.029  -5.508   3.853  0.00  0.00     0.122 H 
BRANCH  23  26
ATOM     26  C11 KDA d          28.961  -7.007   6.735  0.00  0.00    -0.058 C 
ATOM     27  H14 KDA d          29.992  -7.354   6.897  0.00  0.00     0.032 H 
ATOM     28  H15 KDA d          28.257  -7.777   7.083  0.00  0.00     0.032 H 
ATOM     29  H16 KDA d          28.794  -6.077   7.298  0.00  0.00     0.032 H 
ENDBRANCH  23  26
ENDBRANCH  21  22
ENDBRANCH   9  21
ENDBRANCH   1   3
BRANCH   1  30
ATOM     30  O7  KDA d          26.394  -4.095   1.288  0.00  0.00    -0.391 OA
ATOM     31  H9  KDA d          25.552  -3.743   1.553  0.00  0.00     0.210 HD
ENDBRANCH   1  30
BRANCH   1  32
ATOM     32  C8  KDA d          28.782  -3.904   1.451  0.00  0.00     0.050 C 
ATOM     33  H10 KDA d          28.777  -4.968   1.728  0.00  0.00     0.078 H 
ATOM     34  H11 KDA d          29.607  -3.395   1.968  0.00  0.00     0.078 H 
BRANCH  32  35
ATOM     35  O8  KDA d          28.890  -3.740   0.001  0.00  0.00    -0.341 OA
BRANCH  35  36
ATOM     36  C2  KDA d          29.454  -2.455  -0.426  0.00  0.00     0.276 C 
ATOM     37  C3  KDA d          30.086  -2.575  -1.664  0.00  0.00    -0.036 C 
ATOM     38  C4  KDA d          31.481  -2.482  -1.870  0.00  0.00    -0.099 C 
ATOM     39  H17 KDA d          29.458  -2.754  -2.536  0.00  0.00     0.085 H 
ATOM     40  C5  KDA d          32.386  -2.270  -0.823  0.00  0.00    -0.023 C 
ATOM     41  H18 KDA d          31.867  -2.580  -2.884  0.00  0.00     0.076 H 
ATOM     42  C6  KDA d          31.733  -2.507   0.539  0.00  0.00     0.072 C 
ATOM     43  H19 KDA d          32.749  -1.232  -0.869  0.00  0.00     0.042 H 
ATOM     44  H20 KDA d          33.234  -2.960  -0.938  0.00  0.00     0.042 H 
ATOM     45  O6  KDA d          30.387  -1.963   0.568  0.00  0.00    -0.335 OA
ATOM     46  H21 KDA d          31.715  -3.593   0.715  0.00  0.00     0.088 H 
BRANCH  36  47
ATOM     47  C1  KDA d          28.320  -1.431  -0.551  0.00  0.00     0.243 C 
ATOM     48  O1B KDA d          27.467  -1.654  -1.404  0.00  0.00    -0.644 OA
ATOM     49  O1A KDA d          28.342  -0.453   0.221  0.00  0.00    -0.644 OA
ENDBRANCH  36  47
BRANCH  42  50
ATOM     50  C7  KDA d          32.379  -1.805   1.749  0.00  0.00     0.081 C 
ATOM     51  H22 KDA d          33.342  -1.382   1.425  0.00  0.00     0.090 H 
BRANCH  50  52
ATOM     52  O7  KDA d          32.613  -2.767   2.765  0.00  0.00    -0.391 OA
ATOM     53  H23 KDA d          33.112  -3.491   2.405  0.00  0.00     0.210 HD
ENDBRANCH  50  52
BRANCH  50  54
ATOM     54  C8  KDA d          31.534  -0.676   2.320  0.00  0.00     0.043 C 
ATOM     55  H24 KDA d          31.071  -0.119   1.493  0.00  0.00     0.078 H 
ATOM     56  H25 KDA d          32.180  -0.001   2.900  0.00  0.00     0.078 H 
BRANCH  54  57
ATOM     57  O8  KDA d          30.500  -1.188   3.178  0.00  0.00    -0.398 OA
ATOM     58  H26 KDA d          29.943  -0.473   3.462  0.00  0.00     0.209 HD
ENDBRANCH  54  57
ENDBRANCH  50  54
ENDBRANCH  42  50
ENDBRANCH  35  36
ENDBRANCH  32  35
ENDBRANCH   1  32
TORSDOF 16
ENDMDL
MODEL 8
REMARK VINA RESULT:      -5.1      1.810      6.833
REMARK  16 active torsions:
REMARK  status: ('A' for Active; 'I' for Inactive)
REMARK    1  A    between atoms: C1_1  and  C2_4 
REMARK    2  A    between atoms: C2_4  and  O2_16 
REMARK    3  A    between atoms: C4_6  and  O4_7 
REMARK    4  A    between atoms: C5_8  and  O5_9 
REMARK    5  A    between atoms: C6_10  and  C7_12 
REMARK    6  A    between atoms: C7_12  and  O7_13 
REMARK    7  A    between atoms: C7_12  and  C8_14 
REMARK    8  A    between atoms: C8_14  and  O8_15 
REMARK    9  A    between atoms: O8_15  and  C2_20 
REMARK   10  A    between atoms: O2_16  and  C9_17 
REMARK   11  A    between atoms: C10_18  and  C11_19 
REMARK   12  A    between atoms: C2_20  and  C1_21 
REMARK   13  A    between atoms: C6_27  and  C7_29 
REMARK   14  A    between atoms: C7_29  and  O7_30 
REMARK   15  A    between atoms: C7_29  and  C8_31 
REMARK   16  A    between atoms: C8_31  and  O8_32 
ROOT
ATOM      1  C7  KDA d          30.026  -0.095   3.491  0.00  0.00     0.083 C 
ATOM      2  H8  KDA d          31.116   0.009   3.600  0.00  0.00     0.090 H 
ENDROOT
BRANCH   1   3
ATOM      3  C6  KDA d          29.468  -0.916   4.647  0.00  0.00     0.096 C 
ATOM      4  C5  KDA d          30.431  -1.143   5.831  0.00  0.00     0.088 C 
ATOM      5  C4  KDA d          29.762  -2.062   6.874  0.00  0.00     0.068 C 
ATOM      6  H5  KDA d          30.672  -0.182   6.308  0.00  0.00     0.091 H 
ATOM      7  C3  KDA d          29.171  -3.361   6.287  0.00  0.00     0.024 C 
ATOM      8  H3  KDA d          28.944  -1.494   7.338  0.00  0.00     0.087 H 
ATOM      9  C2  KDA d          28.380  -3.056   4.992  0.00  0.00     0.262 C 
ATOM     10  H1  KDA d          29.988  -4.060   6.055  0.00  0.00     0.045 H 
ATOM     11  H2  KDA d          28.495  -3.818   7.025  0.00  0.00     0.045 H 
ATOM     12  O6  KDA d          29.103  -2.212   4.098  0.00  0.00    -0.335 OA
ATOM     13  H7  KDA d          28.571  -0.408   5.030  0.00  0.00     0.091 H 
BRANCH   4  14
ATOM     14  O5  KDA d          31.646  -1.727   5.274  0.00  0.00    -0.390 OA
ATOM     15  H6  KDA d          31.481  -2.631   5.036  0.00  0.00     0.210 HD
ENDBRANCH   4  14
BRANCH   5  16
ATOM     16  O4  KDA d          30.695  -2.439   7.888  0.00  0.00    -0.393 OA
ATOM     17  H4  KDA d          31.088  -3.274   7.661  0.00  0.00     0.210 HD
ENDBRANCH   5  16
BRANCH   9  18
ATOM     18  C1  KDA d          28.093  -4.425   4.341  0.00  0.00     0.239 C 
ATOM     19  O1A KDA d          28.534  -4.630   3.185  0.00  0.00    -0.644 OA
ATOM     20  O1B KDA d          27.425  -5.235   5.032  0.00  0.00    -0.644 OA
ENDBRANCH   9  18
BRANCH   9  21
ATOM     21  O2  KDA d          27.117  -2.411   5.362  0.00  0.00    -0.317 OA
BRANCH  21  22
ATOM     22  C9  KDA d          26.488  -2.044   4.191  0.00  0.00     0.013 C 
ATOM     23  C10 KDA d          25.944  -0.788   3.941  0.00  0.00    -0.086 C 
ATOM     24  H13 KDA d          25.429  -0.616   2.997  0.00  0.00     0.079 H 
ATOM     25  H12 KDA d          26.410  -2.792   3.403  0.00  0.00     0.122 H 
BRANCH  23  26
ATOM     26  C11 KDA d          26.036   0.242   4.847  0.00  0.00    -0.058 C 
ATOM     27  H14 KDA d          27.045   0.255   5.286  0.00  0.00     0.032 H 
ATOM     28  H15 KDA d          25.291   0.098   5.642  0.00  0.00     0.032 H 
ATOM     29  H16 KDA d          25.847   1.198   4.336  0.00  0.00     0.032 H 
ENDBRANCH  23  26
ENDBRANCH  21  22
ENDBRANCH   9  21
ENDBRANCH   1   3
BRANCH   1  30
ATOM     30  O7  KDA d          29.403   1.196   3.505  0.00  0.00    -0.391 OA
ATOM     31  H9  KDA d          30.030   1.846   3.799  0.00  0.00     0.210 HD
ENDBRANCH   1  30
BRANCH   1  32
ATOM     32  C8  KDA d          29.698  -0.770   2.158  0.00  0.00     0.050 C 
ATOM     33  H10 KDA d          29.076  -0.119   1.527  0.00  0.00     0.078 H 
ATOM     34  H11 KDA d          29.181  -1.727   2.318  0.00  0.00     0.078 H 
BRANCH  32  35
ATOM     35  O8  KDA d          31.017  -0.979   1.560  0.00  0.00    -0.341 OA
BRANCH  35  36
ATOM     36  C2  KDA d          31.178  -2.267   0.875  0.00  0.00     0.276 C 
ATOM     37  C3  KDA d          32.120  -2.170  -0.151  0.00  0.00    -0.036 C 
ATOM     38  C4  KDA d          31.820  -2.247  -1.529  0.00  0.00    -0.099 C 
ATOM     39  H17 KDA d          33.162  -2.026   0.133  0.00  0.00     0.085 H 
ATOM     40  C5  KDA d          30.516  -2.417  -2.010  0.00  0.00    -0.023 C 
ATOM     41  H18 KDA d          32.636  -2.172  -2.246  0.00  0.00     0.076 H 
ATOM     42  C6  KDA d          29.478  -2.152  -0.920  0.00  0.00     0.072 C 
ATOM     43  H19 KDA d          30.399  -3.449  -2.371  0.00  0.00     0.042 H 
ATOM     44  H20 KDA d          30.348  -1.716  -2.841  0.00  0.00     0.042 H 
ATOM     45  O6  KDA d          29.906  -2.716   0.348  0.00  0.00    -0.335 OA
ATOM     46  H21 KDA d          29.353  -1.062  -0.836  0.00  0.00     0.088 H 
BRANCH  36  47
ATOM     47  C1  KDA d          31.661  -3.311   1.889  0.00  0.00     0.243 C 
ATOM     48  O1B KDA d          31.377  -4.480   1.654  0.00  0.00    -0.644 OA
ATOM     49  O1A KDA d          32.307  -2.899   2.872  0.00  0.00    -0.644 OA
ENDBRANCH  36  47
BRANCH  42  50
ATOM     50  C7  KDA d          28.097  -2.810  -1.104  0.00  0.00     0.081 C 
ATOM     51  H22 KDA d          28.068  -3.273  -2.102  0.00  0.00     0.090 H 
BRANCH  50  52
ATOM     52  O7  KDA d          27.097  -1.806  -1.028  0.00  0.00    -0.391 OA
ATOM     53  H23 KDA d          26.665  -1.727  -1.871  0.00  0.00     0.210 HD
ENDBRANCH  50  52
BRANCH  50  54
ATOM     54  C8  KDA d          27.794  -3.889  -0.073  0.00  0.00     0.043 C 
ATOM     55  H24 KDA d          26.707  -4.045  -0.025  0.00  0.00     0.078 H 
ATOM     56  H25 KDA d          28.160  -3.559   0.911  0.00  0.00     0.078 H 
BRANCH  54  57
ATOM     57  O8  KDA d          28.432  -5.129  -0.420  0.00  0.00    -0.398 OA
ATOM     58  H26 KDA d          27.926  -5.566  -1.094  0.00  0.00     0.209 HD
ENDBRANCH  54  57
ENDBRANCH  50  54
ENDBRANCH  42  50
ENDBRANCH  35  36
ENDBRANCH  32  35
ENDBRANCH   1  32
TORSDOF 16
ENDMDL
MODEL 9
REMARK VINA RESULT:      -5.1      2.061      4.205
REMARK  16 active torsions:
REMARK  status: ('A' for Active; 'I' for Inactive)
REMARK    1  A    between atoms: C1_1  and  C2_4 
REMARK    2  A    between atoms: C2_4  and  O2_16 
REMARK    3  A    between atoms: C4_6  and  O4_7 
REMARK    4  A    between atoms: C5_8  and  O5_9 
REMARK    5  A    between atoms: C6_10  and  C7_12 
REMARK    6  A    between atoms: C7_12  and  O7_13 
REMARK    7  A    between atoms: C7_12  and  C8_14 
REMARK    8  A    between atoms: C8_14  and  O8_15 
REMARK    9  A    between atoms: O8_15  and  C2_20 
REMARK   10  A    between atoms: O2_16  and  C9_17 
REMARK   11  A    between atoms: C10_18  and  C11_19 
REMARK   12  A    between atoms: C2_20  and  C1_21 
REMARK   13  A    between atoms: C6_27  and  C7_29 
REMARK   14  A    between atoms: C7_29  and  O7_30 
REMARK   15  A    between atoms: C7_29  and  C8_31 
REMARK   16  A    between atoms: C8_31  and  O8_32 
ROOT
ATOM      1  C7  KDA d          31.349  -0.739   2.203  0.00  0.00     0.083 C 
ATOM      2  H8  KDA d          30.981   0.167   1.697  0.00  0.00     0.090 H 
ENDROOT
BRANCH   1   3
ATOM      3  C6  KDA d          30.852  -1.978   1.469  0.00  0.00     0.096 C 
ATOM      4  C5  KDA d          31.911  -2.734   0.641  0.00  0.00     0.088 C 
ATOM      5  C4  KDA d          31.243  -3.902  -0.113  0.00  0.00     0.068 C 
ATOM      6  H5  KDA d          32.689  -3.138   1.305  0.00  0.00     0.091 H 
ATOM      7  C3  KDA d          29.985  -3.503  -0.913  0.00  0.00     0.024 C 
ATOM      8  H3  KDA d          30.947  -4.652   0.636  0.00  0.00     0.087 H 
ATOM      9  C2  KDA d          29.073  -2.588  -0.063  0.00  0.00     0.262 C 
ATOM     10  H1  KDA d          30.290  -2.966  -1.823  0.00  0.00     0.045 H 
ATOM     11  H2  KDA d          29.429  -4.411  -1.192  0.00  0.00     0.045 H 
ATOM     12  O6  KDA d          29.798  -1.535   0.571  0.00  0.00    -0.335 OA
ATOM     13  H7  KDA d          30.439  -2.677   2.212  0.00  0.00     0.091 H 
BRANCH   4  14
ATOM     14  O5  KDA d          32.506  -1.758  -0.265  0.00  0.00    -0.390 OA
ATOM     15  H6  KDA d          33.422  -1.638  -0.043  0.00  0.00     0.210 HD
ENDBRANCH   4  14
BRANCH   5  16
ATOM     16  O4  KDA d          32.158  -4.504  -1.030  0.00  0.00    -0.393 OA
ATOM     17  H4  KDA d          32.265  -3.938  -1.785  0.00  0.00     0.210 HD
ENDBRANCH   5  16
BRANCH   9  18
ATOM     18  C1  KDA d          28.021  -2.017  -1.038  0.00  0.00     0.239 C 
ATOM     19  O1A KDA d          27.818  -0.780  -1.024  0.00  0.00    -0.644 OA
ATOM     20  O1B KDA d          27.442  -2.855  -1.775  0.00  0.00    -0.644 OA
ENDBRANCH   9  18
BRANCH   9  21
ATOM     21  O2  KDA d          28.410  -3.408   0.953  0.00  0.00    -0.317 OA
BRANCH  21  22
ATOM     22  C9  KDA d          27.442  -2.623   1.545  0.00  0.00     0.013 C 
ATOM     23  C10 KDA d          26.417  -3.100   2.354  0.00  0.00    -0.086 C 
ATOM     24  H13 KDA d          25.677  -2.398   2.736  0.00  0.00     0.079 H 
ATOM     25  H12 KDA d          27.483  -1.551   1.365  0.00  0.00     0.122 H 
BRANCH  23  26
ATOM     26  C11 KDA d          26.307  -4.430   2.688  0.00  0.00    -0.058 C 
ATOM     27  H14 KDA d          27.262  -4.783   3.105  0.00  0.00     0.032 H 
ATOM     28  H15 KDA d          26.060  -5.014   1.790  0.00  0.00     0.032 H 
ATOM     29  H16 KDA d          25.511  -4.555   3.437  0.00  0.00     0.032 H 
ENDBRANCH  23  26
ENDBRANCH  21  22
ENDBRANCH   9  21
ENDBRANCH   1   3
BRANCH   1  30
ATOM     30  O7  KDA d          32.782  -0.754   2.207  0.00  0.00    -0.391 OA
ATOM     31  H9  KDA d          33.106   0.078   2.531  0.00  0.00     0.210 HD
ENDBRANCH   1  30
BRANCH   1  32
ATOM     32  C8  KDA d          30.866  -0.757   3.654  0.00  0.00     0.050 C 
ATOM     33  H10 KDA d          30.581   0.251   3.989  0.00  0.00     0.078 H 
ATOM     34  H11 KDA d          31.640  -1.159   4.323  0.00  0.00     0.078 H 
BRANCH  32  35
ATOM     35  O8  KDA d          29.702  -1.642   3.605  0.00  0.00    -0.341 OA
BRANCH  35  36
ATOM     36  C2  KDA d          29.618  -2.599   4.714  0.00  0.00     0.276 C 
ATOM     37  C3  KDA d          30.698  -2.447   5.585  0.00  0.00    -0.036 C 
ATOM     38  C4  KDA d          31.738  -3.388   5.750  0.00  0.00    -0.099 C 
ATOM     39  H17 KDA d          30.741  -1.537   6.182  0.00  0.00     0.085 H 
ATOM     40  C5  KDA d          31.795  -4.586   5.026  0.00  0.00    -0.023 C 
ATOM     41  H18 KDA d          32.528  -3.173   6.469  0.00  0.00     0.076 H 
ATOM     42  C6  KDA d          30.834  -4.568   3.837  0.00  0.00     0.072 C 
ATOM     43  H19 KDA d          31.524  -5.419   5.691  0.00  0.00     0.042 H 
ATOM     44  H20 KDA d          32.820  -4.730   4.655  0.00  0.00     0.042 H 
ATOM     45  O6  KDA d          29.571  -3.954   4.205  0.00  0.00    -0.335 OA
ATOM     46  H21 KDA d          31.318  -4.003   3.027  0.00  0.00     0.088 H 
BRANCH  36  47
ATOM     47  C1  KDA d          28.320  -2.344   5.491  0.00  0.00     0.243 C 
ATOM     48  O1B KDA d          27.623  -3.322   5.735  0.00  0.00    -0.644 OA
ATOM     49  O1A KDA d          28.071  -1.168   5.820  0.00  0.00    -0.644 OA
ENDBRANCH  36  47
BRANCH  42  50
ATOM     50  C7  KDA d          30.372  -5.936   3.300  0.00  0.00     0.081 C 
ATOM     51  H22 KDA d          31.254  -6.469   2.915  0.00  0.00     0.090 H 
BRANCH  50  52
ATOM     52  O7  KDA d          29.457  -5.724   2.236  0.00  0.00    -0.391 OA
ATOM     53  H23 KDA d          29.295  -4.792   2.140  0.00  0.00     0.210 HD
ENDBRANCH  50  52
BRANCH  50  54
ATOM     54  C8  KDA d          29.711  -6.812   4.354  0.00  0.00     0.043 C 
ATOM     55  H24 KDA d          30.321  -6.796   5.269  0.00  0.00     0.078 H 
ATOM     56  H25 KDA d          29.646  -7.843   3.975  0.00  0.00     0.078 H 
BRANCH  54  57
ATOM     57  O8  KDA d          28.389  -6.341   4.662  0.00  0.00    -0.398 OA
ATOM     58  H26 KDA d          27.883  -7.048   5.045  0.00  0.00     0.209 HD
ENDBRANCH  54  57
ENDBRANCH  50  54
ENDBRANCH  42  50
ENDBRANCH  35  36
ENDBRANCH  32  35
ENDBRANCH   1  32
TORSDOF 16
ENDMDL
MODEL 10
REMARK VINA RESULT:      -4.9      1.901      3.783
REMARK  16 active torsions:
REMARK  status: ('A' for Active; 'I' for Inactive)
REMARK    1  A    between atoms: C1_1  and  C2_4 
REMARK    2  A    between atoms: C2_4  and  O2_16 
REMARK    3  A    between atoms: C4_6  and  O4_7 
REMARK    4  A    between atoms: C5_8  and  O5_9 
REMARK    5  A    between atoms: C6_10  and  C7_12 
REMARK    6  A    between atoms: C7_12  and  O7_13 
REMARK    7  A    between atoms: C7_12  and  C8_14 
REMARK    8  A    between atoms: C8_14  and  O8_15 
REMARK    9  A    between atoms: O8_15  and  C2_20 
REMARK   10  A    between atoms: O2_16  and  C9_17 
REMARK   11  A    between atoms: C10_18  and  C11_19 
REMARK   12  A    between atoms: C2_20  and  C1_21 
REMARK   13  A    between atoms: C6_27  and  C7_29 
REMARK   14  A    between atoms: C7_29  and  O7_30 
REMARK   15  A    between atoms: C7_29  and  C8_31 
REMARK   16  A    between atoms: C8_31  and  O8_32 
ROOT
ATOM      1  C7  KDA d          29.044  -5.819   2.470  0.00  0.00     0.083 C 
ATOM      2  H8  KDA d          29.202  -6.779   1.956  0.00  0.00     0.090 H 
ENDROOT
BRANCH   1   3
ATOM      3  C6  KDA d          29.281  -4.669   1.498  0.00  0.00     0.096 C 
ATOM      4  C5  KDA d          28.178  -4.450   0.442  0.00  0.00     0.088 C 
ATOM      5  C4  KDA d          28.599  -3.319  -0.520  0.00  0.00     0.068 C 
ATOM      6  H5  KDA d          27.237  -4.164   0.935  0.00  0.00     0.091 H 
ATOM      7  C3  KDA d          30.014  -3.486  -1.113  0.00  0.00     0.024 C 
ATOM      8  H3  KDA d          28.576  -2.377   0.047  0.00  0.00     0.087 H 
ATOM      9  C2  KDA d          31.017  -3.894  -0.007  0.00  0.00     0.262 C 
ATOM     10  H1  KDA d          29.993  -4.266  -1.888  0.00  0.00     0.045 H 
ATOM     11  H2  KDA d          30.335  -2.534  -1.560  0.00  0.00     0.045 H 
ATOM     12  O6  KDA d          30.527  -4.957   0.807  0.00  0.00    -0.335 OA
ATOM     13  H7  KDA d          29.383  -3.741   2.080  0.00  0.00     0.091 H 
BRANCH   4  14
ATOM     14  O5  KDA d          27.999  -5.724  -0.245  0.00  0.00    -0.390 OA
ATOM     15  H6  KDA d          28.833  -6.176  -0.294  0.00  0.00     0.210 HD
ENDBRANCH   4  14
BRANCH   5  16
ATOM     16  O4  KDA d          27.688  -3.220  -1.615  0.00  0.00    -0.393 OA
ATOM     17  H4  KDA d          27.507  -4.089  -1.954  0.00  0.00     0.210 HD
ENDBRANCH   5  16
BRANCH   9  18
ATOM     18  C1  KDA d          32.306  -4.318  -0.743  0.00  0.00     0.239 C 
ATOM     19  O1A KDA d          32.959  -5.281  -0.275  0.00  0.00    -0.644 OA
ATOM     20  O1B KDA d          32.603  -3.648  -1.765  0.00  0.00    -0.644 OA
ENDBRANCH   9  18
BRANCH   9  21
ATOM     21  O2  KDA d          31.289  -2.721   0.828  0.00  0.00    -0.317 OA
BRANCH  21  22
ATOM     22  C9  KDA d          30.941  -1.607   0.094  0.00  0.00     0.013 C 
ATOM     23  C10 KDA d          30.929  -0.305   0.582  0.00  0.00    -0.086 C 
ATOM     24  H13 KDA d          30.595   0.500  -0.071  0.00  0.00     0.079 H 
ATOM     25  H12 KDA d          30.653  -1.757  -0.946  0.00  0.00     0.122 H 
BRANCH  23  26
ATOM     26  C11 KDA d          31.327  -0.000   1.863  0.00  0.00    -0.058 C 
ATOM     27  H14 KDA d          31.442   1.089   1.961  0.00  0.00     0.032 H 
ATOM     28  H15 KDA d          32.288  -0.491   2.075  0.00  0.00     0.032 H 
ATOM     29  H16 KDA d          30.569  -0.355   2.576  0.00  0.00     0.032 H 
ENDBRANCH  23  26
ENDBRANCH  21  22
ENDBRANCH   9  21
ENDBRANCH   1   3
BRANCH   1  30
ATOM     30  O7  KDA d          27.700  -5.735   2.959  0.00  0.00    -0.391 OA
ATOM     31  H9  KDA d          27.158  -5.289   2.319  0.00  0.00     0.210 HD
ENDBRANCH   1  30
BRANCH   1  32
ATOM     32  C8  KDA d          29.996  -5.705   3.662  0.00  0.00     0.050 C 
ATOM     33  H10 KDA d          30.819  -5.009   3.446  0.00  0.00     0.078 H 
ATOM     34  H11 KDA d          30.409  -6.687   3.933  0.00  0.00     0.078 H 
BRANCH  32  35
ATOM     35  O8  KDA d          29.134  -5.187   4.725  0.00  0.00    -0.341 OA
BRANCH  35  36
ATOM     36  C2  KDA d          29.362  -3.776   5.059  0.00  0.00     0.276 C 
ATOM     37  C3  KDA d          29.026  -3.520   6.389  0.00  0.00    -0.036 C 
ATOM     38  C4  KDA d          27.927  -2.736   6.807  0.00  0.00    -0.099 C 
ATOM     39  H17 KDA d          29.658  -3.955   7.162  0.00  0.00     0.085 H 
ATOM     40  C5  KDA d          27.039  -2.140   5.903  0.00  0.00    -0.023 C 
ATOM     41  H18 KDA d          27.764  -2.591   7.874  0.00  0.00     0.076 H 
ATOM     42  C6  KDA d          27.194  -2.722   4.498  0.00  0.00     0.072 C 
ATOM     43  H19 KDA d          27.238  -1.059   5.866  0.00  0.00     0.042 H 
ATOM     44  H20 KDA d          26.009  -2.311   6.249  0.00  0.00     0.042 H 
ATOM     45  O6  KDA d          28.595  -2.922   4.175  0.00  0.00    -0.335 OA
ATOM     46  H21 KDA d          26.650  -3.677   4.471  0.00  0.00     0.088 H 
BRANCH  36  47
ATOM     47  C1  KDA d          30.846  -3.451   4.856  0.00  0.00     0.243 C 
ATOM     48  O1B KDA d          31.135  -2.787   3.866  0.00  0.00    -0.644 OA
ATOM     49  O1A KDA d          31.649  -3.878   5.708  0.00  0.00    -0.644 OA
ENDBRANCH  36  47
BRANCH  42  50
ATOM     50  C7  KDA d          26.728  -1.836   3.327  0.00  0.00     0.081 C 
ATOM     51  H22 KDA d          26.087  -1.040   3.733  0.00  0.00     0.090 H 
BRANCH  50  52
ATOM     52  O7  KDA d          25.968  -2.630   2.428  0.00  0.00    -0.391 OA
ATOM     53  H23 KDA d          25.045  -2.552   2.641  0.00  0.00     0.210 HD
ENDBRANCH  50  52
BRANCH  50  54
ATOM     54  C8  KDA d          27.871  -1.182   2.565  0.00  0.00     0.043 C 
ATOM     55  H24 KDA d          27.583  -1.072   1.509  0.00  0.00     0.078 H 
ATOM     56  H25 KDA d          28.763  -1.822   2.635  0.00  0.00     0.078 H 
BRANCH  54  57
ATOM     57  O8  KDA d          28.178   0.113   3.106  0.00  0.00    -0.398 OA
ATOM     58  H26 KDA d          28.208   0.060   4.054  0.00  0.00     0.209 HD
ENDBRANCH  54  57
ENDBRANCH  50  54
ENDBRANCH  42  50
ENDBRANCH  35  36
ENDBRANCH  32  35
ENDBRANCH   1  32
TORSDOF 16
ENDMDL
