MODEL 1
REMARK VINA RESULT:      -9.5      0.000      0.000
REMARK  5 active torsions:
REMARK  status: ('A' for Active; 'I' for Inactive)
REMARK    1  A    between atoms: C_2  and  CA_4 
REMARK    2  A    between atoms: CA_4  and  N_5 
REMARK    3  A    between atoms: CA_4  and  CB_6 
REMARK    4  A    between atoms: CB_6  and  CAS_7 
REMARK    5  A    between atoms: CAS_7  and  CAN_9 
ROOT
ATOM      1  CAS MS8 d           1.198  44.309   2.607  0.00  0.00     0.154 C 
ATOM      2  CAJ MS8 d           2.659  44.759   2.722  0.00  0.00     0.000 C 
ATOM      3  OAL MS8 d           1.159  43.006   3.201  0.00  0.00    -0.361 OA
ATOM      4  CAR MS8 d           2.409  42.436   2.792  0.00  0.00     0.065 C 
ATOM      5  CAQ MS8 d           3.363  43.517   3.271  0.00  0.00     0.066 C 
ATOM      6  CAH MS8 d           2.650  41.109   3.515  0.00  0.00    -0.036 C 
ATOM      7  CAP MS8 d           2.765  41.325   5.024  0.00  0.00    -0.043 C 
ATOM      8  CAG MS8 d           3.829  42.387   5.303  0.00  0.00     0.020 C 
ATOM      9  OAK MS8 d           3.393  43.617   4.704  0.00  0.00    -0.383 OA
ATOM     10  H7  MS8 d           2.757  45.608   3.416  0.00  0.00     0.042 H 
ATOM     11  H8  MS8 d           3.064  45.041   1.740  0.00  0.00     0.042 H 
ATOM     12  H9  MS8 d           2.465  42.287   1.704  0.00  0.00     0.087 H 
ATOM     13  H10 MS8 d           4.379  43.383   2.870  0.00  0.00     0.087 H 
ATOM     14  H11 MS8 d           3.583  40.660   3.142  0.00  0.00     0.036 H 
ATOM     15  H12 MS8 d           1.809  40.430   3.311  0.00  0.00     0.036 H 
ATOM     16  H13 MS8 d           3.054  40.380   5.509  0.00  0.00     0.036 H 
ATOM     17  H14 MS8 d           1.797  41.660   5.422  0.00  0.00     0.036 H 
ATOM     18  H15 MS8 d           4.789  42.078   4.864  0.00  0.00     0.074 H 
ATOM     19  H16 MS8 d           3.947  42.521   6.389  0.00  0.00     0.074 H 
ENDROOT
BRANCH   1  20
ATOM     20  CB  MS8 d           0.831  44.227   1.124  0.00  0.00     0.010 C 
ATOM     21  H5  MS8 d           0.853  45.238   0.693  0.00  0.00     0.042 H 
ATOM     22  H6  MS8 d           1.565  43.592   0.608  0.00  0.00     0.042 H 
BRANCH  20  23
ATOM     23  CA  MS8 d          -0.567  43.632   0.933  0.00  0.00     0.185 C 
ATOM     24  H1  MS8 d          -1.249  44.065   1.680  0.00  0.00     0.101 H 
BRANCH  23  25
ATOM     25  C   MS8 d          -1.056  43.999  -0.469  0.00  0.00     0.204 C 
ATOM     26  O   MS8 d          -1.013  45.210  -0.773  0.00  0.00    -0.646 OA
ATOM     27  OXT MS8 d          -1.449  43.064  -1.202  0.00  0.00    -0.646 OA
ENDBRANCH  23  25
BRANCH  23  28
ATOM     28  N   MS8 d          -0.548  42.172   1.101  0.00  0.00    -0.065 N 
ATOM     29  H2  MS8 d          -1.042  41.739   0.336  0.00  0.00     0.275 HD
ATOM     30  H3  MS8 d          -0.995  41.928   1.970  0.00  0.00     0.275 HD
ATOM     31  H4  MS8 d           0.406  41.848   1.112  0.00  0.00     0.275 HD
ENDBRANCH  23  28
ENDBRANCH  20  23
ENDBRANCH   1  20
BRANCH   1  32
ATOM     32  CAN MS8 d           0.265  45.276   3.337  0.00  0.00     0.209 C 
ATOM     33  OAC MS8 d          -0.437  46.036   2.634  0.00  0.00    -0.646 OA
ATOM     34  OAE MS8 d           0.284  45.248   4.587  0.00  0.00    -0.646 OA
ENDBRANCH   1  32
TORSDOF 5
ENDMDL
MODEL 2
REMARK VINA RESULT:      -7.0      1.723      2.001
REMARK  5 active torsions:
REMARK  status: ('A' for Active; 'I' for Inactive)
REMARK    1  A    between atoms: C_2  and  CA_4 
REMARK    2  A    between atoms: CA_4  and  N_5 
REMARK    3  A    between atoms: CA_4  and  CB_6 
REMARK    4  A    between atoms: CB_6  and  CAS_7 
REMARK    5  A    between atoms: CAS_7  and  CAN_9 
ROOT
ATOM      1  CAS MS8 d           1.902  44.318   3.628  0.00  0.00     0.154 C 
ATOM      2  CAJ MS8 d           3.386  43.937   3.623  0.00  0.00     0.000 C 
ATOM      3  OAL MS8 d           1.196  43.081   3.480  0.00  0.00    -0.361 OA
ATOM      4  CAR MS8 d           2.030  42.348   2.574  0.00  0.00     0.065 C 
ATOM      5  CAQ MS8 d           3.360  42.442   3.302  0.00  0.00     0.066 C 
ATOM      6  CAH MS8 d           1.550  40.900   2.460  0.00  0.00    -0.036 C 
ATOM      7  CAP MS8 d           1.665  40.181   3.804  0.00  0.00    -0.043 C 
ATOM      8  CAG MS8 d           3.093  40.322   4.332  0.00  0.00     0.020 C 
ATOM      9  OAK MS8 d           3.349  41.719   4.544  0.00  0.00    -0.383 OA
ATOM     10  H7  MS8 d           3.844  44.122   4.606  0.00  0.00     0.042 H 
ATOM     11  H8  MS8 d           3.936  44.497   2.852  0.00  0.00     0.042 H 
ATOM     12  H9  MS8 d           2.072  42.810   1.577  0.00  0.00     0.087 H 
ATOM     13  H10 MS8 d           4.204  42.120   2.673  0.00  0.00     0.087 H 
ATOM     14  H11 MS8 d           2.165  40.373   1.715  0.00  0.00     0.036 H 
ATOM     15  H12 MS8 d           0.498  40.894   2.137  0.00  0.00     0.036 H 
ATOM     16  H13 MS8 d           1.427  39.115   3.672  0.00  0.00     0.036 H 
ATOM     17  H14 MS8 d           0.962  40.628   4.521  0.00  0.00     0.036 H 
ATOM     18  H15 MS8 d           3.804  39.920   3.596  0.00  0.00     0.074 H 
ATOM     19  H16 MS8 d           3.196  39.775   5.281  0.00  0.00     0.074 H 
ENDROOT
BRANCH   1  20
ATOM     20  CB  MS8 d           1.630  45.229   2.428  0.00  0.00     0.010 C 
ATOM     21  H5  MS8 d           2.122  46.198   2.595  0.00  0.00     0.042 H 
ATOM     22  H6  MS8 d           2.041  44.760   1.522  0.00  0.00     0.042 H 
BRANCH  20  23
ATOM     23  CA  MS8 d           0.128  45.457   2.235  0.00  0.00     0.185 C 
ATOM     24  H1  MS8 d          -0.054  46.528   2.058  0.00  0.00     0.101 H 
BRANCH  23  25
ATOM     25  C   MS8 d          -0.325  44.659   1.013  0.00  0.00     0.204 C 
ATOM     26  O   MS8 d          -0.042  45.144  -0.103  0.00  0.00    -0.646 OA
ATOM     27  OXT MS8 d          -0.930  43.584   1.222  0.00  0.00    -0.646 OA
ENDBRANCH  23  25
BRANCH  23  28
ATOM     28  N   MS8 d          -0.627  45.041   3.426  0.00  0.00    -0.065 N 
ATOM     29  H2  MS8 d          -1.602  44.945   3.189  0.00  0.00     0.275 HD
ATOM     30  H3  MS8 d          -0.524  45.735   4.149  0.00  0.00     0.275 HD
ATOM     31  H4  MS8 d          -0.273  44.157   3.756  0.00  0.00     0.275 HD
ENDBRANCH  23  28
ENDBRANCH  20  23
ENDBRANCH   1  20
BRANCH   1  32
ATOM     32  CAN MS8 d           1.517  45.021   4.930  0.00  0.00     0.209 C 
ATOM     33  OAC MS8 d           1.825  46.228   5.043  0.00  0.00    -0.646 OA
ATOM     34  OAE MS8 d           0.937  44.331   5.797  0.00  0.00    -0.646 OA
ENDBRANCH   1  32
TORSDOF 5
ENDMDL
MODEL 3
REMARK VINA RESULT:      -6.5      2.895      5.062
REMARK  5 active torsions:
REMARK  status: ('A' for Active; 'I' for Inactive)
REMARK    1  A    between atoms: C_2  and  CA_4 
REMARK    2  A    between atoms: CA_4  and  N_5 
REMARK    3  A    between atoms: CA_4  and  CB_6 
REMARK    4  A    between atoms: CB_6  and  CAS_7 
REMARK    5  A    between atoms: CAS_7  and  CAN_9 
ROOT
ATOM      1  CAS MS8 d           2.980  43.841   4.771  0.00  0.00     0.154 C 
ATOM      2  CAJ MS8 d           1.535  43.348   4.908  0.00  0.00     0.000 C 
ATOM      3  OAL MS8 d           2.974  44.707   3.631  0.00  0.00    -0.361 OA
ATOM      4  CAR MS8 d           2.060  44.054   2.742  0.00  0.00     0.065 C 
ATOM      5  CAQ MS8 d           0.856  43.910   3.658  0.00  0.00     0.066 C 
ATOM      6  CAH MS8 d           1.752  44.949   1.541  0.00  0.00    -0.036 C 
ATOM      7  CAP MS8 d           1.052  46.233   1.985  0.00  0.00    -0.043 C 
ATOM      8  CAG MS8 d          -0.175  45.876   2.825  0.00  0.00     0.020 C 
ATOM      9  OAK MS8 d           0.279  45.181   3.997  0.00  0.00    -0.383 OA
ATOM     10  H7  MS8 d           1.068  43.743   5.823  0.00  0.00     0.042 H 
ATOM     11  H8  MS8 d           1.492  42.249   4.920  0.00  0.00     0.042 H 
ATOM     12  H9  MS8 d           2.436  43.079   2.398  0.00  0.00     0.087 H 
ATOM     13  H10 MS8 d           0.093  43.235   3.240  0.00  0.00     0.087 H 
ATOM     14  H11 MS8 d           1.098  44.405   0.843  0.00  0.00     0.036 H 
ATOM     15  H12 MS8 d           2.694  45.209   1.034  0.00  0.00     0.036 H 
ATOM     16  H13 MS8 d           0.736  46.806   1.100  0.00  0.00     0.036 H 
ATOM     17  H14 MS8 d           1.744  46.840   2.586  0.00  0.00     0.036 H 
ATOM     18  H15 MS8 d          -0.848  45.229   2.244  0.00  0.00     0.074 H 
ATOM     19  H16 MS8 d          -0.708  46.793   3.117  0.00  0.00     0.074 H 
ENDROOT
BRANCH   1  20
ATOM     20  CB  MS8 d           3.883  42.633   4.513  0.00  0.00     0.010 C 
ATOM     21  H5  MS8 d           3.954  42.463   3.429  0.00  0.00     0.042 H 
ATOM     22  H6  MS8 d           4.884  42.841   4.918  0.00  0.00     0.042 H 
BRANCH  20  23
ATOM     23  CA  MS8 d           3.326  41.372   5.182  0.00  0.00     0.185 C 
ATOM     24  H1  MS8 d           2.646  41.666   5.995  0.00  0.00     0.101 H 
BRANCH  23  25
ATOM     25  C   MS8 d           2.546  40.579   4.133  0.00  0.00     0.204 C 
ATOM     26  O   MS8 d           1.614  39.864   4.558  0.00  0.00    -0.646 OA
ATOM     27  OXT MS8 d           2.892  40.713   2.938  0.00  0.00    -0.646 OA
ENDBRANCH  23  25
BRANCH  23  28
ATOM     28  N   MS8 d           4.407  40.550   5.744  0.00  0.00    -0.065 N 
ATOM     29  H2  MS8 d           4.444  39.667   5.260  0.00  0.00     0.275 HD
ATOM     30  H3  MS8 d           4.233  40.389   6.723  0.00  0.00     0.275 HD
ATOM     31  H4  MS8 d           5.286  41.031   5.634  0.00  0.00     0.275 HD
ENDBRANCH  23  28
ENDBRANCH  20  23
ENDBRANCH   1  20
BRANCH   1  32
ATOM     32  CAN MS8 d           3.429  44.586   6.029  0.00  0.00     0.209 C 
ATOM     33  OAC MS8 d           2.697  45.514   6.437  0.00  0.00    -0.646 OA
ATOM     34  OAE MS8 d           4.507  44.223   6.549  0.00  0.00    -0.646 OA
ENDBRANCH   1  32
TORSDOF 5
ENDMDL
