MODEL 1
REMARK VINA RESULT:      -6.2      0.000      0.000
REMARK  15 active torsions:
REMARK  status: ('A' for Active; 'I' for Inactive)
REMARK    1  A    between atoms: CA_2  and  N_1 
REMARK    2  A    between atoms: C_3  and  CA_2 
REMARK    3  A    between atoms: CA_2  and  CB_5 
REMARK       I    between atoms: N_10  and  C_3 
REMARK    4  A    between atoms: CB_5  and  CG_6 
REMARK    5  A    between atoms: CG_6  and  CD_7 
REMARK    6  A    between atoms: CA_11  and  N_10 
REMARK    7  A    between atoms: C_12  and  CA_11 
REMARK    8  A    between atoms: CA_11  and  CB_14 
REMARK       I    between atoms: C_12  and  N_18 
REMARK    9  A    between atoms: CB_14  and  CG_15 
REMARK   10  A    between atoms: N_18  and  CA_19 
REMARK   11  A    between atoms: CA_19  and  C_20 
REMARK   12  A    between atoms: CA_19  and  CB_22 
REMARK   13  A    between atoms: CB_22  and  CG_23 
REMARK   14  A    between atoms: CG_23  and  CD2_25 
REMARK   15  A    between atoms: CG_23  and  CD1_24 
ROOT
ATOM      1  CA  MOL d           9.677  25.984   6.674  0.00  0.00     0.098 C 
ATOM      2  H10 MOL d          10.189  26.774   6.106  0.00  0.00     0.088 H 
ENDROOT
BRANCH   1   3
ATOM      3  C   MOL d          10.435  24.680   6.495  0.00  0.00     0.241 C 
ATOM      4  O   MOL d          10.836  24.044   7.473  0.00  0.00    -0.271 OA
ATOM      5  N   MOL d          10.582  24.271   5.239  0.00  0.00    -0.345 N 
ATOM      6  H13 MOL d          10.219  24.838   4.500  0.00  0.00     0.163 HD
BRANCH   5   7
ATOM      7  CA  MOL d          11.254  23.024   4.903  0.00  0.00     0.096 C 
ATOM      8  H14 MOL d          11.162  22.347   5.765  0.00  0.00     0.089 H 
BRANCH   7   9
ATOM      9  C   MOL d          12.733  23.204   4.612  0.00  0.00     0.196 C 
ATOM     10  OXT MOL d          13.349  22.250   4.096  0.00  0.00    -0.646 OA
ATOM     11  O   MOL d          13.260  24.300   4.901  0.00  0.00    -0.646 OA
ENDBRANCH   7   9
BRANCH   7  12
ATOM     12  CB  MOL d          10.558  22.386   3.710  0.00  0.00    -0.034 C 
ATOM     13  H15 MOL d           9.903  21.575   4.057  0.00  0.00     0.037 H 
ATOM     14  H16 MOL d          11.311  21.979   3.020  0.00  0.00     0.037 H 
BRANCH  12  15
ATOM     15  CG  MOL d           9.724  23.440   2.989  0.00  0.00    -0.059 C 
ATOM     16  H17 MOL d           9.476  24.236   3.706  0.00  0.00     0.038 H 
BRANCH  15  17
ATOM     17  CD2 MOL d           8.420  22.820   2.507  0.00  0.00    -0.073 C 
ATOM     18  H21 MOL d           8.598  22.277   1.567  0.00  0.00     0.028 H 
ATOM     19  H22 MOL d           7.678  23.615   2.338  0.00  0.00     0.028 H 
ATOM     20  H23 MOL d           8.042  22.122   3.269  0.00  0.00     0.028 H 
ENDBRANCH  15  17
BRANCH  15  21
ATOM     21  CD1 MOL d          10.515  24.058   1.876  0.00  0.00    -0.073 C 
ATOM     22  H18 MOL d          10.311  25.138   1.837  0.00  0.00     0.028 H 
ATOM     23  H19 MOL d          10.228  23.596   0.921  0.00  0.00     0.028 H 
ATOM     24  H20 MOL d          11.588  23.895   2.054  0.00  0.00     0.028 H 
ENDBRANCH  15  21
ENDBRANCH  12  15
ENDBRANCH   7  12
ENDBRANCH   5   7
ENDBRANCH   1   3
BRANCH   1  25
ATOM     25  CB  MOL d           9.616  26.398   8.142  0.00  0.00     0.043 C 
ATOM     26  H11 MOL d          10.604  26.778   8.444  0.00  0.00     0.052 H 
ATOM     27  H12 MOL d           9.360  25.517   8.749  0.00  0.00     0.052 H 
BRANCH  25  28
ATOM     28  CG  MOL d           8.582  27.478   8.385  0.00  0.00     0.175 C 
ATOM     29  OD1 MOL d           8.861  28.636   8.023  0.00  0.00    -0.648 OA
ATOM     30  OD2 MOL d           7.480  27.169   8.892  0.00  0.00    -0.648 OA
ENDBRANCH  25  28
ENDBRANCH   1  25
BRANCH   1  31
ATOM     31  N   MOL d           8.326  25.818   6.153  0.00  0.00    -0.345 N 
ATOM     32  C   MOL d           7.808  26.644   5.253  0.00  0.00     0.249 C 
ATOM     33  O   MOL d           8.407  27.636   4.824  0.00  0.00    -0.271 OA
ATOM     34  H9  MOL d           7.771  25.055   6.485  0.00  0.00     0.163 HD
BRANCH  32  35
ATOM     35  CA  MOL d           6.377  26.337   4.812  0.00  0.00     0.176 C 
ATOM     36  H4  MOL d           6.274  25.246   4.710  0.00  0.00     0.099 H 
BRANCH  35  37
ATOM     37  CB  MOL d           6.075  26.976   3.454  0.00  0.00    -0.021 C 
ATOM     38  H5  MOL d           6.475  28.001   3.457  0.00  0.00     0.037 H 
ATOM     39  H6  MOL d           4.984  27.008   3.322  0.00  0.00     0.037 H 
BRANCH  37  40
ATOM     40  CG  MOL d           6.676  26.234   2.277  0.00  0.00     0.018 C 
ATOM     41  H7  MOL d           5.892  25.616   1.815  0.00  0.00     0.049 H 
ATOM     42  H8  MOL d           7.484  25.586   2.646  0.00  0.00     0.049 H 
BRANCH  40  43
ATOM     43  CD  MOL d           7.246  27.160   1.219  0.00  0.00     0.172 C 
ATOM     44  OE1 MOL d           8.143  27.970   1.549  0.00  0.00    -0.648 OA
ATOM     45  OE2 MOL d           6.802  27.063   0.053  0.00  0.00    -0.648 OA
ENDBRANCH  40  43
ENDBRANCH  37  40
ENDBRANCH  35  37
BRANCH  35  46
ATOM     46  N   MOL d           5.408  26.805   5.839  0.00  0.00    -0.066 N 
ATOM     47  H1  MOL d           4.787  27.485   5.429  0.00  0.00     0.275 HD
ATOM     48  H2  MOL d           5.909  27.226   6.606  0.00  0.00     0.275 HD
ATOM     49  H3  MOL d           4.871  26.022   6.177  0.00  0.00     0.275 HD
ENDBRANCH  35  46
ENDBRANCH  32  35
ENDBRANCH   1  31
TORSDOF 15
ENDMDL
MODEL 2
REMARK VINA RESULT:      -6.2      2.077      6.660
REMARK  15 active torsions:
REMARK  status: ('A' for Active; 'I' for Inactive)
REMARK    1  A    between atoms: CA_2  and  N_1 
REMARK    2  A    between atoms: C_3  and  CA_2 
REMARK    3  A    between atoms: CA_2  and  CB_5 
REMARK       I    between atoms: N_10  and  C_3 
REMARK    4  A    between atoms: CB_5  and  CG_6 
REMARK    5  A    between atoms: CG_6  and  CD_7 
REMARK    6  A    between atoms: CA_11  and  N_10 
REMARK    7  A    between atoms: C_12  and  CA_11 
REMARK    8  A    between atoms: CA_11  and  CB_14 
REMARK       I    between atoms: C_12  and  N_18 
REMARK    9  A    between atoms: CB_14  and  CG_15 
REMARK   10  A    between atoms: N_18  and  CA_19 
REMARK   11  A    between atoms: CA_19  and  C_20 
REMARK   12  A    between atoms: CA_19  and  CB_22 
REMARK   13  A    between atoms: CB_22  and  CG_23 
REMARK   14  A    between atoms: CG_23  and  CD2_25 
REMARK   15  A    between atoms: CG_23  and  CD1_24 
ROOT
ATOM      1  CA  MOL d           8.190  25.685   3.591  0.00  0.00     0.098 C 
ATOM      2  H10 MOL d           8.351  26.134   2.599  0.00  0.00     0.088 H 
ENDROOT
BRANCH   1   3
ATOM      3  C   MOL d           7.922  26.793   4.594  0.00  0.00     0.241 C 
ATOM      4  O   MOL d           8.143  27.972   4.308  0.00  0.00    -0.271 OA
ATOM      5  N   MOL d           7.398  26.402   5.753  0.00  0.00    -0.345 N 
ATOM      6  H13 MOL d           7.238  25.427   5.906  0.00  0.00     0.163 HD
BRANCH   5   7
ATOM      7  CA  MOL d           7.052  27.346   6.805  0.00  0.00     0.096 C 
ATOM      8  H14 MOL d           6.884  28.327   6.337  0.00  0.00     0.089 H 
BRANCH   7   9
ATOM      9  C   MOL d           8.146  27.508   7.844  0.00  0.00     0.196 C 
ATOM     10  OXT MOL d           8.834  28.549   7.813  0.00  0.00    -0.646 OA
ATOM     11  O   MOL d           8.304  26.592   8.679  0.00  0.00    -0.646 OA
ENDBRANCH   7   9
BRANCH   7  12
ATOM     12  CB  MOL d           5.758  26.899   7.471  0.00  0.00    -0.034 C 
ATOM     13  H15 MOL d           5.716  27.297   8.495  0.00  0.00     0.037 H 
ATOM     14  H16 MOL d           5.722  25.801   7.503  0.00  0.00     0.037 H 
BRANCH  12  15
ATOM     15  CG  MOL d           4.571  27.425   6.671  0.00  0.00    -0.059 C 
ATOM     16  H17 MOL d           4.954  28.050   5.852  0.00  0.00     0.038 H 
BRANCH  15  17
ATOM     17  CD2 MOL d           3.701  28.301   7.561  0.00  0.00    -0.073 C 
ATOM     18  H21 MOL d           3.151  27.668   8.273  0.00  0.00     0.028 H 
ATOM     19  H22 MOL d           2.986  28.859   6.938  0.00  0.00     0.028 H 
ATOM     20  H23 MOL d           4.337  29.009   8.113  0.00  0.00     0.028 H 
ENDBRANCH  15  17
BRANCH  15  21
ATOM     21  CD1 MOL d           3.810  26.287   6.060  0.00  0.00    -0.073 C 
ATOM     22  H18 MOL d           4.132  26.149   5.018  0.00  0.00     0.028 H 
ATOM     23  H19 MOL d           2.734  26.511   6.084  0.00  0.00     0.028 H 
ATOM     24  H20 MOL d           4.006  25.366   6.629  0.00  0.00     0.028 H 
ENDBRANCH  15  21
ENDBRANCH  12  15
ENDBRANCH   7  12
ENDBRANCH   5   7
ENDBRANCH   1   3
BRANCH   1  25
ATOM     25  CB  MOL d           7.014  24.715   3.502  0.00  0.00     0.043 C 
ATOM     26  H11 MOL d           6.355  24.876   4.368  0.00  0.00     0.052 H 
ATOM     27  H12 MOL d           7.402  23.686   3.522  0.00  0.00     0.052 H 
BRANCH  25  28
ATOM     28  CG  MOL d           6.211  24.911   2.233  0.00  0.00     0.175 C 
ATOM     29  OD1 MOL d           4.991  24.665   2.278  0.00  0.00    -0.648 OA
ATOM     30  OD2 MOL d           6.780  25.349   1.207  0.00  0.00    -0.648 OA
ENDBRANCH  25  28
ENDBRANCH   1  25
BRANCH   1  31
ATOM     31  N   MOL d           9.392  24.967   3.992  0.00  0.00    -0.345 N 
ATOM     32  C   MOL d          10.192  24.378   3.112  0.00  0.00     0.249 C 
ATOM     33  O   MOL d           9.958  24.353   1.899  0.00  0.00    -0.271 OA
ATOM     34  H9  MOL d           9.622  24.916   4.964  0.00  0.00     0.163 HD
BRANCH  32  35
ATOM     35  CA  MOL d          11.410  23.662   3.694  0.00  0.00     0.176 C 
ATOM     36  H4  MOL d          11.806  22.976   2.930  0.00  0.00     0.099 H 
BRANCH  35  37
ATOM     37  CB  MOL d          11.022  22.837   4.924  0.00  0.00    -0.021 C 
ATOM     38  H5  MOL d          11.376  21.806   4.775  0.00  0.00     0.037 H 
ATOM     39  H6  MOL d           9.926  22.840   5.011  0.00  0.00     0.037 H 
BRANCH  37  40
ATOM     40  CG  MOL d          11.605  23.356   6.223  0.00  0.00     0.018 C 
ATOM     41  H7  MOL d          12.415  24.062   5.987  0.00  0.00     0.049 H 
ATOM     42  H8  MOL d          12.013  22.506   6.789  0.00  0.00     0.049 H 
BRANCH  40  43
ATOM     43  CD  MOL d          10.584  24.067   7.090  0.00  0.00     0.172 C 
ATOM     44  OE1 MOL d          10.962  24.573   8.173  0.00  0.00    -0.648 OA
ATOM     45  OE2 MOL d           9.404  24.130   6.677  0.00  0.00    -0.648 OA
ENDBRANCH  40  43
ENDBRANCH  37  40
ENDBRANCH  35  37
BRANCH  35  46
ATOM     46  N   MOL d          12.473  24.645   4.037  0.00  0.00    -0.066 N 
ATOM     47  H1  MOL d          12.340  25.486   3.498  0.00  0.00     0.275 HD
ATOM     48  H2  MOL d          13.376  24.250   3.827  0.00  0.00     0.275 HD
ATOM     49  H3  MOL d          12.422  24.866   5.019  0.00  0.00     0.275 HD
ENDBRANCH  35  46
ENDBRANCH  32  35
ENDBRANCH   1  31
TORSDOF 15
ENDMDL
MODEL 3
REMARK VINA RESULT:      -6.2      1.878      4.767
REMARK  15 active torsions:
REMARK  status: ('A' for Active; 'I' for Inactive)
REMARK    1  A    between atoms: CA_2  and  N_1 
REMARK    2  A    between atoms: C_3  and  CA_2 
REMARK    3  A    between atoms: CA_2  and  CB_5 
REMARK       I    between atoms: N_10  and  C_3 
REMARK    4  A    between atoms: CB_5  and  CG_6 
REMARK    5  A    between atoms: CG_6  and  CD_7 
REMARK    6  A    between atoms: CA_11  and  N_10 
REMARK    7  A    between atoms: C_12  and  CA_11 
REMARK    8  A    between atoms: CA_11  and  CB_14 
REMARK       I    between atoms: C_12  and  N_18 
REMARK    9  A    between atoms: CB_14  and  CG_15 
REMARK   10  A    between atoms: N_18  and  CA_19 
REMARK   11  A    between atoms: CA_19  and  C_20 
REMARK   12  A    between atoms: CA_19  and  CB_22 
REMARK   13  A    between atoms: CB_22  and  CG_23 
REMARK   14  A    between atoms: CG_23  and  CD2_25 
REMARK   15  A    between atoms: CG_23  and  CD1_24 
ROOT
ATOM      1  CA  MOL d           7.095  25.875   3.557  0.00  0.00     0.098 C 
ATOM      2  H10 MOL d           6.069  25.540   3.345  0.00  0.00     0.088 H 
ENDROOT
BRANCH   1   3
ATOM      3  C   MOL d           7.991  24.657   3.694  0.00  0.00     0.241 C 
ATOM      4  O   MOL d           7.794  23.648   3.013  0.00  0.00    -0.271 OA
ATOM      5  N   MOL d           9.004  24.784   4.546  0.00  0.00    -0.345 N 
ATOM      6  H13 MOL d           9.104  25.640   5.054  0.00  0.00     0.163 HD
BRANCH   5   7
ATOM      7  CA  MOL d           9.973  23.721   4.763  0.00  0.00     0.096 C 
ATOM      8  H14 MOL d           9.618  22.825   4.231  0.00  0.00     0.089 H 
BRANCH   7   9
ATOM      9  C   MOL d          10.138  23.355   6.227  0.00  0.00     0.196 C 
ATOM     10  OXT MOL d          10.972  22.475   6.521  0.00  0.00    -0.646 OA
ATOM     11  O   MOL d           9.432  23.954   7.066  0.00  0.00    -0.646 OA
ENDBRANCH   7   9
BRANCH   7  12
ATOM     12  CB  MOL d          11.313  24.135   4.172  0.00  0.00    -0.034 C 
ATOM     13  H15 MOL d          12.119  23.883   4.875  0.00  0.00     0.037 H 
ATOM     14  H16 MOL d          11.313  25.219   3.988  0.00  0.00     0.037 H 
BRANCH  12  15
ATOM     15  CG  MOL d          11.535  23.396   2.857  0.00  0.00    -0.059 C 
ATOM     16  H17 MOL d          12.617  23.251   2.719  0.00  0.00     0.038 H 
BRANCH  15  17
ATOM     17  CD2 MOL d          11.027  24.243   1.700  0.00  0.00    -0.073 C 
ATOM     18  H21 MOL d          11.602  24.007   0.792  0.00  0.00     0.028 H 
ATOM     19  H22 MOL d          11.149  25.309   1.945  0.00  0.00     0.028 H 
ATOM     20  H23 MOL d           9.962  24.027   1.527  0.00  0.00     0.028 H 
ENDBRANCH  15  17
BRANCH  15  21
ATOM     21  CD1 MOL d          10.895  22.042   2.906  0.00  0.00    -0.073 C 
ATOM     22  H18 MOL d          11.000  21.551   1.927  0.00  0.00     0.028 H 
ATOM     23  H19 MOL d           9.828  22.150   3.150  0.00  0.00     0.028 H 
ATOM     24  H20 MOL d          11.387  21.431   3.677  0.00  0.00     0.028 H 
ENDBRANCH  15  21
ENDBRANCH  12  15
ENDBRANCH   7  12
ENDBRANCH   5   7
ENDBRANCH   1   3
BRANCH   1  25
ATOM     25  CB  MOL d           7.556  26.784   2.420  0.00  0.00     0.043 C 
ATOM     26  H11 MOL d           8.564  26.475   2.106  0.00  0.00     0.052 H 
ATOM     27  H12 MOL d           7.586  27.821   2.786  0.00  0.00     0.052 H 
BRANCH  25  28
ATOM     28  CG  MOL d           6.628  26.713   1.225  0.00  0.00     0.175 C 
ATOM     29  OD1 MOL d           5.484  26.259   1.409  0.00  0.00    -0.648 OA
ATOM     30  OD2 MOL d           7.019  27.147   0.118  0.00  0.00    -0.648 OA
ENDBRANCH  25  28
ENDBRANCH   1  25
BRANCH   1  31
ATOM     31  N   MOL d           7.107  26.612   4.813  0.00  0.00    -0.345 N 
ATOM     32  C   MOL d           5.993  27.031   5.400  0.00  0.00     0.249 C 
ATOM     33  O   MOL d           4.870  26.870   4.909  0.00  0.00    -0.271 OA
ATOM     34  H9  MOL d           7.986  26.810   5.248  0.00  0.00     0.163 HD
BRANCH  32  35
ATOM     35  CA  MOL d           6.176  27.794   6.711  0.00  0.00     0.176 C 
ATOM     36  H4  MOL d           7.114  28.367   6.649  0.00  0.00     0.099 H 
BRANCH  35  37
ATOM     37  CB  MOL d           6.280  26.830   7.895  0.00  0.00    -0.021 C 
ATOM     38  H5  MOL d           6.073  25.812   7.532  0.00  0.00     0.037 H 
ATOM     39  H6  MOL d           5.523  27.114   8.640  0.00  0.00     0.037 H 
BRANCH  37  40
ATOM     40  CG  MOL d           7.637  26.827   8.571  0.00  0.00     0.018 C 
ATOM     41  H7  MOL d           7.955  25.784   8.716  0.00  0.00     0.049 H 
ATOM     42  H8  MOL d           7.542  27.321   9.549  0.00  0.00     0.049 H 
BRANCH  40  43
ATOM     43  CD  MOL d           8.702  27.548   7.768  0.00  0.00     0.172 C 
ATOM     44  OE1 MOL d           9.029  28.709   8.107  0.00  0.00    -0.648 OA
ATOM     45  OE2 MOL d           9.223  26.942   6.804  0.00  0.00    -0.648 OA
ENDBRANCH  40  43
ENDBRANCH  37  40
ENDBRANCH  35  37
BRANCH  35  46
ATOM     46  N   MOL d           5.055  28.752   6.912  0.00  0.00    -0.066 N 
ATOM     47  H1  MOL d           5.426  29.657   7.156  0.00  0.00     0.275 HD
ATOM     48  H2  MOL d           4.461  28.420   7.656  0.00  0.00     0.275 HD
ATOM     49  H3  MOL d           4.520  28.827   6.062  0.00  0.00     0.275 HD
ENDBRANCH  35  46
ENDBRANCH  32  35
ENDBRANCH   1  31
TORSDOF 15
ENDMDL
MODEL 4
REMARK VINA RESULT:      -6.1      2.041      4.591
REMARK  15 active torsions:
REMARK  status: ('A' for Active; 'I' for Inactive)
REMARK    1  A    between atoms: CA_2  and  N_1 
REMARK    2  A    between atoms: C_3  and  CA_2 
REMARK    3  A    between atoms: CA_2  and  CB_5 
REMARK       I    between atoms: N_10  and  C_3 
REMARK    4  A    between atoms: CB_5  and  CG_6 
REMARK    5  A    between atoms: CG_6  and  CD_7 
REMARK    6  A    between atoms: CA_11  and  N_10 
REMARK    7  A    between atoms: C_12  and  CA_11 
REMARK    8  A    between atoms: CA_11  and  CB_14 
REMARK       I    between atoms: C_12  and  N_18 
REMARK    9  A    between atoms: CB_14  and  CG_15 
REMARK   10  A    between atoms: N_18  and  CA_19 
REMARK   11  A    between atoms: CA_19  and  C_20 
REMARK   12  A    between atoms: CA_19  and  CB_22 
REMARK   13  A    between atoms: CB_22  and  CG_23 
REMARK   14  A    between atoms: CG_23  and  CD2_25 
REMARK   15  A    between atoms: CG_23  and  CD1_24 
ROOT
ATOM      1  CA  MOL d           7.496  24.791   2.233  0.00  0.00     0.098 C 
ATOM      2  H10 MOL d           6.937  24.057   1.634  0.00  0.00     0.088 H 
ENDROOT
BRANCH   1   3
ATOM      3  C   MOL d           8.452  24.050   3.151  0.00  0.00     0.241 C 
ATOM      4  O   MOL d           8.467  22.817   3.186  0.00  0.00    -0.271 OA
ATOM      5  N   MOL d           9.281  24.816   3.854  0.00  0.00    -0.345 N 
ATOM      6  H13 MOL d           9.215  25.810   3.764  0.00  0.00     0.163 HD
BRANCH   5   7
ATOM      7  CA  MOL d          10.280  24.257   4.752  0.00  0.00     0.096 C 
ATOM      8  H14 MOL d           9.961  23.239   5.023  0.00  0.00     0.089 H 
BRANCH   7   9
ATOM      9  C   MOL d          10.438  25.050   6.037  0.00  0.00     0.196 C 
ATOM     10  OXT MOL d          11.493  25.695   6.202  0.00  0.00    -0.646 OA
ATOM     11  O   MOL d           9.502  25.020   6.865  0.00  0.00    -0.646 OA
ENDBRANCH   7   9
BRANCH   7  12
ATOM     12  CB  MOL d          11.614  24.169   4.024  0.00  0.00    -0.034 C 
ATOM     13  H15 MOL d          12.369  24.754   4.568  0.00  0.00     0.037 H 
ATOM     14  H16 MOL d          11.503  24.570   3.006  0.00  0.00     0.037 H 
BRANCH  12  15
ATOM     15  CG  MOL d          12.055  22.711   3.952  0.00  0.00    -0.059 C 
ATOM     16  H17 MOL d          13.144  22.670   4.095  0.00  0.00     0.038 H 
BRANCH  15  17
ATOM     17  CD2 MOL d          11.744  22.149   2.572  0.00  0.00    -0.073 C 
ATOM     18  H21 MOL d          12.577  21.511   2.240  0.00  0.00     0.028 H 
ATOM     19  H22 MOL d          11.610  22.977   1.861  0.00  0.00     0.028 H 
ATOM     20  H23 MOL d          10.820  21.553   2.618  0.00  0.00     0.028 H 
ENDBRANCH  15  17
BRANCH  15  21
ATOM     21  CD1 MOL d          11.419  21.919   5.054  0.00  0.00    -0.073 C 
ATOM     22  H18 MOL d          10.335  22.105   5.060  0.00  0.00     0.028 H 
ATOM     23  H19 MOL d          11.848  22.224   6.019  0.00  0.00     0.028 H 
ATOM     24  H20 MOL d          11.606  20.848   4.892  0.00  0.00     0.028 H 
ENDBRANCH  15  21
ENDBRANCH  12  15
ENDBRANCH   7  12
ENDBRANCH   5   7
ENDBRANCH   1   3
BRANCH   1  25
ATOM     25  CB  MOL d           8.243  25.727   1.287  0.00  0.00     0.043 C 
ATOM     26  H11 MOL d           8.346  25.234   0.308  0.00  0.00     0.052 H 
ATOM     27  H12 MOL d           9.241  25.930   1.703  0.00  0.00     0.052 H 
BRANCH  25  28
ATOM     28  CG  MOL d           7.514  27.042   1.098  0.00  0.00     0.175 C 
ATOM     29  OD1 MOL d           6.523  27.049   0.344  0.00  0.00    -0.648 OA
ATOM     30  OD2 MOL d           7.898  28.053   1.728  0.00  0.00    -0.648 OA
ENDBRANCH  25  28
ENDBRANCH   1  25
BRANCH   1  31
ATOM     31  N   MOL d           6.561  25.556   3.047  0.00  0.00    -0.345 N 
ATOM     32  C   MOL d           5.373  25.080   3.398  0.00  0.00     0.249 C 
ATOM     33  O   MOL d           4.951  23.979   3.027  0.00  0.00    -0.271 OA
ATOM     34  H9  MOL d           6.824  26.472   3.352  0.00  0.00     0.163 HD
BRANCH  32  35
ATOM     35  CA  MOL d           4.508  26.008   4.249  0.00  0.00     0.176 C 
ATOM     36  H4  MOL d           3.652  26.339   3.640  0.00  0.00     0.099 H 
BRANCH  35  37
ATOM     37  CB  MOL d           5.297  27.247   4.680  0.00  0.00    -0.021 C 
ATOM     38  H5  MOL d           4.597  28.091   4.765  0.00  0.00     0.037 H 
ATOM     39  H6  MOL d           6.045  27.467   3.906  0.00  0.00     0.037 H 
BRANCH  37  40
ATOM     40  CG  MOL d           6.015  27.090   6.006  0.00  0.00     0.018 C 
ATOM     41  H7  MOL d           6.068  26.018   6.251  0.00  0.00     0.049 H 
ATOM     42  H8  MOL d           5.438  27.615   6.781  0.00  0.00     0.049 H 
BRANCH  40  43
ATOM     43  CD  MOL d           7.423  27.651   5.990  0.00  0.00     0.172 C 
ATOM     44  OE1 MOL d           8.120  27.498   4.960  0.00  0.00    -0.648 OA
ATOM     45  OE2 MOL d           7.825  28.261   7.007  0.00  0.00    -0.648 OA
ENDBRANCH  40  43
ENDBRANCH  37  40
ENDBRANCH  35  37
BRANCH  35  46
ATOM     46  N   MOL d           3.984  25.282   5.437  0.00  0.00    -0.066 N 
ATOM     47  H1  MOL d           3.951  24.294   5.239  0.00  0.00     0.275 HD
ATOM     48  H2  MOL d           3.056  25.613   5.651  0.00  0.00     0.275 HD
ATOM     49  H3  MOL d           4.590  25.445   6.226  0.00  0.00     0.275 HD
ENDBRANCH  35  46
ENDBRANCH  32  35
ENDBRANCH   1  31
TORSDOF 15
ENDMDL
MODEL 5
REMARK VINA RESULT:      -6.0      2.049      5.732
REMARK  15 active torsions:
REMARK  status: ('A' for Active; 'I' for Inactive)
REMARK    1  A    between atoms: CA_2  and  N_1 
REMARK    2  A    between atoms: C_3  and  CA_2 
REMARK    3  A    between atoms: CA_2  and  CB_5 
REMARK       I    between atoms: N_10  and  C_3 
REMARK    4  A    between atoms: CB_5  and  CG_6 
REMARK    5  A    between atoms: CG_6  and  CD_7 
REMARK    6  A    between atoms: CA_11  and  N_10 
REMARK    7  A    between atoms: C_12  and  CA_11 
REMARK    8  A    between atoms: CA_11  and  CB_14 
REMARK       I    between atoms: C_12  and  N_18 
REMARK    9  A    between atoms: CB_14  and  CG_15 
REMARK   10  A    between atoms: N_18  and  CA_19 
REMARK   11  A    between atoms: CA_19  and  C_20 
REMARK   12  A    between atoms: CA_19  and  CB_22 
REMARK   13  A    between atoms: CB_22  and  CG_23 
REMARK   14  A    between atoms: CG_23  and  CD2_25 
REMARK   15  A    between atoms: CG_23  and  CD1_24 
ROOT
ATOM      1  CA  MOL d           9.194  25.844   6.027  0.00  0.00     0.098 C 
ATOM      2  H10 MOL d           8.747  24.925   6.434  0.00  0.00     0.088 H 
ENDROOT
BRANCH   1   3
ATOM      3  C   MOL d           8.127  26.620   5.276  0.00  0.00     0.241 C 
ATOM      4  O   MOL d           8.387  27.705   4.750  0.00  0.00    -0.271 OA
ATOM      5  N   MOL d           6.939  26.028   5.193  0.00  0.00    -0.345 N 
ATOM      6  H13 MOL d           6.809  25.142   5.638  0.00  0.00     0.163 HD
BRANCH   5   7
ATOM      7  CA  MOL d           5.823  26.626   4.477  0.00  0.00     0.096 C 
ATOM      8  H14 MOL d           6.183  27.546   3.995  0.00  0.00     0.089 H 
BRANCH   7   9
ATOM      9  C   MOL d           4.665  27.001   5.385  0.00  0.00     0.196 C 
ATOM     10  OXT MOL d           3.610  27.404   4.853  0.00  0.00    -0.646 OA
ATOM     11  O   MOL d           4.825  26.887   6.619  0.00  0.00    -0.646 OA
ENDBRANCH   7   9
BRANCH   7  12
ATOM     12  CB  MOL d           5.350  25.665   3.394  0.00  0.00    -0.034 C 
ATOM     13  H15 MOL d           4.293  25.861   3.166  0.00  0.00     0.037 H 
ATOM     14  H16 MOL d           5.464  24.630   3.747  0.00  0.00     0.037 H 
BRANCH  12  15
ATOM     15  CG  MOL d           6.189  25.870   2.137  0.00  0.00    -0.059 C 
ATOM     16  H17 MOL d           6.927  26.660   2.337  0.00  0.00     0.038 H 
BRANCH  15  17
ATOM     17  CD2 MOL d           5.297  26.341   0.998  0.00  0.00    -0.073 C 
ATOM     18  H21 MOL d           5.736  26.031   0.037  0.00  0.00     0.028 H 
ATOM     19  H22 MOL d           5.213  27.437   1.027  0.00  0.00     0.028 H 
ATOM     20  H23 MOL d           4.297  25.894   1.106  0.00  0.00     0.028 H 
ENDBRANCH  15  17
BRANCH  15  21
ATOM     21  CD1 MOL d           6.940  24.617   1.803  0.00  0.00    -0.073 C 
ATOM     22  H18 MOL d           6.403  23.748   2.208  0.00  0.00     0.028 H 
ATOM     23  H19 MOL d           7.946  24.665   2.243  0.00  0.00     0.028 H 
ATOM     24  H20 MOL d           7.023  24.519   0.710  0.00  0.00     0.028 H 
ENDBRANCH  15  21
ENDBRANCH  12  15
ENDBRANCH   7  12
ENDBRANCH   5   7
ENDBRANCH   1   3
BRANCH   1  25
ATOM     25  CB  MOL d           9.769  26.660   7.182  0.00  0.00     0.043 C 
ATOM     26  H11 MOL d          10.432  27.437   6.772  0.00  0.00     0.052 H 
ATOM     27  H12 MOL d          10.349  25.991   7.835  0.00  0.00     0.052 H 
BRANCH  25  28
ATOM     28  CG  MOL d           8.684  27.325   8.002  0.00  0.00     0.175 C 
ATOM     29  OD1 MOL d           7.884  26.588   8.608  0.00  0.00    -0.648 OA
ATOM     30  OD2 MOL d           8.651  28.575   8.080  0.00  0.00    -0.648 OA
ENDBRANCH  25  28
ENDBRANCH   1  25
BRANCH   1  31
ATOM     31  N   MOL d          10.259  25.488   5.098  0.00  0.00    -0.345 N 
ATOM     32  C   MOL d          11.051  24.442   5.297  0.00  0.00     0.249 C 
ATOM     33  O   MOL d          10.979  23.721   6.298  0.00  0.00    -0.271 OA
ATOM     34  H9  MOL d          10.397  26.051   4.283  0.00  0.00     0.163 HD
BRANCH  32  35
ATOM     35  CA  MOL d          12.122  24.205   4.232  0.00  0.00     0.176 C 
ATOM     36  H4  MOL d          11.821  24.736   3.316  0.00  0.00     0.099 H 
BRANCH  35  37
ATOM     37  CB  MOL d          12.246  22.715   3.905  0.00  0.00    -0.021 C 
ATOM     38  H5  MOL d          11.651  22.149   4.636  0.00  0.00     0.037 H 
ATOM     39  H6  MOL d          13.304  22.429   3.994  0.00  0.00     0.037 H 
BRANCH  37  40
ATOM     40  CG  MOL d          11.768  22.347   2.514  0.00  0.00     0.018 C 
ATOM     41  H7  MOL d          12.355  21.488   2.157  0.00  0.00     0.049 H 
ATOM     42  H8  MOL d          11.934  23.207   1.848  0.00  0.00     0.049 H 
BRANCH  40  43
ATOM     43  CD  MOL d          10.298  21.979   2.469  0.00  0.00     0.172 C 
ATOM     44  OE1 MOL d           9.689  21.803   3.549  0.00  0.00    -0.648 OA
ATOM     45  OE2 MOL d           9.751  21.881   1.347  0.00  0.00    -0.648 OA
ENDBRANCH  40  43
ENDBRANCH  37  40
ENDBRANCH  35  37
BRANCH  35  46
ATOM     46  N   MOL d          13.429  24.753   4.684  0.00  0.00    -0.066 N 
ATOM     47  H1  MOL d          13.646  25.583   4.156  0.00  0.00     0.275 HD
ATOM     48  H2  MOL d          14.150  24.064   4.538  0.00  0.00     0.275 HD
ATOM     49  H3  MOL d          13.377  24.984   5.664  0.00  0.00     0.275 HD
ENDBRANCH  35  46
ENDBRANCH  32  35
ENDBRANCH   1  31
TORSDOF 15
ENDMDL
MODEL 6
REMARK VINA RESULT:      -6.0      2.199      4.996
REMARK  15 active torsions:
REMARK  status: ('A' for Active; 'I' for Inactive)
REMARK    1  A    between atoms: CA_2  and  N_1 
REMARK    2  A    between atoms: C_3  and  CA_2 
REMARK    3  A    between atoms: CA_2  and  CB_5 
REMARK       I    between atoms: N_10  and  C_3 
REMARK    4  A    between atoms: CB_5  and  CG_6 
REMARK    5  A    between atoms: CG_6  and  CD_7 
REMARK    6  A    between atoms: CA_11  and  N_10 
REMARK    7  A    between atoms: C_12  and  CA_11 
REMARK    8  A    between atoms: CA_11  and  CB_14 
REMARK       I    between atoms: C_12  and  N_18 
REMARK    9  A    between atoms: CB_14  and  CG_15 
REMARK   10  A    between atoms: N_18  and  CA_19 
REMARK   11  A    between atoms: CA_19  and  C_20 
REMARK   12  A    between atoms: CA_19  and  CB_22 
REMARK   13  A    between atoms: CB_22  and  CG_23 
REMARK   14  A    between atoms: CG_23  and  CD2_25 
REMARK   15  A    between atoms: CG_23  and  CD1_24 
ROOT
ATOM      1  CA  MOL d           7.913  25.150   3.495  0.00  0.00     0.098 C 
ATOM      2  H10 MOL d           8.043  24.057   3.499  0.00  0.00     0.088 H 
ENDROOT
BRANCH   1   3
ATOM      3  C   MOL d           8.657  25.738   4.680  0.00  0.00     0.241 C 
ATOM      4  O   MOL d           8.477  26.910   5.021  0.00  0.00    -0.271 OA
ATOM      5  N   MOL d           9.458  24.898   5.328  0.00  0.00    -0.345 N 
ATOM      6  H13 MOL d           9.544  23.958   4.996  0.00  0.00     0.163 HD
BRANCH   5   7
ATOM      7  CA  MOL d          10.214  25.299   6.505  0.00  0.00     0.096 C 
ATOM      8  H14 MOL d          10.097  26.386   6.629  0.00  0.00     0.089 H 
BRANCH   7   9
ATOM      9  C   MOL d          11.698  25.003   6.390  0.00  0.00     0.196 C 
ATOM     10  OXT MOL d          12.213  24.247   7.240  0.00  0.00    -0.646 OA
ATOM     11  O   MOL d          12.331  25.528   5.450  0.00  0.00    -0.646 OA
ENDBRANCH   7   9
BRANCH   7  12
ATOM     12  CB  MOL d           9.634  24.607   7.732  0.00  0.00    -0.034 C 
ATOM     13  H15 MOL d          10.415  24.004   8.216  0.00  0.00     0.037 H 
ATOM     14  H16 MOL d           8.803  23.956   7.427  0.00  0.00     0.037 H 
BRANCH  12  15
ATOM     15  CG  MOL d           9.124  25.659   8.711  0.00  0.00    -0.059 C 
ATOM     16  H17 MOL d           9.582  25.469   9.693  0.00  0.00     0.038 H 
BRANCH  15  17
ATOM     17  CD2 MOL d           7.616  25.528   8.864  0.00  0.00    -0.073 C 
ATOM     18  H21 MOL d           7.186  26.512   9.105  0.00  0.00     0.028 H 
ATOM     19  H22 MOL d           7.390  24.820   9.675  0.00  0.00     0.028 H 
ATOM     20  H23 MOL d           7.182  25.158   7.923  0.00  0.00     0.028 H 
ENDBRANCH  15  17
BRANCH  15  21
ATOM     21  CD1 MOL d           9.543  27.029   8.269  0.00  0.00    -0.073 C 
ATOM     22  H18 MOL d          10.223  26.944   7.409  0.00  0.00     0.028 H 
ATOM     23  H19 MOL d          10.060  27.538   9.095  0.00  0.00     0.028 H 
ATOM     24  H20 MOL d           8.655  27.609   7.979  0.00  0.00     0.028 H 
ENDBRANCH  15  21
ENDBRANCH  12  15
ENDBRANCH   7  12
ENDBRANCH   5   7
ENDBRANCH   1   3
BRANCH   1  25
ATOM     25  CB  MOL d           8.443  25.700   2.173  0.00  0.00     0.043 C 
ATOM     26  H11 MOL d           8.557  24.867   1.462  0.00  0.00     0.052 H 
ATOM     27  H12 MOL d           9.422  26.168   2.351  0.00  0.00     0.052 H 
BRANCH  25  28
ATOM     28  CG  MOL d           7.509  26.730   1.572  0.00  0.00     0.175 C 
ATOM     29  OD1 MOL d           6.704  26.343   0.705  0.00  0.00    -0.648 OA
ATOM     30  OD2 MOL d           7.545  27.909   1.991  0.00  0.00    -0.648 OA
ENDBRANCH  25  28
ENDBRANCH   1  25
BRANCH   1  31
ATOM     31  N   MOL d           6.496  25.463   3.626  0.00  0.00    -0.345 N 
ATOM     32  C   MOL d           5.553  24.535   3.523  0.00  0.00     0.249 C 
ATOM     33  O   MOL d           5.797  23.351   3.264  0.00  0.00    -0.271 OA
ATOM     34  H9  MOL d           6.225  26.410   3.800  0.00  0.00     0.163 HD
BRANCH  32  35
ATOM     35  CA  MOL d           4.115  25.026   3.680  0.00  0.00     0.176 C 
ATOM     36  H4  MOL d           3.584  24.852   2.732  0.00  0.00     0.099 H 
BRANCH  35  37
ATOM     37  CB  MOL d           4.080  26.527   3.980  0.00  0.00    -0.021 C 
ATOM     38  H5  MOL d           3.427  27.013   3.240  0.00  0.00     0.037 H 
ATOM     39  H6  MOL d           5.101  26.923   3.883  0.00  0.00     0.037 H 
BRANCH  37  40
ATOM     40  CG  MOL d           3.567  26.868   5.365  0.00  0.00     0.018 C 
ATOM     41  H7  MOL d           2.863  26.083   5.681  0.00  0.00     0.049 H 
ATOM     42  H8  MOL d           3.042  27.833   5.316  0.00  0.00     0.049 H 
BRANCH  40  43
ATOM     43  CD  MOL d           4.671  26.971   6.399  0.00  0.00     0.172 C 
ATOM     44  OE1 MOL d           5.759  27.495   6.068  0.00  0.00    -0.648 OA
ATOM     45  OE2 MOL d           4.439  26.538   7.551  0.00  0.00    -0.648 OA
ENDBRANCH  40  43
ENDBRANCH  37  40
ENDBRANCH  35  37
BRANCH  35  46
ATOM     46  N   MOL d           3.422  24.262   4.753  0.00  0.00    -0.066 N 
ATOM     47  H1  MOL d           2.460  24.555   4.806  0.00  0.00     0.275 HD
ATOM     48  H2  MOL d           3.876  24.438   5.636  0.00  0.00     0.275 HD
ATOM     49  H3  MOL d           3.462  23.277   4.544  0.00  0.00     0.275 HD
ENDBRANCH  35  46
ENDBRANCH  32  35
ENDBRANCH   1  31
TORSDOF 15
ENDMDL
MODEL 7
REMARK VINA RESULT:      -5.9      2.041      4.732
REMARK  15 active torsions:
REMARK  status: ('A' for Active; 'I' for Inactive)
REMARK    1  A    between atoms: CA_2  and  N_1 
REMARK    2  A    between atoms: C_3  and  CA_2 
REMARK    3  A    between atoms: CA_2  and  CB_5 
REMARK       I    between atoms: N_10  and  C_3 
REMARK    4  A    between atoms: CB_5  and  CG_6 
REMARK    5  A    between atoms: CG_6  and  CD_7 
REMARK    6  A    between atoms: CA_11  and  N_10 
REMARK    7  A    between atoms: C_12  and  CA_11 
REMARK    8  A    between atoms: CA_11  and  CB_14 
REMARK       I    between atoms: C_12  and  N_18 
REMARK    9  A    between atoms: CB_14  and  CG_15 
REMARK   10  A    between atoms: N_18  and  CA_19 
REMARK   11  A    between atoms: CA_19  and  C_20 
REMARK   12  A    between atoms: CA_19  and  CB_22 
REMARK   13  A    between atoms: CB_22  and  CG_23 
REMARK   14  A    between atoms: CG_23  and  CD2_25 
REMARK   15  A    between atoms: CG_23  and  CD1_24 
ROOT
ATOM      1  CA  MOL d           7.501  24.873   2.387  0.00  0.00     0.098 C 
ATOM      2  H10 MOL d           6.935  24.131   1.805  0.00  0.00     0.088 H 
ENDROOT
BRANCH   1   3
ATOM      3  C   MOL d           8.444  24.143   3.328  0.00  0.00     0.241 C 
ATOM      4  O   MOL d           8.384  22.919   3.458  0.00  0.00    -0.271 OA
ATOM      5  N   MOL d           9.343  24.906   3.944  0.00  0.00    -0.345 N 
ATOM      6  H13 MOL d           9.334  25.892   3.779  0.00  0.00     0.163 HD
BRANCH   5   7
ATOM      7  CA  MOL d          10.338  24.353   4.850  0.00  0.00     0.096 C 
ATOM      8  H14 MOL d          11.107  25.122   5.019  0.00  0.00     0.089 H 
BRANCH   7   9
ATOM      9  C   MOL d          11.029  23.121   4.296  0.00  0.00     0.196 C 
ATOM     10  OXT MOL d          11.702  23.246   3.252  0.00  0.00    -0.646 OA
ATOM     11  O   MOL d          10.893  22.043   4.912  0.00  0.00    -0.646 OA
ENDBRANCH   7   9
BRANCH   7  12
ATOM     12  CB  MOL d           9.677  24.029   6.182  0.00  0.00    -0.034 C 
ATOM     13  H15 MOL d           9.860  22.975   6.436  0.00  0.00     0.037 H 
ATOM     14  H16 MOL d           8.594  24.205   6.106  0.00  0.00     0.037 H 
BRANCH  12  15
ATOM     15  CG  MOL d          10.263  24.924   7.269  0.00  0.00    -0.059 C 
ATOM     16  H17 MOL d          10.530  25.890   6.815  0.00  0.00     0.038 H 
BRANCH  15  17
ATOM     17  CD2 MOL d          11.537  24.297   7.817  0.00  0.00    -0.073 C 
ATOM     18  H21 MOL d          11.279  23.575   8.605  0.00  0.00     0.028 H 
ATOM     19  H22 MOL d          12.181  25.084   8.236  0.00  0.00     0.028 H 
ATOM     20  H23 MOL d          12.070  23.781   7.005  0.00  0.00     0.028 H 
ENDBRANCH  15  17
BRANCH  15  21
ATOM     21  CD1 MOL d           9.243  25.186   8.335  0.00  0.00    -0.073 C 
ATOM     22  H18 MOL d           8.579  26.002   8.014  0.00  0.00     0.028 H 
ATOM     23  H19 MOL d           9.752  25.472   9.267  0.00  0.00     0.028 H 
ATOM     24  H20 MOL d           8.649  24.276   8.506  0.00  0.00     0.028 H 
ENDBRANCH  15  21
ENDBRANCH  12  15
ENDBRANCH   7  12
ENDBRANCH   5   7
ENDBRANCH   1   3
BRANCH   1  25
ATOM     25  CB  MOL d           8.265  25.774   1.420  0.00  0.00     0.043 C 
ATOM     26  H11 MOL d           8.388  25.244   0.464  0.00  0.00     0.052 H 
ATOM     27  H12 MOL d           9.254  25.996   1.848  0.00  0.00     0.052 H 
BRANCH  25  28
ATOM     28  CG  MOL d           7.538  27.079   1.166  0.00  0.00     0.175 C 
ATOM     29  OD1 MOL d           7.956  28.095   1.752  0.00  0.00    -0.648 OA
ATOM     30  OD2 MOL d           6.584  27.103   0.356  0.00  0.00    -0.648 OA
ENDBRANCH  25  28
ENDBRANCH   1  25
BRANCH   1  31
ATOM     31  N   MOL d           6.574  25.672   3.176  0.00  0.00    -0.345 N 
ATOM     32  C   MOL d           5.412  25.193   3.603  0.00  0.00     0.249 C 
ATOM     33  O   MOL d           5.009  24.057   3.329  0.00  0.00    -0.271 OA
ATOM     34  H9  MOL d           6.820  26.614   3.404  0.00  0.00     0.163 HD
BRANCH  32  35
ATOM     35  CA  MOL d           4.550  26.159   4.415  0.00  0.00     0.176 C 
ATOM     36  H4  MOL d           3.734  26.520   3.771  0.00  0.00     0.099 H 
BRANCH  35  37
ATOM     37  CB  MOL d           5.370  27.367   4.874  0.00  0.00    -0.021 C 
ATOM     38  H5  MOL d           4.684  28.215   5.019  0.00  0.00     0.037 H 
ATOM     39  H6  MOL d           6.095  27.613   4.085  0.00  0.00     0.037 H 
BRANCH  37  40
ATOM     40  CG  MOL d           6.129  27.142   6.167  0.00  0.00     0.018 C 
ATOM     41  H7  MOL d           6.181  26.060   6.359  0.00  0.00     0.049 H 
ATOM     42  H8  MOL d           5.582  27.635   6.984  0.00  0.00     0.049 H 
BRANCH  40  43
ATOM     43  CD  MOL d           7.541  27.694   6.130  0.00  0.00     0.172 C 
ATOM     44  OE1 MOL d           8.256  27.450   5.131  0.00  0.00    -0.648 OA
ATOM     45  OE2 MOL d           7.927  28.385   7.100  0.00  0.00    -0.648 OA
ENDBRANCH  40  43
ENDBRANCH  37  40
ENDBRANCH  35  37
BRANCH  35  46
ATOM     46  N   MOL d           3.950  25.459   5.583  0.00  0.00    -0.066 N 
ATOM     47  H1  MOL d           3.070  25.890   5.817  0.00  0.00     0.275 HD
ATOM     48  H2  MOL d           4.576  25.524   6.371  0.00  0.00     0.275 HD
ATOM     49  H3  MOL d           3.798  24.489   5.353  0.00  0.00     0.275 HD
ENDBRANCH  35  46
ENDBRANCH  32  35
ENDBRANCH   1  31
TORSDOF 15
ENDMDL
MODEL 8
REMARK VINA RESULT:      -5.9      1.179      1.445
REMARK  15 active torsions:
REMARK  status: ('A' for Active; 'I' for Inactive)
REMARK    1  A    between atoms: CA_2  and  N_1 
REMARK    2  A    between atoms: C_3  and  CA_2 
REMARK    3  A    between atoms: CA_2  and  CB_5 
REMARK       I    between atoms: N_10  and  C_3 
REMARK    4  A    between atoms: CB_5  and  CG_6 
REMARK    5  A    between atoms: CG_6  and  CD_7 
REMARK    6  A    between atoms: CA_11  and  N_10 
REMARK    7  A    between atoms: C_12  and  CA_11 
REMARK    8  A    between atoms: CA_11  and  CB_14 
REMARK       I    between atoms: C_12  and  N_18 
REMARK    9  A    between atoms: CB_14  and  CG_15 
REMARK   10  A    between atoms: N_18  and  CA_19 
REMARK   11  A    between atoms: CA_19  and  C_20 
REMARK   12  A    between atoms: CA_19  and  CB_22 
REMARK   13  A    between atoms: CB_22  and  CG_23 
REMARK   14  A    between atoms: CG_23  and  CD2_25 
REMARK   15  A    between atoms: CG_23  and  CD1_24 
ROOT
ATOM      1  CA  MOL d           9.412  25.932   6.504  0.00  0.00     0.098 C 
ATOM      2  H10 MOL d           9.997  26.788   6.138  0.00  0.00     0.088 H 
ENDROOT
BRANCH   1   3
ATOM      3  C   MOL d          10.252  24.673   6.382  0.00  0.00     0.241 C 
ATOM      4  O   MOL d          10.628  24.065   7.387  0.00  0.00    -0.271 OA
ATOM      5  N   MOL d          10.498  24.267   5.140  0.00  0.00    -0.345 N 
ATOM      6  H13 MOL d          10.150  24.810   4.376  0.00  0.00     0.163 HD
BRANCH   5   7
ATOM      7  CA  MOL d          11.259  23.060   4.856  0.00  0.00     0.096 C 
ATOM      8  H14 MOL d          11.123  22.367   5.699  0.00  0.00     0.089 H 
BRANCH   7   9
ATOM      9  C   MOL d          12.747  23.316   4.702  0.00  0.00     0.196 C 
ATOM     10  OXT MOL d          13.507  22.328   4.620  0.00  0.00    -0.646 OA
ATOM     11  O   MOL d          13.139  24.501   4.664  0.00  0.00    -0.646 OA
ENDBRANCH   7   9
BRANCH   7  12
ATOM     12  CB  MOL d          10.707  22.405   3.597  0.00  0.00    -0.034 C 
ATOM     13  H15 MOL d          10.144  21.502   3.871  0.00  0.00     0.037 H 
ATOM     14  H16 MOL d          11.538  22.132   2.931  0.00  0.00     0.037 H 
BRANCH  12  15
ATOM     15  CG  MOL d           9.782  23.385   2.883  0.00  0.00    -0.059 C 
ATOM     16  H17 MOL d           9.455  24.144   3.608  0.00  0.00     0.038 H 
BRANCH  15  17
ATOM     17  CD2 MOL d           8.546  22.651   2.384  0.00  0.00    -0.073 C 
ATOM     18  H21 MOL d           7.876  22.444   3.232  0.00  0.00     0.028 H 
ATOM     19  H22 MOL d           8.847  21.704   1.913  0.00  0.00     0.028 H 
ATOM     20  H23 MOL d           8.021  23.277   1.646  0.00  0.00     0.028 H 
ENDBRANCH  15  17
BRANCH  15  21
ATOM     21  CD1 MOL d          10.518  24.089   1.784  0.00  0.00    -0.073 C 
ATOM     22  H18 MOL d          11.308  24.720   2.218  0.00  0.00     0.028 H 
ATOM     23  H19 MOL d           9.817  24.718   1.218  0.00  0.00     0.028 H 
ATOM     24  H20 MOL d          10.971  23.347   1.111  0.00  0.00     0.028 H 
ENDBRANCH  15  21
ENDBRANCH  12  15
ENDBRANCH   7  12
ENDBRANCH   5   7
ENDBRANCH   1   3
BRANCH   1  25
ATOM     25  CB  MOL d           9.012  26.199   7.953  0.00  0.00     0.043 C 
ATOM     26  H11 MOL d           9.924  26.323   8.556  0.00  0.00     0.052 H 
ATOM     27  H12 MOL d           8.439  25.337   8.328  0.00  0.00     0.052 H 
BRANCH  25  28
ATOM     28  CG  MOL d           8.163  27.446   8.088  0.00  0.00     0.175 C 
ATOM     29  OD1 MOL d           8.744  28.547   8.041  0.00  0.00    -0.648 OA
ATOM     30  OD2 MOL d           6.921  27.335   8.195  0.00  0.00    -0.648 OA
ENDBRANCH  25  28
ENDBRANCH   1  25
BRANCH   1  31
ATOM     31  N   MOL d           8.217  25.782   5.684  0.00  0.00    -0.345 N 
ATOM     32  C   MOL d           7.832  26.711   4.817  0.00  0.00     0.249 C 
ATOM     33  O   MOL d           8.425  27.785   4.672  0.00  0.00    -0.271 OA
ATOM     34  H9  MOL d           7.669  24.951   5.777  0.00  0.00     0.163 HD
BRANCH  32  35
ATOM     35  CA  MOL d           6.555  26.405   4.036  0.00  0.00     0.176 C 
ATOM     36  H4  MOL d           6.335  25.331   4.139  0.00  0.00     0.099 H 
BRANCH  35  37
ATOM     37  CB  MOL d           6.736  26.717   2.549  0.00  0.00    -0.021 C 
ATOM     38  H5  MOL d           7.806  26.892   2.359  0.00  0.00     0.037 H 
ATOM     39  H6  MOL d           6.169  27.630   2.315  0.00  0.00     0.037 H 
BRANCH  37  40
ATOM     40  CG  MOL d           6.264  25.612   1.625  0.00  0.00     0.018 C 
ATOM     41  H7  MOL d           6.619  24.649   2.020  0.00  0.00     0.049 H 
ATOM     42  H8  MOL d           6.695  25.781   0.627  0.00  0.00     0.049 H 
BRANCH  40  43
ATOM     43  CD  MOL d           4.754  25.552   1.493  0.00  0.00     0.172 C 
ATOM     44  OE1 MOL d           4.218  24.456   1.211  0.00  0.00    -0.648 OA
ATOM     45  OE2 MOL d           4.105  26.605   1.688  0.00  0.00    -0.648 OA
ENDBRANCH  40  43
ENDBRANCH  37  40
ENDBRANCH  35  37
BRANCH  35  46
ATOM     46  N   MOL d           5.410  27.173   4.596  0.00  0.00    -0.066 N 
ATOM     47  H1  MOL d           4.828  26.558   5.143  0.00  0.00     0.275 HD
ATOM     48  H2  MOL d           4.869  27.565   3.842  0.00  0.00     0.275 HD
ATOM     49  H3  MOL d           5.758  27.915   5.183  0.00  0.00     0.275 HD
ENDBRANCH  35  46
ENDBRANCH  32  35
ENDBRANCH   1  31
TORSDOF 15
ENDMDL
MODEL 9
REMARK VINA RESULT:      -5.9      1.718      6.212
REMARK  15 active torsions:
REMARK  status: ('A' for Active; 'I' for Inactive)
REMARK    1  A    between atoms: CA_2  and  N_1 
REMARK    2  A    between atoms: C_3  and  CA_2 
REMARK    3  A    between atoms: CA_2  and  CB_5 
REMARK       I    between atoms: N_10  and  C_3 
REMARK    4  A    between atoms: CB_5  and  CG_6 
REMARK    5  A    between atoms: CG_6  and  CD_7 
REMARK    6  A    between atoms: CA_11  and  N_10 
REMARK    7  A    between atoms: C_12  and  CA_11 
REMARK    8  A    between atoms: CA_11  and  CB_14 
REMARK       I    between atoms: C_12  and  N_18 
REMARK    9  A    between atoms: CB_14  and  CG_15 
REMARK   10  A    between atoms: N_18  and  CA_19 
REMARK   11  A    between atoms: CA_19  and  C_20 
REMARK   12  A    between atoms: CA_19  and  CB_22 
REMARK   13  A    between atoms: CB_22  and  CG_23 
REMARK   14  A    between atoms: CG_23  and  CD2_25 
REMARK   15  A    between atoms: CG_23  and  CD1_24 
ROOT
ATOM      1  CA  MOL d           9.960  23.798   3.783  0.00  0.00     0.098 C 
ATOM      2  H10 MOL d          10.777  24.469   3.478  0.00  0.00     0.088 H 
ENDROOT
BRANCH   1   3
ATOM      3  C   MOL d           8.661  24.299   3.179  0.00  0.00     0.241 C 
ATOM      4  O   MOL d           7.760  23.513   2.875  0.00  0.00    -0.271 OA
ATOM      5  N   MOL d           8.558  25.620   3.055  0.00  0.00    -0.345 N 
ATOM      6  H13 MOL d           9.329  26.192   3.333  0.00  0.00     0.163 HD
BRANCH   5   7
ATOM      7  CA  MOL d           7.362  26.258   2.526  0.00  0.00     0.096 C 
ATOM      8  H14 MOL d           6.720  25.474   2.099  0.00  0.00     0.089 H 
BRANCH   7   9
ATOM      9  C   MOL d           7.660  27.263   1.428  0.00  0.00     0.196 C 
ATOM     10  OXT MOL d           7.184  27.050   0.294  0.00  0.00    -0.646 OA
ATOM     11  O   MOL d           8.364  28.255   1.714  0.00  0.00    -0.646 OA
ENDBRANCH   7   9
BRANCH   7  12
ATOM     12  CB  MOL d           6.610  26.932   3.665  0.00  0.00    -0.034 C 
ATOM     13  H15 MOL d           6.384  27.972   3.391  0.00  0.00     0.037 H 
ATOM     14  H16 MOL d           7.231  26.919   4.573  0.00  0.00     0.037 H 
BRANCH  12  15
ATOM     15  CG  MOL d           5.310  26.180   3.926  0.00  0.00    -0.059 C 
ATOM     16  H17 MOL d           5.552  25.125   4.119  0.00  0.00     0.038 H 
BRANCH  15  17
ATOM     17  CD2 MOL d           4.427  26.238   2.689  0.00  0.00    -0.073 C 
ATOM     18  H21 MOL d           3.758  25.365   2.674  0.00  0.00     0.028 H 
ATOM     19  H22 MOL d           5.058  26.233   1.788  0.00  0.00     0.028 H 
ATOM     20  H23 MOL d           3.826  27.160   2.709  0.00  0.00     0.028 H 
ENDBRANCH  15  17
BRANCH  15  21
ATOM     21  CD1 MOL d           4.630  26.724   5.147  0.00  0.00    -0.073 C 
ATOM     22  H18 MOL d           3.546  26.560   5.065  0.00  0.00     0.028 H 
ATOM     23  H19 MOL d           4.834  27.801   5.230  0.00  0.00     0.028 H 
ATOM     24  H20 MOL d           5.012  26.207   6.040  0.00  0.00     0.028 H 
ENDBRANCH  15  21
ENDBRANCH  12  15
ENDBRANCH   7  12
ENDBRANCH   5   7
ENDBRANCH   1   3
BRANCH   1  25
ATOM     25  CB  MOL d          10.287  22.384   3.310  0.00  0.00     0.043 C 
ATOM     26  H11 MOL d          10.141  22.331   2.220  0.00  0.00     0.052 H 
ATOM     27  H12 MOL d           9.606  21.677   3.806  0.00  0.00     0.052 H 
BRANCH  25  28
ATOM     28  CG  MOL d          11.716  21.994   3.630  0.00  0.00     0.175 C 
ATOM     29  OD1 MOL d          12.490  21.803   2.674  0.00  0.00    -0.648 OA
ATOM     30  OD2 MOL d          12.078  21.921   4.826  0.00  0.00    -0.648 OA
ENDBRANCH  25  28
ENDBRANCH   1  25
BRANCH   1  31
ATOM     31  N   MOL d           9.842  23.816   5.235  0.00  0.00    -0.345 N 
ATOM     32  C   MOL d          10.496  24.692   5.988  0.00  0.00     0.249 C 
ATOM     33  O   MOL d          11.284  25.524   5.525  0.00  0.00    -0.271 OA
ATOM     34  H9  MOL d           9.248  23.145   5.680  0.00  0.00     0.163 HD
BRANCH  32  35
ATOM     35  CA  MOL d          10.269  24.576   7.495  0.00  0.00     0.176 C 
ATOM     36  H4  MOL d           9.408  23.911   7.665  0.00  0.00     0.099 H 
BRANCH  35  37
ATOM     37  CB  MOL d           9.947  25.943   8.105  0.00  0.00    -0.021 C 
ATOM     38  H5  MOL d          10.591  26.696   7.627  0.00  0.00     0.037 H 
ATOM     39  H6  MOL d          10.168  25.902   9.181  0.00  0.00     0.037 H 
BRANCH  37  40
ATOM     40  CG  MOL d           8.503  26.371   7.931  0.00  0.00     0.018 C 
ATOM     41  H7  MOL d           7.960  26.161   8.865  0.00  0.00     0.049 H 
ATOM     42  H8  MOL d           8.061  25.787   7.110  0.00  0.00     0.049 H 
BRANCH  40  43
ATOM     43  CD  MOL d           8.355  27.845   7.607  0.00  0.00     0.172 C 
ATOM     44  OE1 MOL d           7.451  28.200   6.816  0.00  0.00    -0.648 OA
ATOM     45  OE2 MOL d           9.139  28.649   8.160  0.00  0.00    -0.648 OA
ENDBRANCH  40  43
ENDBRANCH  37  40
ENDBRANCH  35  37
BRANCH  35  46
ATOM     46  N   MOL d          11.461  23.977   8.152  0.00  0.00    -0.066 N 
ATOM     47  H1  MOL d          12.235  24.620   8.097  0.00  0.00     0.275 HD
ATOM     48  H2  MOL d          11.705  23.117   7.686  0.00  0.00     0.275 HD
ATOM     49  H3  MOL d          11.252  23.787   9.120  0.00  0.00     0.275 HD
ENDBRANCH  35  46
ENDBRANCH  32  35
ENDBRANCH   1  31
TORSDOF 15
ENDMDL
MODEL 10
REMARK VINA RESULT:      -5.7      1.719      2.227
REMARK  15 active torsions:
REMARK  status: ('A' for Active; 'I' for Inactive)
REMARK    1  A    between atoms: CA_2  and  N_1 
REMARK    2  A    between atoms: C_3  and  CA_2 
REMARK    3  A    between atoms: CA_2  and  CB_5 
REMARK       I    between atoms: N_10  and  C_3 
REMARK    4  A    between atoms: CB_5  and  CG_6 
REMARK    5  A    between atoms: CG_6  and  CD_7 
REMARK    6  A    between atoms: CA_11  and  N_10 
REMARK    7  A    between atoms: C_12  and  CA_11 
REMARK    8  A    between atoms: CA_11  and  CB_14 
REMARK       I    between atoms: C_12  and  N_18 
REMARK    9  A    between atoms: CB_14  and  CG_15 
REMARK   10  A    between atoms: N_18  and  CA_19 
REMARK   11  A    between atoms: CA_19  and  C_20 
REMARK   12  A    between atoms: CA_19  and  CB_22 
REMARK   13  A    between atoms: CB_22  and  CG_23 
REMARK   14  A    between atoms: CG_23  and  CD2_25 
REMARK   15  A    between atoms: CG_23  and  CD1_24 
ROOT
ATOM      1  CA  MOL d           8.946  26.458   6.088  0.00  0.00     0.098 C 
ATOM      2  H10 MOL d           9.171  27.322   5.446  0.00  0.00     0.088 H 
ENDROOT
BRANCH   1   3
ATOM      3  C   MOL d           9.449  25.197   5.407  0.00  0.00     0.241 C 
ATOM      4  O   MOL d           8.666  24.306   5.070  0.00  0.00    -0.271 OA
ATOM      5  N   MOL d          10.757  25.158   5.168  0.00  0.00    -0.345 N 
ATOM      6  H13 MOL d          11.325  25.926   5.463  0.00  0.00     0.163 HD
BRANCH   5   7
ATOM      7  CA  MOL d          11.388  24.034   4.492  0.00  0.00     0.096 C 
ATOM      8  H14 MOL d          10.691  23.184   4.525  0.00  0.00     0.089 H 
BRANCH   7   9
ATOM      9  C   MOL d          12.685  23.596   5.149  0.00  0.00     0.196 C 
ATOM     10  OXT MOL d          13.414  22.795   4.529  0.00  0.00    -0.646 OA
ATOM     11  O   MOL d          12.959  24.059   6.277  0.00  0.00    -0.646 OA
ENDBRANCH   7   9
BRANCH   7  12
ATOM     12  CB  MOL d          11.636  24.402   3.036  0.00  0.00    -0.034 C 
ATOM     13  H15 MOL d          12.682  24.186   2.776  0.00  0.00     0.037 H 
ATOM     14  H16 MOL d          11.435  25.473   2.889  0.00  0.00     0.037 H 
BRANCH  12  15
ATOM     15  CG  MOL d          10.710  23.582   2.144  0.00  0.00    -0.059 C 
ATOM     16  H17 MOL d          11.248  23.339   1.216  0.00  0.00     0.038 H 
BRANCH  15  17
ATOM     17  CD2 MOL d           9.490  24.412   1.772  0.00  0.00    -0.073 C 
ATOM     18  H21 MOL d           9.005  23.975   0.886  0.00  0.00     0.028 H 
ATOM     19  H22 MOL d           9.802  25.443   1.549  0.00  0.00     0.028 H 
ATOM     20  H23 MOL d           8.780  24.419   2.613  0.00  0.00     0.028 H 
ENDBRANCH  15  17
BRANCH  15  21
ATOM     21  CD1 MOL d          10.348  22.292   2.815  0.00  0.00    -0.073 C 
ATOM     22  H18 MOL d          11.265  21.743   3.072  0.00  0.00     0.028 H 
ATOM     23  H19 MOL d           9.735  21.684   2.133  0.00  0.00     0.028 H 
ATOM     24  H20 MOL d           9.778  22.502   3.732  0.00  0.00     0.028 H 
ENDBRANCH  15  21
ENDBRANCH  12  15
ENDBRANCH   7  12
ENDBRANCH   5   7
ENDBRANCH   1   3
BRANCH   1  25
ATOM     25  CB  MOL d           9.617  26.667   7.443  0.00  0.00     0.043 C 
ATOM     26  H11 MOL d           9.129  27.510   7.954  0.00  0.00     0.052 H 
ATOM     27  H12 MOL d          10.680  26.902   7.280  0.00  0.00     0.052 H 
BRANCH  25  28
ATOM     28  CG  MOL d           9.517  25.437   8.322  0.00  0.00     0.175 C 
ATOM     29  OD1 MOL d           8.407  25.173   8.819  0.00  0.00    -0.648 OA
ATOM     30  OD2 MOL d          10.526  24.714   8.482  0.00  0.00    -0.648 OA
ENDBRANCH  25  28
ENDBRANCH   1  25
BRANCH   1  31
ATOM     31  N   MOL d           7.504  26.354   6.264  0.00  0.00    -0.345 N 
ATOM     32  C   MOL d           6.742  27.412   6.510  0.00  0.00     0.249 C 
ATOM     33  O   MOL d           7.197  28.552   6.653  0.00  0.00    -0.271 OA
ATOM     34  H9  MOL d           7.073  25.454   6.197  0.00  0.00     0.163 HD
BRANCH  32  35
ATOM     35  CA  MOL d           5.248  27.135   6.674  0.00  0.00     0.176 C 
ATOM     36  H4  MOL d           5.120  26.073   6.931  0.00  0.00     0.099 H 
BRANCH  35  37
ATOM     37  CB  MOL d           4.496  27.407   5.369  0.00  0.00    -0.021 C 
ATOM     38  H5  MOL d           4.963  28.270   4.873  0.00  0.00     0.037 H 
ATOM     39  H6  MOL d           3.451  27.646   5.615  0.00  0.00     0.037 H 
BRANCH  37  40
ATOM     40  CG  MOL d           4.502  26.241   4.400  0.00  0.00     0.018 C 
ATOM     41  H7  MOL d           3.467  26.042   4.084  0.00  0.00     0.049 H 
ATOM     42  H8  MOL d           4.904  25.357   4.917  0.00  0.00     0.049 H 
BRANCH  40  43
ATOM     43  CD  MOL d           5.343  26.499   3.164  0.00  0.00     0.172 C 
ATOM     44  OE1 MOL d           6.590  26.510   3.277  0.00  0.00    -0.648 OA
ATOM     45  OE2 MOL d           4.749  26.677   2.076  0.00  0.00    -0.648 OA
ENDBRANCH  40  43
ENDBRANCH  37  40
ENDBRANCH  35  37
BRANCH  35  46
ATOM     46  N   MOL d           4.689  27.957   7.781  0.00  0.00    -0.066 N 
ATOM     47  H1  MOL d           3.684  27.883   7.780  0.00  0.00     0.275 HD
ATOM     48  H2  MOL d           4.956  28.920   7.651  0.00  0.00     0.275 HD
ATOM     49  H3  MOL d           5.048  27.624   8.662  0.00  0.00     0.275 HD
ENDBRANCH  35  46
ENDBRANCH  32  35
ENDBRANCH   1  31
TORSDOF 15
ENDMDL
