MODEL 1
REMARK VINA RESULT:      -5.9      0.000      0.000
REMARK  6 active torsions:
REMARK  status: ('A' for Active; 'I' for Inactive)
REMARK    1  A    between atoms: C1_17  and  N1_1 
REMARK    2  A    between atoms: C5_10  and  O5_9 
REMARK    3  A    between atoms: C4_11  and  C5_10 
REMARK    4  A    between atoms: C3_13  and  O3_14 
REMARK    5  A    between atoms: O3_14  and  P_19 
REMARK    6  A    between atoms: C2_15  and  O2_16 
ROOT
ATOM      1  C4  UA3 d          39.133   0.211  12.351  0.00  0.00     0.089 C 
ATOM      2  O4  UA3 d          38.993  -1.064  11.734  0.00  0.00    -0.353 OA
ATOM      3  C3  UA3 d          38.188   1.010  12.952  0.00  0.00     0.107 C 
ATOM      4  C2  UA3 d          37.094  -0.341  13.104  0.00  0.00     0.106 C 
ATOM      5  C1  UA3 d          37.438  -1.035  11.606  0.00  0.00     0.141 C 
ATOM      6  H7  UA3 d          39.058   0.750  11.395  0.00  0.00     0.090 H 
ATOM      7  H8  UA3 d          38.605   1.307  13.925  0.00  0.00     0.092 H 
ATOM      8  H9  UA3 d          36.046  -0.009  13.083  0.00  0.00     0.093 H 
ATOM      9  H11 UA3 d          37.090  -0.471  10.728  0.00  0.00     0.123 H 
ENDROOT
BRANCH   5  10
ATOM     10  N1  UA3 d          36.814  -2.288  11.712  0.00  0.00    -0.280 N 
ATOM     11  C2  UA3 d          35.480  -2.373  11.216  0.00  0.00     0.331 A 
ATOM     12  O2  UA3 d          34.932  -1.453  10.724  0.00  0.00    -0.246 OA
ATOM     13  N3  UA3 d          34.914  -3.646  11.373  0.00  0.00    -0.275 N 
ATOM     14  C4  UA3 d          35.500  -4.794  11.950  0.00  0.00     0.250 A 
ATOM     15  H1  UA3 d          33.979  -3.754  11.033  0.00  0.00     0.173 HD
ATOM     16  O4  UA3 d          34.842  -5.810  11.995  0.00  0.00    -0.268 OA
ATOM     17  C5  UA3 d          36.858  -4.609  12.435  0.00  0.00    -0.002 A 
ATOM     18  C6  UA3 d          37.460  -3.413  12.311  0.00  0.00    -0.008 A 
ATOM     19  H2  UA3 d          37.389  -5.439  12.899  0.00  0.00     0.094 H 
ATOM     20  H3  UA3 d          38.477  -3.297  12.681  0.00  0.00     0.112 H 
ENDBRANCH   5  10
BRANCH   4  21
ATOM     21  O2  UA3 d          37.294  -1.047  14.575  0.00  0.00    -0.388 OA
ATOM     22  H10 UA3 d          38.137  -1.485  14.603  0.00  0.00     0.210 HD
ENDBRANCH   4  21
BRANCH   1  23
ATOM     23  C5  UA3 d          40.404   0.540  12.599  0.00  0.00     0.043 C 
ATOM     24  H5  UA3 d          40.925  -0.377  12.912  0.00  0.00     0.078 H 
ATOM     25  H6  UA3 d          40.838   0.906  11.658  0.00  0.00     0.078 H 
BRANCH  23  26
ATOM     26  O5  UA3 d          40.676   1.631  13.696  0.00  0.00    -0.398 OA
ATOM     27  H4  UA3 d          41.478   2.095  13.489  0.00  0.00     0.209 HD
ENDBRANCH  23  26
ENDBRANCH   1  23
BRANCH   3  28
ATOM     28  O3  UA3 d          37.415   2.264  12.503  0.00  0.00    -0.272 OA
BRANCH  28  29
ATOM     29  P   UA3 d          37.382   3.664  13.060  0.00  0.00     0.422 P 
ATOM     30  O3P UA3 d          38.418   3.664  14.284  0.00  0.00    -0.617 OA
ATOM     31  O1P UA3 d          35.977   3.994  13.472  0.00  0.00    -0.617 OA
ATOM     32  O2P UA3 d          37.875   4.625  12.011  0.00  0.00    -0.617 OA
ENDBRANCH  28  29
ENDBRANCH   3  28
TORSDOF 6
ENDMDL
MODEL 2
REMARK VINA RESULT:      -4.9      3.025      6.277
REMARK  6 active torsions:
REMARK  status: ('A' for Active; 'I' for Inactive)
REMARK    1  A    between atoms: C1_17  and  N1_1 
REMARK    2  A    between atoms: C5_10  and  O5_9 
REMARK    3  A    between atoms: C4_11  and  C5_10 
REMARK    4  A    between atoms: C3_13  and  O3_14 
REMARK    5  A    between atoms: O3_14  and  P_19 
REMARK    6  A    between atoms: C2_15  and  O2_16 
ROOT
ATOM      1  C4  UA3 d          39.092  -2.720  13.832  0.00  0.00     0.089 C 
ATOM      2  O4  UA3 d          38.894  -1.447  14.439  0.00  0.00    -0.353 OA
ATOM      3  C3  UA3 d          38.616  -3.212  12.638  0.00  0.00     0.107 C 
ATOM      4  C2  UA3 d          38.260  -1.599  12.077  0.00  0.00     0.106 C 
ATOM      5  C1  UA3 d          37.691  -1.006  13.550  0.00  0.00     0.141 C 
ATOM      6  H7  UA3 d          38.281  -3.189  14.409  0.00  0.00     0.090 H 
ATOM      7  H8  UA3 d          39.482  -3.642  12.113  0.00  0.00     0.092 H 
ATOM      8  H9  UA3 d          37.415  -1.600  11.372  0.00  0.00     0.093 H 
ATOM      9  H11 UA3 d          36.730  -1.419  13.892  0.00  0.00     0.123 H 
ENDROOT
BRANCH   5  10
ATOM     10  N1  UA3 d          37.616   0.374  13.302  0.00  0.00    -0.280 N 
ATOM     11  C2  UA3 d          36.460   0.828  12.602  0.00  0.00     0.331 A 
ATOM     12  O2  UA3 d          35.601   0.094  12.264  0.00  0.00    -0.246 OA
ATOM     13  N3  UA3 d          36.462   2.211  12.372  0.00  0.00    -0.275 N 
ATOM     14  C4  UA3 d          37.448   3.153  12.742  0.00  0.00     0.250 A 
ATOM     15  H1  UA3 d          35.666   2.575  11.887  0.00  0.00     0.173 HD
ATOM     16  O4  UA3 d          37.266   4.314  12.450  0.00  0.00    -0.268 OA
ATOM     17  C5  UA3 d          38.592   2.596  13.444  0.00  0.00    -0.002 A 
ATOM     18  C6  UA3 d          38.649   1.276  13.699  0.00  0.00    -0.008 A 
ATOM     19  H2  UA3 d          39.404   3.247  13.765  0.00  0.00     0.094 H 
ATOM     20  H3  UA3 d          39.516   0.881  14.226  0.00  0.00     0.112 H 
ENDBRANCH   5  10
BRANCH   4  21
ATOM     21  O2  UA3 d          39.536  -1.019  11.221  0.00  0.00    -0.388 OA
ATOM     22  H10 UA3 d          39.731  -0.133  11.504  0.00  0.00     0.210 HD
ENDBRANCH   4  21
BRANCH   1  23
ATOM     23  C5  UA3 d          40.085  -3.421  14.387  0.00  0.00     0.043 C 
ATOM     24  H5  UA3 d          40.978  -3.277  13.760  0.00  0.00     0.078 H 
ATOM     25  H6  UA3 d          40.265  -2.999  15.386  0.00  0.00     0.078 H 
BRANCH  23  26
ATOM     26  O5  UA3 d          39.879  -4.969  14.561  0.00  0.00    -0.398 OA
ATOM     27  H4  UA3 d          39.930  -5.392  13.712  0.00  0.00     0.209 HD
ENDBRANCH  23  26
ENDBRANCH   1  23
BRANCH   3  28
ATOM     28  O3  UA3 d          37.467  -4.166  12.263  0.00  0.00    -0.272 OA
BRANCH  28  29
ATOM     29  P   UA3 d          36.323  -4.712  13.077  0.00  0.00     0.422 P 
ATOM     30  O3P UA3 d          35.619  -5.810  12.144  0.00  0.00    -0.617 OA
ATOM     31  O1P UA3 d          35.410  -3.583  13.457  0.00  0.00    -0.617 OA
ATOM     32  O2P UA3 d          36.870  -5.398  14.300  0.00  0.00    -0.617 OA
ENDBRANCH  28  29
ENDBRANCH   3  28
TORSDOF 6
ENDMDL
MODEL 3
REMARK VINA RESULT:      -4.8      2.895      6.375
REMARK  6 active torsions:
REMARK  status: ('A' for Active; 'I' for Inactive)
REMARK    1  A    between atoms: C1_17  and  N1_1 
REMARK    2  A    between atoms: C5_10  and  O5_9 
REMARK    3  A    between atoms: C4_11  and  C5_10 
REMARK    4  A    between atoms: C3_13  and  O3_14 
REMARK    5  A    between atoms: O3_14  and  P_19 
REMARK    6  A    between atoms: C2_15  and  O2_16 
ROOT
ATOM      1  C4  UA3 d          38.162  -2.542  13.687  0.00  0.00     0.089 C 
ATOM      2  O4  UA3 d          38.237  -1.393  14.524  0.00  0.00    -0.353 OA
ATOM      3  C3  UA3 d          38.051  -2.631  12.318  0.00  0.00     0.107 C 
ATOM      4  C2  UA3 d          38.585  -0.980  12.133  0.00  0.00     0.106 C 
ATOM      5  C1  UA3 d          37.749  -0.360  13.460  0.00  0.00     0.141 C 
ATOM      6  H7  UA3 d          37.078  -2.654  13.835  0.00  0.00     0.090 H 
ATOM      7  H8  UA3 d          38.820  -3.346  11.990  0.00  0.00     0.092 H 
ATOM      8  H9  UA3 d          38.157  -0.522  11.229  0.00  0.00     0.093 H 
ATOM      9  H11 UA3 d          36.654  -0.329  13.363  0.00  0.00     0.123 H 
ENDROOT
BRANCH   5  10
ATOM     10  N1  UA3 d          38.306   0.922  13.586  0.00  0.00    -0.280 N 
ATOM     11  C2  UA3 d          37.747   1.937  12.755  0.00  0.00     0.331 A 
ATOM     12  O2  UA3 d          36.853   1.724  12.017  0.00  0.00    -0.246 OA
ATOM     13  N3  UA3 d          38.364   3.186  12.918  0.00  0.00    -0.275 N 
ATOM     14  C4  UA3 d          39.436   3.521  13.775  0.00  0.00     0.250 A 
ATOM     15  H1  UA3 d          38.000   3.931  12.358  0.00  0.00     0.173 HD
ATOM     16  O4  UA3 d          39.833   4.665  13.772  0.00  0.00    -0.268 OA
ATOM     17  C5  UA3 d          39.945   2.420  14.577  0.00  0.00    -0.002 A 
ATOM     18  C6  UA3 d          39.394   1.198  14.470  0.00  0.00    -0.008 A 
ATOM     19  H2  UA3 d          40.774   2.585  15.264  0.00  0.00     0.094 H 
ATOM     20  H3  UA3 d          39.791   0.388  15.079  0.00  0.00     0.112 H 
ENDBRANCH   5  10
BRANCH   4  21
ATOM     21  O2  UA3 d          40.211  -0.950  11.904  0.00  0.00    -0.388 OA
ATOM     22  H10 UA3 d          40.505  -0.048  11.848  0.00  0.00     0.210 HD
ENDBRANCH   4  21
BRANCH   1  23
ATOM     23  C5  UA3 d          38.508  -3.672  14.309  0.00  0.00     0.043 C 
ATOM     24  H5  UA3 d          39.372  -4.091  13.773  0.00  0.00     0.078 H 
ATOM     25  H6  UA3 d          38.807  -3.404  15.333  0.00  0.00     0.078 H 
BRANCH  23  26
ATOM     26  O5  UA3 d          37.427  -4.807  14.418  0.00  0.00    -0.398 OA
ATOM     27  H4  UA3 d          36.828  -4.744  13.684  0.00  0.00     0.209 HD
ENDBRANCH  23  26
ENDBRANCH   1  23
BRANCH   3  28
ATOM     28  O3  UA3 d          36.877  -2.915  11.362  0.00  0.00    -0.272 OA
BRANCH  28  29
ATOM     29  P   UA3 d          35.416  -3.170  11.630  0.00  0.00     0.422 P 
ATOM     30  O3P UA3 d          34.629  -2.019  10.839  0.00  0.00    -0.617 OA
ATOM     31  O1P UA3 d          35.178  -3.141  13.111  0.00  0.00    -0.617 OA
ATOM     32  O2P UA3 d          35.033  -4.504  11.048  0.00  0.00    -0.617 OA
ENDBRANCH  28  29
ENDBRANCH   3  28
TORSDOF 6
ENDMDL
MODEL 4
REMARK VINA RESULT:      -4.7      3.144      6.747
REMARK  6 active torsions:
REMARK  status: ('A' for Active; 'I' for Inactive)
REMARK    1  A    between atoms: C1_17  and  N1_1 
REMARK    2  A    between atoms: C5_10  and  O5_9 
REMARK    3  A    between atoms: C4_11  and  C5_10 
REMARK    4  A    between atoms: C3_13  and  O3_14 
REMARK    5  A    between atoms: O3_14  and  P_19 
REMARK    6  A    between atoms: C2_15  and  O2_16 
ROOT
ATOM      1  C4  UA3 d          36.773  -1.997  11.389  0.00  0.00     0.089 C 
ATOM      2  O4  UA3 d          36.610  -0.600  11.170  0.00  0.00    -0.353 OA
ATOM      3  C3  UA3 d          37.673  -2.665  12.188  0.00  0.00     0.107 C 
ATOM      4  C2  UA3 d          38.008  -1.208  13.088  0.00  0.00     0.106 C 
ATOM      5  C1  UA3 d          37.982  -0.159  11.768  0.00  0.00     0.141 C 
ATOM      6  H7  UA3 d          37.394  -2.127  10.490  0.00  0.00     0.090 H 
ATOM      7  H8  UA3 d          37.087  -3.383  12.781  0.00  0.00     0.092 H 
ATOM      8  H9  UA3 d          39.033  -1.213  13.486  0.00  0.00     0.093 H 
ATOM      9  H11 UA3 d          38.814  -0.265  11.056  0.00  0.00     0.123 H 
ENDROOT
BRANCH   5  10
ATOM     10  N1  UA3 d          37.975   1.099  12.392  0.00  0.00    -0.280 N 
ATOM     11  C2  UA3 d          39.250   1.653  12.709  0.00  0.00     0.331 A 
ATOM     12  O2  UA3 d          40.258   1.101  12.446  0.00  0.00    -0.246 OA
ATOM     13  N3  UA3 d          39.168   2.898  13.347  0.00  0.00    -0.275 N 
ATOM     14  C4  UA3 d          38.005   3.621  13.696  0.00  0.00     0.250 A 
ATOM     15  H1  UA3 d          40.039   3.328  13.584  0.00  0.00     0.173 HD
ATOM     16  O4  UA3 d          38.142   4.690  14.249  0.00  0.00    -0.268 OA
ATOM     17  C5  UA3 d          36.753   2.974  13.341  0.00  0.00    -0.002 A 
ATOM     18  C6  UA3 d          36.764   1.780  12.723  0.00  0.00    -0.008 A 
ATOM     19  H2  UA3 d          35.805   3.457  13.574  0.00  0.00     0.094 H 
ATOM     20  H3  UA3 d          35.814   1.313  12.466  0.00  0.00     0.112 H 
ENDBRANCH   5  10
BRANCH   4  21
ATOM     21  O2  UA3 d          37.032  -1.139  14.407  0.00  0.00    -0.388 OA
ATOM     22  H10 UA3 d          37.425  -0.574  15.062  0.00  0.00     0.210 HD
ENDBRANCH   4  21
BRANCH   1  23
ATOM     23  C5  UA3 d          35.740  -2.724  10.956  0.00  0.00     0.043 C 
ATOM     24  H5  UA3 d          36.041  -3.188  10.005  0.00  0.00     0.078 H 
ATOM     25  H6  UA3 d          35.554  -3.508  11.704  0.00  0.00     0.078 H 
BRANCH  23  26
ATOM     26  O5  UA3 d          34.378  -1.982  10.706  0.00  0.00    -0.398 OA
ATOM     27  H4  UA3 d          34.259  -1.309  11.366  0.00  0.00     0.209 HD
ENDBRANCH  23  26
ENDBRANCH   1  23
BRANCH   3  28
ATOM     28  O3  UA3 d          38.983  -3.424  11.910  0.00  0.00    -0.272 OA
BRANCH  28  29
ATOM     29  P   UA3 d          39.623  -4.595  12.612  0.00  0.00     0.422 P 
ATOM     30  O3P UA3 d          41.077  -4.745  11.954  0.00  0.00    -0.617 OA
ATOM     31  O1P UA3 d          38.759  -5.808  12.427  0.00  0.00    -0.617 OA
ATOM     32  O2P UA3 d          39.785  -4.266  14.072  0.00  0.00    -0.617 OA
ENDBRANCH  28  29
ENDBRANCH   3  28
TORSDOF 6
ENDMDL
MODEL 5
REMARK VINA RESULT:      -4.5      3.182      6.922
REMARK  6 active torsions:
REMARK  status: ('A' for Active; 'I' for Inactive)
REMARK    1  A    between atoms: C1_17  and  N1_1 
REMARK    2  A    between atoms: C5_10  and  O5_9 
REMARK    3  A    between atoms: C4_11  and  C5_10 
REMARK    4  A    between atoms: C3_13  and  O3_14 
REMARK    5  A    between atoms: O3_14  and  P_19 
REMARK    6  A    between atoms: C2_15  and  O2_16 
ROOT
ATOM      1  C4  UA3 d          36.590  -1.325  11.510  0.00  0.00     0.089 C 
ATOM      2  O4  UA3 d          36.955   0.024  11.238  0.00  0.00    -0.353 OA
ATOM      3  C3  UA3 d          37.196  -2.257  12.321  0.00  0.00     0.107 C 
ATOM      4  C2  UA3 d          38.077  -1.005  13.158  0.00  0.00     0.106 C 
ATOM      5  C1  UA3 d          38.408  -0.063  11.799  0.00  0.00     0.141 C 
ATOM      6  H7  UA3 d          37.091  -1.706  10.608  0.00  0.00     0.090 H 
ATOM      7  H8  UA3 d          36.402  -2.684  12.950  0.00  0.00     0.092 H 
ATOM      8  H9  UA3 d          39.037  -1.382  13.542  0.00  0.00     0.093 H 
ATOM      9  H11 UA3 d          39.121  -0.496  11.080  0.00  0.00     0.123 H 
ENDROOT
BRANCH   5  10
ATOM     10  N1  UA3 d          38.891   1.123  12.373  0.00  0.00    -0.280 N 
ATOM     11  C2  UA3 d          40.308   1.262  12.440  0.00  0.00     0.331 A 
ATOM     12  O2  UA3 d          41.041   0.439  12.020  0.00  0.00    -0.246 OA
ATOM     13  N3  UA3 d          40.718   2.459  13.043  0.00  0.00    -0.275 N 
ATOM     14  C4  UA3 d          39.907   3.489  13.571  0.00  0.00     0.250 A 
ATOM     15  H1  UA3 d          41.706   2.602  13.107  0.00  0.00     0.173 HD
ATOM     16  O4  UA3 d          40.454   4.454  14.056  0.00  0.00    -0.268 OA
ATOM     17  C5  UA3 d          38.476   3.256  13.465  0.00  0.00    -0.002 A 
ATOM     18  C6  UA3 d          38.018   2.128  12.893  0.00  0.00    -0.008 A 
ATOM     19  H2  UA3 d          37.774   3.995  13.848  0.00  0.00     0.094 H 
ATOM     20  H3  UA3 d          36.943   1.974  12.825  0.00  0.00     0.112 H 
ENDBRANCH   5  10
BRANCH   4  21
ATOM     21  O2  UA3 d          37.235  -0.535  14.488  0.00  0.00    -0.388 OA
ATOM     22  H10 UA3 d          37.019  -1.298  15.011  0.00  0.00     0.210 HD
ENDBRANCH   4  21
BRANCH   1  23
ATOM     23  C5  UA3 d          35.348  -1.624  11.120  0.00  0.00     0.043 C 
ATOM     24  H5  UA3 d          34.685  -1.461  11.982  0.00  0.00     0.078 H 
ATOM     25  H6  UA3 d          35.080  -0.926  10.314  0.00  0.00     0.078 H 
BRANCH  23  26
ATOM     26  O5  UA3 d          35.079  -3.078  10.589  0.00  0.00    -0.398 OA
ATOM     27  H4  UA3 d          34.214  -3.117  10.199  0.00  0.00     0.209 HD
ENDBRANCH  23  26
ENDBRANCH   1  23
BRANCH   3  28
ATOM     28  O3  UA3 d          38.118  -3.460  12.053  0.00  0.00    -0.272 OA
BRANCH  28  29
ATOM     29  P   UA3 d          38.250  -4.788  12.754  0.00  0.00     0.422 P 
ATOM     30  O3P UA3 d          38.632  -4.436  14.270  0.00  0.00    -0.617 OA
ATOM     31  O1P UA3 d          39.293  -5.609  12.054  0.00  0.00    -0.617 OA
ATOM     32  O2P UA3 d          36.917  -5.487  12.742  0.00  0.00    -0.617 OA
ENDBRANCH  28  29
ENDBRANCH   3  28
TORSDOF 6
ENDMDL
MODEL 6
REMARK VINA RESULT:      -4.2      2.584      4.098
REMARK  6 active torsions:
REMARK  status: ('A' for Active; 'I' for Inactive)
REMARK    1  A    between atoms: C1_17  and  N1_1 
REMARK    2  A    between atoms: C5_10  and  O5_9 
REMARK    3  A    between atoms: C4_11  and  C5_10 
REMARK    4  A    between atoms: C3_13  and  O3_14 
REMARK    5  A    between atoms: O3_14  and  P_19 
REMARK    6  A    between atoms: C2_15  and  O2_16 
ROOT
ATOM      1  C4  UA3 d          36.730  -0.739  11.702  0.00  0.00     0.089 C 
ATOM      2  O4  UA3 d          36.761  -1.960  12.434  0.00  0.00    -0.353 OA
ATOM      3  C3  UA3 d          37.700   0.227  11.556  0.00  0.00     0.107 C 
ATOM      4  C2  UA3 d          38.935  -0.886  12.085  0.00  0.00     0.106 C 
ATOM      5  C1  UA3 d          38.020  -1.627  13.292  0.00  0.00     0.141 C 
ATOM      6  H7  UA3 d          36.233  -0.193  12.517  0.00  0.00     0.090 H 
ATOM      7  H8  UA3 d          37.773   0.432  10.478  0.00  0.00     0.092 H 
ATOM      8  H9  UA3 d          39.764  -0.355  12.577  0.00  0.00     0.093 H 
ATOM      9  H11 UA3 d          37.790  -1.002  14.169  0.00  0.00     0.123 H 
ENDROOT
BRANCH   5  10
ATOM     10  N1  UA3 d          38.816  -2.734  13.626  0.00  0.00    -0.280 N 
ATOM     11  C2  UA3 d          40.107  -2.447  14.158  0.00  0.00     0.331 A 
ATOM     12  O2  UA3 d          40.485  -1.344  14.330  0.00  0.00    -0.246 OA
ATOM     13  N3  UA3 d          40.852  -3.598  14.450  0.00  0.00    -0.275 N 
ATOM     14  C4  UA3 d          40.474  -4.948  14.271  0.00  0.00     0.250 A 
ATOM     15  H1  UA3 d          41.765  -3.445  14.831  0.00  0.00     0.173 HD
ATOM     16  O4  UA3 d          41.266  -5.808  14.585  0.00  0.00    -0.268 OA
ATOM     17  C5  UA3 d          39.144  -5.142  13.716  0.00  0.00    -0.002 A 
ATOM     18  C6  UA3 d          38.377  -4.078  13.419  0.00  0.00    -0.008 A 
ATOM     19  H2  UA3 d          38.769  -6.149  13.541  0.00  0.00     0.094 H 
ATOM     20  H3  UA3 d          37.385  -4.247  13.004  0.00  0.00     0.112 H 
ENDBRANCH   5  10
BRANCH   4  21
ATOM     21  O2  UA3 d          39.608  -1.623  10.780  0.00  0.00    -0.388 OA
ATOM     22  H10 UA3 d          38.924  -2.027  10.259  0.00  0.00     0.210 HD
ENDBRANCH   4  21
BRANCH   1  23
ATOM     23  C5  UA3 d          35.712  -0.666  10.840  0.00  0.00     0.043 C 
ATOM     24  H5  UA3 d          35.174   0.271  11.046  0.00  0.00     0.078 H 
ATOM     25  H6  UA3 d          36.142  -0.628   9.829  0.00  0.00     0.078 H 
BRANCH  23  26
ATOM     26  O5  UA3 d          34.655  -1.828  10.857  0.00  0.00    -0.398 OA
ATOM     27  H4  UA3 d          33.842  -1.521  10.472  0.00  0.00     0.209 HD
ENDBRANCH  23  26
ENDBRANCH   1  23
BRANCH   3  28
ATOM     28  O3  UA3 d          37.928   1.609  12.193  0.00  0.00    -0.272 OA
BRANCH  28  29
ATOM     29  P   UA3 d          37.000   2.516  12.961  0.00  0.00     0.422 P 
ATOM     30  O3P UA3 d          37.901   3.176  14.111  0.00  0.00    -0.617 OA
ATOM     31  O1P UA3 d          35.856   1.705  13.495  0.00  0.00    -0.617 OA
ATOM     32  O2P UA3 d          36.508   3.607  12.049  0.00  0.00    -0.617 OA
ENDBRANCH  28  29
ENDBRANCH   3  28
TORSDOF 6
ENDMDL
MODEL 7
REMARK VINA RESULT:      -3.4      3.034      6.619
REMARK  6 active torsions:
REMARK  status: ('A' for Active; 'I' for Inactive)
REMARK    1  A    between atoms: C1_17  and  N1_1 
REMARK    2  A    between atoms: C5_10  and  O5_9 
REMARK    3  A    between atoms: C4_11  and  C5_10 
REMARK    4  A    between atoms: C3_13  and  O3_14 
REMARK    5  A    between atoms: O3_14  and  P_19 
REMARK    6  A    between atoms: C2_15  and  O2_16 
ROOT
ATOM      1  C4  UA3 d          36.501  -1.275  11.806  0.00  0.00     0.089 C 
ATOM      2  O4  UA3 d          37.433  -0.367  11.229  0.00  0.00    -0.353 OA
ATOM      3  C3  UA3 d          36.428  -1.770  13.088  0.00  0.00     0.107 C 
ATOM      4  C2  UA3 d          37.458  -0.490  13.676  0.00  0.00     0.106 C 
ATOM      5  C1  UA3 d          38.508  -0.468  12.356  0.00  0.00     0.141 C 
ATOM      6  H7  UA3 d          37.042  -2.160  11.438  0.00  0.00     0.090 H 
ATOM      7  H8  UA3 d          35.387  -1.635  13.414  0.00  0.00     0.092 H 
ATOM      8  H9  UA3 d          38.037  -0.816  14.553  0.00  0.00     0.093 H 
ATOM      9  H11 UA3 d          39.160  -1.347  12.250  0.00  0.00     0.123 H 
ENDROOT
BRANCH   5  10
ATOM     10  N1  UA3 d          39.238   0.710  12.581  0.00  0.00    -0.280 N 
ATOM     11  C2  UA3 d          38.553   1.935  12.329  0.00  0.00     0.331 A 
ATOM     12  O2  UA3 d          37.430   1.966  11.971  0.00  0.00    -0.246 OA
ATOM     13  N3  UA3 d          39.348   3.068  12.554  0.00  0.00    -0.275 N 
ATOM     14  C4  UA3 d          40.695   3.115  12.979  0.00  0.00     0.250 A 
ATOM     15  H1  UA3 d          38.907   3.951  12.395  0.00  0.00     0.173 HD
ATOM     16  O4  UA3 d          41.212   4.201  13.116  0.00  0.00    -0.268 OA
ATOM     17  C5  UA3 d          41.311   1.817  13.203  0.00  0.00    -0.002 A 
ATOM     18  C6  UA3 d          40.601   0.692  13.007  0.00  0.00    -0.008 A 
ATOM     19  H2  UA3 d          42.348   1.756  13.528  0.00  0.00     0.094 H 
ATOM     20  H3  UA3 d          41.083  -0.269  13.181  0.00  0.00     0.112 H 
ENDBRANCH   5  10
BRANCH   4  21
ATOM     21  O2  UA3 d          36.534   0.760  14.208  0.00  0.00    -0.388 OA
ATOM     22  H10 UA3 d          35.715   0.423  14.552  0.00  0.00     0.210 HD
ENDBRANCH   4  21
BRANCH   1  23
ATOM     23  C5  UA3 d          35.409  -1.456  11.059  0.00  0.00     0.043 C 
ATOM     24  H5  UA3 d          34.554  -1.054  11.623  0.00  0.00     0.078 H 
ATOM     25  H6  UA3 d          35.544  -0.875  10.135  0.00  0.00     0.078 H 
BRANCH  23  26
ATOM     26  O5  UA3 d          35.045  -2.926  10.639  0.00  0.00    -0.398 OA
ATOM     27  H4  UA3 d          34.936  -2.967   9.696  0.00  0.00     0.209 HD
ENDBRANCH  23  26
ENDBRANCH   1  23
BRANCH   3  28
ATOM     28  O3  UA3 d          36.830  -3.108  13.736  0.00  0.00    -0.272 OA
BRANCH  28  29
ATOM     29  P   UA3 d          37.391  -4.373  13.139  0.00  0.00     0.422 P 
ATOM     30  O3P UA3 d          37.676  -5.343  14.383  0.00  0.00    -0.617 OA
ATOM     31  O1P UA3 d          38.623  -4.038  12.352  0.00  0.00    -0.617 OA
ATOM     32  O2P UA3 d          36.347  -5.010  12.261  0.00  0.00    -0.617 OA
ENDBRANCH  28  29
ENDBRANCH   3  28
TORSDOF 6
ENDMDL
MODEL 8
REMARK VINA RESULT:      -3.4      1.337      1.917
REMARK  6 active torsions:
REMARK  status: ('A' for Active; 'I' for Inactive)
REMARK    1  A    between atoms: C1_17  and  N1_1 
REMARK    2  A    between atoms: C5_10  and  O5_9 
REMARK    3  A    between atoms: C4_11  and  C5_10 
REMARK    4  A    between atoms: C3_13  and  O3_14 
REMARK    5  A    between atoms: O3_14  and  P_19 
REMARK    6  A    between atoms: C2_15  and  O2_16 
ROOT
ATOM      1  C4  UA3 d          39.459   0.467  12.597  0.00  0.00     0.089 C 
ATOM      2  O4  UA3 d          38.981  -0.429  11.599  0.00  0.00    -0.353 OA
ATOM      3  C3  UA3 d          38.848   0.916  13.746  0.00  0.00     0.107 C 
ATOM      4  C2  UA3 d          37.698  -0.395  13.687  0.00  0.00     0.106 C 
ATOM      5  C1  UA3 d          37.478  -0.380  12.015  0.00  0.00     0.141 C 
ATOM      6  H7  UA3 d          39.160   1.358  12.026  0.00  0.00     0.090 H 
ATOM      7  H8  UA3 d          39.577   0.780  14.558  0.00  0.00     0.092 H 
ATOM      8  H9  UA3 d          36.742  -0.107  14.150  0.00  0.00     0.093 H 
ATOM      9  H11 UA3 d          36.949   0.496  11.611  0.00  0.00     0.123 H 
ENDROOT
BRANCH   5  10
ATOM     10  N1  UA3 d          36.768  -1.573  11.802  0.00  0.00    -0.280 N 
ATOM     11  C2  UA3 d          37.531  -2.777  11.842  0.00  0.00     0.331 A 
ATOM     12  O2  UA3 d          38.689  -2.780  12.061  0.00  0.00    -0.246 OA
ATOM     13  N3  UA3 d          36.763  -3.925  11.601  0.00  0.00    -0.275 N 
ATOM     14  C4  UA3 d          35.378  -4.004  11.329  0.00  0.00     0.250 A 
ATOM     15  H1  UA3 d          37.256  -4.795  11.624  0.00  0.00     0.173 HD
ATOM     16  O4  UA3 d          34.895  -5.099  11.146  0.00  0.00    -0.268 OA
ATOM     17  C5  UA3 d          34.687  -2.726  11.301  0.00  0.00    -0.002 A 
ATOM     18  C6  UA3 d          35.366  -1.588  11.528  0.00  0.00    -0.008 A 
ATOM     19  H2  UA3 d          33.618  -2.689  11.096  0.00  0.00     0.094 H 
ATOM     20  H3  UA3 d          34.828  -0.641  11.502  0.00  0.00     0.112 H 
ENDBRANCH   5  10
BRANCH   4  21
ATOM     21  O2  UA3 d          38.251  -1.653  14.587  0.00  0.00    -0.388 OA
ATOM     22  H10 UA3 d          38.109  -2.465  14.114  0.00  0.00     0.210 HD
ENDBRANCH   4  21
BRANCH   1  23
ATOM     23  C5  UA3 d          40.774   0.686  12.523  0.00  0.00     0.043 C 
ATOM     24  H5  UA3 d          41.273  -0.125  13.075  0.00  0.00     0.078 H 
ATOM     25  H6  UA3 d          41.056   0.634  11.461  0.00  0.00     0.078 H 
BRANCH  23  26
ATOM     26  O5  UA3 d          41.322   2.045  13.089  0.00  0.00    -0.398 OA
ATOM     27  H4  UA3 d          42.111   1.882  13.593  0.00  0.00     0.209 HD
ENDBRANCH  23  26
ENDBRANCH   1  23
BRANCH   3  28
ATOM     28  O3  UA3 d          38.135   2.225  14.128  0.00  0.00    -0.272 OA
BRANCH  28  29
ATOM     29  P   UA3 d          37.726   3.415  13.298  0.00  0.00     0.422 P 
ATOM     30  O3P UA3 d          36.289   3.041  12.693  0.00  0.00    -0.617 OA
ATOM     31  O1P UA3 d          38.768   3.658  12.247  0.00  0.00    -0.617 OA
ATOM     32  O2P UA3 d          37.574   4.615  14.194  0.00  0.00    -0.617 OA
ENDBRANCH  28  29
ENDBRANCH   3  28
TORSDOF 6
ENDMDL
