MODEL 1
REMARK VINA RESULT:      -9.9      0.000      0.000
REMARK  7 active torsions:
REMARK  status: ('A' for Active; 'I' for Inactive)
REMARK    1  A    between atoms: C8_9  and  C4_10 
REMARK    2  A    between atoms: C1_11  and  C7_12 
REMARK    3  A    between atoms: C2_16  and  C6_18 
REMARK    4  A    between atoms: C14_20  and  C26_21 
REMARK    5  A    between atoms: C26_21  and  C27_22 
REMARK    6  A    between atoms: C13_23  and  O25_24 
REMARK    7  A    between atoms: C9_26  and  O24_27 
ROOT
ATOM      1  C4  MOL d           0.174  34.334  -4.854  0.00  0.00     0.041 A 
ATOM      2  C1  MOL d           0.196  34.349  -6.243  0.00  0.00     0.140 A 
ATOM      3  N5  MOL d          -0.521  33.311  -6.672  0.00  0.00    -0.270 N 
ATOM      4  C2  MOL d          -0.586  33.213  -4.541  0.00  0.00     0.103 A 
ATOM      5  N3  MOL d          -0.963  32.677  -5.705  0.00  0.00    -0.173 NA
ATOM      6  H6  MOL d          -0.684  33.073  -7.661  0.00  0.00     0.189 HD
ENDROOT
BRANCH   4   7
ATOM      7  C6  MOL d          -0.754  32.705  -3.253  0.00  0.00     0.029 A 
ATOM      8  C10 MOL d           0.337  32.283  -2.491  0.00  0.00    -0.059 A 
ATOM      9  C14 MOL d           0.171  31.839  -1.181  0.00  0.00    -0.024 A 
ATOM     10  H7  MOL d           1.330  32.301  -2.926  0.00  0.00     0.086 H 
ATOM     11  C13 MOL d          -1.096  31.846  -0.608  0.00  0.00     0.074 A 
ATOM     12  C11 MOL d          -2.197  32.234  -1.368  0.00  0.00    -0.018 A 
ATOM     13  C9  MOL d          -2.023  32.653  -2.687  0.00  0.00     0.081 A 
ATOM     14  H14 MOL d          -3.190  32.212  -0.934  0.00  0.00     0.092 H 
BRANCH   9  15
ATOM     15  C26 MOL d           1.373  31.252  -0.435  0.00  0.00    -0.042 C 
ATOM     16  H8  MOL d           1.044  30.874   0.544  0.00  0.00     0.039 H 
ATOM     17  H9  MOL d           2.129  32.037  -0.290  0.00  0.00     0.039 H 
BRANCH  15  18
ATOM     18  C27 MOL d           1.983  30.104  -1.244  0.00  0.00    -0.073 C 
ATOM     19  H10 MOL d           2.347  30.487  -2.209  0.00  0.00     0.028 H 
ATOM     20  H11 MOL d           1.218  29.333  -1.421  0.00  0.00     0.028 H 
ATOM     21  H12 MOL d           2.822  29.665  -0.684  0.00  0.00     0.028 H 
ENDBRANCH  15  18
ENDBRANCH   9  15
BRANCH  11  22
ATOM     22  O25 MOL d          -1.215  31.630   0.733  0.00  0.00    -0.360 OA
ATOM     23  H13 MOL d          -1.271  30.696   0.899  0.00  0.00     0.217 HD
ENDBRANCH  11  22
BRANCH  13  24
ATOM     24  O24 MOL d          -3.102  33.003  -3.435  0.00  0.00    -0.360 OA
ATOM     25  H15 MOL d          -3.776  32.341  -3.346  0.00  0.00     0.217 HD
ENDBRANCH  13  24
ENDBRANCH   4   7
BRANCH   1  26
ATOM     26  C8  MOL d           0.742  35.246  -3.965  0.00  0.00    -0.018 A 
ATOM     27  C15 MOL d           2.041  35.024  -3.517  0.00  0.00    -0.037 A 
ATOM     28  C12 MOL d           2.587  35.897  -2.581  0.00  0.00     0.105 A 
ATOM     29  H1  MOL d           2.618  34.185  -3.891  0.00  0.00     0.089 H 
ATOM     30  O17 MOL d           3.807  35.912  -1.968  0.00  0.00    -0.323 OA
ATOM     31  C16 MOL d           1.850  36.983  -2.110  0.00  0.00     0.105 A 
ATOM     32  C19 MOL d           3.828  37.007  -1.138  0.00  0.00     0.115 A 
ATOM     33  O18 MOL d           2.629  37.670  -1.223  0.00  0.00    -0.323 OA
ATOM     34  H2  MOL d           4.642  37.682  -1.443  0.00  0.00     0.118 H 
ATOM     35  H3  MOL d           3.993  36.677  -0.101  0.00  0.00     0.118 H 
ATOM     36  C22 MOL d           0.553  37.214  -2.558  0.00  0.00    -0.047 A 
ATOM     37  C20 MOL d           0.009  36.332  -3.488  0.00  0.00    -0.069 A 
ATOM     38  H4  MOL d          -0.019  38.059  -2.193  0.00  0.00     0.087 H 
ATOM     39  H5  MOL d          -1.001  36.493  -3.847  0.00  0.00     0.085 H 
ENDBRANCH   1  26
BRANCH   2  40
ATOM     40  C7  MOL d           0.849  35.374  -7.172  0.00  0.00     0.229 C 
ATOM     41  O21 MOL d           0.266  36.440  -7.366  0.00  0.00    -0.643 OA
ATOM     42  O23 MOL d           1.931  35.145  -7.717  0.00  0.00    -0.643 OA
ENDBRANCH   2  40
TORSDOF 7
ENDMDL
MODEL 2
REMARK VINA RESULT:      -7.6      1.818      5.141
REMARK  7 active torsions:
REMARK  status: ('A' for Active; 'I' for Inactive)
REMARK    1  A    between atoms: C8_9  and  C4_10 
REMARK    2  A    between atoms: C1_11  and  C7_12 
REMARK    3  A    between atoms: C2_16  and  C6_18 
REMARK    4  A    between atoms: C14_20  and  C26_21 
REMARK    5  A    between atoms: C26_21  and  C27_22 
REMARK    6  A    between atoms: C13_23  and  O25_24 
REMARK    7  A    between atoms: C9_26  and  O24_27 
ROOT
ATOM      1  C4  MOL d           0.414  34.357  -4.456  0.00  0.00     0.041 A 
ATOM      2  C1  MOL d          -0.035  34.220  -5.764  0.00  0.00     0.140 A 
ATOM      3  N5  MOL d           0.527  35.186  -6.489  0.00  0.00    -0.270 N 
ATOM      4  C2  MOL d           1.246  35.470  -4.500  0.00  0.00     0.103 A 
ATOM      5  N3  MOL d           1.252  35.885  -5.770  0.00  0.00    -0.173 NA
ATOM      6  H6  MOL d           0.380  35.329  -7.499  0.00  0.00     0.189 HD
ENDROOT
BRANCH   4   7
ATOM      7  C6  MOL d           1.808  36.082  -3.380  0.00  0.00     0.029 A 
ATOM      8  C10 MOL d           3.015  35.637  -2.838  0.00  0.00    -0.059 A 
ATOM      9  C14 MOL d           3.605  36.294  -1.761  0.00  0.00    -0.024 A 
ATOM     10  H7  MOL d           3.500  34.765  -3.262  0.00  0.00     0.086 H 
ATOM     11  C13 MOL d           3.003  37.433  -1.235  0.00  0.00     0.074 A 
ATOM     12  C11 MOL d           1.783  37.868  -1.747  0.00  0.00    -0.018 A 
ATOM     13  C9  MOL d           1.187  37.188  -2.810  0.00  0.00     0.081 A 
ATOM     14  H14 MOL d           1.296  38.737  -1.320  0.00  0.00     0.092 H 
BRANCH   9  15
ATOM     15  C26 MOL d           4.851  35.687  -1.109  0.00  0.00    -0.042 C 
ATOM     16  H8  MOL d           5.111  36.267  -0.211  0.00  0.00     0.039 H 
ATOM     17  H9  MOL d           5.687  35.720  -1.822  0.00  0.00     0.039 H 
BRANCH  15  18
ATOM     18  C27 MOL d           4.580  34.232  -0.713  0.00  0.00    -0.073 C 
ATOM     19  H10 MOL d           3.826  34.204   0.088  0.00  0.00     0.028 H 
ATOM     20  H11 MOL d           5.512  33.770  -0.356  0.00  0.00     0.028 H 
ATOM     21  H12 MOL d           4.207  33.677  -1.587  0.00  0.00     0.028 H 
ENDBRANCH  15  18
ENDBRANCH   9  15
BRANCH  11  22
ATOM     22  O25 MOL d           3.697  38.193  -0.342  0.00  0.00    -0.360 OA
ATOM     23  H13 MOL d           3.443  39.104  -0.439  0.00  0.00     0.217 HD
ENDBRANCH  11  22
BRANCH  13  24
ATOM     24  O24 MOL d          -0.017  37.597  -3.287  0.00  0.00    -0.360 OA
ATOM     25  H15 MOL d           0.119  38.172  -4.031  0.00  0.00     0.217 HD
ENDBRANCH  13  24
ENDBRANCH   4   7
BRANCH   1  26
ATOM     26  C8  MOL d           0.136  33.551  -3.352  0.00  0.00    -0.018 A 
ATOM     27  C15 MOL d          -1.181  33.444  -2.915  0.00  0.00    -0.037 A 
ATOM     28  C12 MOL d          -1.451  32.692  -1.776  0.00  0.00     0.105 A 
ATOM     29  H1  MOL d          -1.982  33.938  -3.453  0.00  0.00     0.089 H 
ATOM     30  O17 MOL d          -2.624  32.433  -1.126  0.00  0.00    -0.323 OA
ATOM     31  C16 MOL d          -0.422  32.047  -1.092  0.00  0.00     0.105 A 
ATOM     32  C19 MOL d          -2.322  31.621  -0.059  0.00  0.00     0.115 A 
ATOM     33  O18 MOL d          -0.971  31.379  -0.034  0.00  0.00    -0.323 OA
ATOM     34  H2  MOL d          -2.863  30.668  -0.159  0.00  0.00     0.118 H 
ATOM     35  H3  MOL d          -2.623  32.118   0.876  0.00  0.00     0.118 H 
ATOM     36  C22 MOL d           0.896  32.145  -1.527  0.00  0.00    -0.047 A 
ATOM     37  C20 MOL d           1.162  32.905  -2.662  0.00  0.00    -0.069 A 
ATOM     38  H4  MOL d           1.696  31.641  -0.995  0.00  0.00     0.087 H 
ATOM     39  H5  MOL d           2.183  32.997  -3.015  0.00  0.00     0.085 H 
ENDBRANCH   1  26
BRANCH   2  40
ATOM     40  C7  MOL d          -0.954  33.145  -6.345  0.00  0.00     0.229 C 
ATOM     41  O21 MOL d          -1.870  33.499  -7.088  0.00  0.00    -0.643 OA
ATOM     42  O23 MOL d          -0.790  31.952  -6.081  0.00  0.00    -0.643 OA
ENDBRANCH   2  40
TORSDOF 7
ENDMDL
MODEL 3
REMARK VINA RESULT:      -7.3      1.774      5.443
REMARK  7 active torsions:
REMARK  status: ('A' for Active; 'I' for Inactive)
REMARK    1  A    between atoms: C8_9  and  C4_10 
REMARK    2  A    between atoms: C1_11  and  C7_12 
REMARK    3  A    between atoms: C2_16  and  C6_18 
REMARK    4  A    between atoms: C14_20  and  C26_21 
REMARK    5  A    between atoms: C26_21  and  C27_22 
REMARK    6  A    between atoms: C13_23  and  O25_24 
REMARK    7  A    between atoms: C9_26  and  O24_27 
ROOT
ATOM      1  C4  MOL d          -0.311  33.071  -2.537  0.00  0.00     0.041 A 
ATOM      2  C1  MOL d          -1.099  32.348  -1.650  0.00  0.00     0.140 A 
ATOM      3  N5  MOL d          -2.288  32.160  -2.223  0.00  0.00    -0.270 N 
ATOM      4  C2  MOL d          -1.145  33.287  -3.629  0.00  0.00     0.103 A 
ATOM      5  N3  MOL d          -2.304  32.689  -3.341  0.00  0.00    -0.173 NA
ATOM      6  H6  MOL d          -3.075  31.649  -1.798  0.00  0.00     0.189 HD
ENDROOT
BRANCH   4   7
ATOM      7  C6  MOL d          -0.833  34.109  -4.712  0.00  0.00     0.029 A 
ATOM      8  C10 MOL d          -0.615  35.477  -4.545  0.00  0.00    -0.059 A 
ATOM      9  C14 MOL d          -0.239  36.282  -5.619  0.00  0.00    -0.024 A 
ATOM     10  H7  MOL d          -0.741  35.922  -3.565  0.00  0.00     0.086 H 
ATOM     11  C13 MOL d          -0.044  35.710  -6.872  0.00  0.00     0.074 A 
ATOM     12  C11 MOL d          -0.289  34.351  -7.057  0.00  0.00    -0.018 A 
ATOM     13  C9  MOL d          -0.690  33.559  -5.981  0.00  0.00     0.081 A 
ATOM     14  H14 MOL d          -0.167  33.908  -8.039  0.00  0.00     0.092 H 
BRANCH   9  15
ATOM     15  C26 MOL d          -0.151  37.797  -5.420  0.00  0.00    -0.042 C 
ATOM     16  H8  MOL d          -1.155  38.195  -5.209  0.00  0.00     0.039 H 
ATOM     17  H9  MOL d           0.243  38.262  -6.336  0.00  0.00     0.039 H 
BRANCH  15  18
ATOM     18  C27 MOL d           0.780  38.120  -4.247  0.00  0.00    -0.073 C 
ATOM     19  H10 MOL d           1.799  37.780  -4.483  0.00  0.00     0.028 H 
ATOM     20  H11 MOL d           0.422  37.605  -3.343  0.00  0.00     0.028 H 
ATOM     21  H12 MOL d           0.787  39.206  -4.072  0.00  0.00     0.028 H 
ENDBRANCH  15  18
ENDBRANCH   9  15
BRANCH  11  22
ATOM     22  O25 MOL d           0.540  36.454  -7.853  0.00  0.00    -0.360 OA
ATOM     23  H13 MOL d           0.456  36.002  -8.685  0.00  0.00     0.217 HD
ENDBRANCH  11  22
BRANCH  13  24
ATOM     24  O24 MOL d          -0.956  32.241  -6.171  0.00  0.00    -0.360 OA
ATOM     25  H15 MOL d          -0.357  31.888  -6.818  0.00  0.00     0.217 HD
ENDBRANCH  13  24
ENDBRANCH   4   7
BRANCH   1  26
ATOM     26  C8  MOL d           1.019  33.464  -2.397  0.00  0.00    -0.018 A 
ATOM     27  C15 MOL d           1.305  34.817  -2.232  0.00  0.00    -0.037 A 
ATOM     28  C12 MOL d           2.634  35.218  -2.157  0.00  0.00     0.105 A 
ATOM     29  H1  MOL d           0.504  35.545  -2.163  0.00  0.00     0.089 H 
ATOM     30  O17 MOL d           3.195  36.455  -2.015  0.00  0.00    -0.323 OA
ATOM     31  C16 MOL d           3.663  34.280  -2.233  0.00  0.00     0.105 A 
ATOM     32  C19 MOL d           4.557  36.279  -1.986  0.00  0.00     0.115 A 
ATOM     33  O18 MOL d           4.851  34.945  -2.118  0.00  0.00    -0.323 OA
ATOM     34  H2  MOL d           4.955  36.648  -1.029  0.00  0.00     0.118 H 
ATOM     35  H3  MOL d           5.017  36.839  -2.815  0.00  0.00     0.118 H 
ATOM     36  C22 MOL d           3.385  32.926  -2.392  0.00  0.00    -0.047 A 
ATOM     37  C20 MOL d           2.053  32.531  -2.475  0.00  0.00    -0.069 A 
ATOM     38  H4  MOL d           4.185  32.196  -2.449  0.00  0.00     0.087 H 
ATOM     39  H5  MOL d           1.814  31.481  -2.603  0.00  0.00     0.085 H 
ENDBRANCH   1  26
BRANCH   2  40
ATOM     40  C7  MOL d          -0.716  31.784  -0.281  0.00  0.00     0.229 C 
ATOM     41  O21 MOL d          -1.506  31.929   0.652  0.00  0.00    -0.643 OA
ATOM     42  O23 MOL d           0.355  31.199  -0.107  0.00  0.00    -0.643 OA
ENDBRANCH   2  40
TORSDOF 7
ENDMDL
MODEL 4
REMARK VINA RESULT:      -7.0      1.303      2.011
REMARK  7 active torsions:
REMARK  status: ('A' for Active; 'I' for Inactive)
REMARK    1  A    between atoms: C8_9  and  C4_10 
REMARK    2  A    between atoms: C1_11  and  C7_12 
REMARK    3  A    between atoms: C2_16  and  C6_18 
REMARK    4  A    between atoms: C14_20  and  C26_21 
REMARK    5  A    between atoms: C26_21  and  C27_22 
REMARK    6  A    between atoms: C13_23  and  O25_24 
REMARK    7  A    between atoms: C9_26  and  O24_27 
ROOT
ATOM      1  C4  MOL d           0.120  34.329  -4.615  0.00  0.00     0.041 A 
ATOM      2  C1  MOL d          -0.075  34.262  -5.989  0.00  0.00     0.140 A 
ATOM      3  N5  MOL d          -0.608  33.073  -6.266  0.00  0.00    -0.270 N 
ATOM      4  C2  MOL d          -0.321  33.095  -4.151  0.00  0.00     0.103 A 
ATOM      5  N3  MOL d          -0.747  32.421  -5.224  0.00  0.00    -0.173 NA
ATOM      6  H6  MOL d          -0.866  32.745  -7.208  0.00  0.00     0.189 HD
ENDROOT
BRANCH   4   7
ATOM      7  C6  MOL d          -0.174  32.643  -2.840  0.00  0.00     0.029 A 
ATOM      8  C10 MOL d          -1.281  32.444  -2.013  0.00  0.00    -0.059 A 
ATOM      9  C14 MOL d          -1.134  31.929  -0.727  0.00  0.00    -0.024 A 
ATOM     10  H7  MOL d          -2.271  32.695  -2.377  0.00  0.00     0.086 H 
ATOM     11  C13 MOL d           0.131  31.576  -0.267  0.00  0.00     0.074 A 
ATOM     12  C11 MOL d           1.246  31.799  -1.072  0.00  0.00    -0.018 A 
ATOM     13  C9  MOL d           1.091  32.339  -2.349  0.00  0.00     0.081 A 
ATOM     14  H14 MOL d           2.235  31.553  -0.705  0.00  0.00     0.092 H 
BRANCH   9  15
ATOM     15  C26 MOL d          -2.356  31.863   0.194  0.00  0.00    -0.042 C 
ATOM     16  H8  MOL d          -2.985  32.751   0.028  0.00  0.00     0.039 H 
ATOM     17  H9  MOL d          -2.021  31.841   1.241  0.00  0.00     0.039 H 
BRANCH  15  18
ATOM     18  C27 MOL d          -3.170  30.601  -0.105  0.00  0.00    -0.073 C 
ATOM     19  H10 MOL d          -3.466  30.123   0.841  0.00  0.00     0.028 H 
ATOM     20  H11 MOL d          -2.559  29.901  -0.693  0.00  0.00     0.028 H 
ATOM     21  H12 MOL d          -4.070  30.872  -0.676  0.00  0.00     0.028 H 
ENDBRANCH  15  18
ENDBRANCH   9  15
BRANCH  11  22
ATOM     22  O25 MOL d           0.237  30.867   0.892  0.00  0.00    -0.360 OA
ATOM     23  H13 MOL d          -0.545  30.341   1.014  0.00  0.00     0.217 HD
ENDBRANCH  11  22
BRANCH  13  24
ATOM     24  O24 MOL d           2.182  32.582  -3.119  0.00  0.00    -0.360 OA
ATOM     25  H15 MOL d           2.068  33.408  -3.576  0.00  0.00     0.217 HD
ENDBRANCH  13  24
ENDBRANCH   4   7
BRANCH   1  26
ATOM     26  C8  MOL d           0.608  35.393  -3.856  0.00  0.00    -0.018 A 
ATOM     27  C15 MOL d           1.969  35.442  -3.569  0.00  0.00    -0.037 A 
ATOM     28  C12 MOL d           2.447  36.467  -2.758  0.00  0.00     0.105 A 
ATOM     29  H1  MOL d           2.644  34.695  -3.969  0.00  0.00     0.089 H 
ATOM     30  O17 MOL d           3.706  36.747  -2.309  0.00  0.00    -0.323 OA
ATOM     31  C16 MOL d           1.579  37.435  -2.254  0.00  0.00     0.105 A 
ATOM     32  C19 MOL d           3.618  37.887  -1.548  0.00  0.00     0.115 A 
ATOM     33  O18 MOL d           2.315  38.315  -1.512  0.00  0.00    -0.323 OA
ATOM     34  H2  MOL d           4.249  38.673  -1.990  0.00  0.00     0.118 H 
ATOM     35  H3  MOL d           3.962  37.672  -0.525  0.00  0.00     0.118 H 
ATOM     36  C22 MOL d           0.219  37.395  -2.542  0.00  0.00    -0.047 A 
ATOM     37  C20 MOL d          -0.255  36.362  -3.346  0.00  0.00    -0.069 A 
ATOM     38  H4  MOL d          -0.455  38.149  -2.151  0.00  0.00     0.087 H 
ATOM     39  H5  MOL d          -1.313  36.311  -3.580  0.00  0.00     0.085 H 
ENDBRANCH   1  26
BRANCH   2  40
ATOM     40  C7  MOL d           0.189  35.342  -7.040  0.00  0.00     0.229 C 
ATOM     41  O21 MOL d          -0.556  36.321  -7.071  0.00  0.00    -0.643 OA
ATOM     42  O23 MOL d           1.121  35.242  -7.839  0.00  0.00    -0.643 OA
ENDBRANCH   2  40
TORSDOF 7
ENDMDL
