MODEL 1
REMARK VINA RESULT:      -8.3      0.000      0.000
REMARK  13 active torsions:
REMARK  status: ('A' for Active; 'I' for Inactive)
REMARK    1  A    between atoms: CA_2  and  N_1 
REMARK    2  A    between atoms: P_3  and  CA_2 
REMARK    3  A    between atoms: CA_2  and  CB_6 
REMARK    4  A    between atoms: CM_13  and  P_3 
REMARK    5  A    between atoms: CB_6  and  CG_7 
REMARK    6  A    between atoms: CA_14  and  CM_13 
REMARK    7  A    between atoms: CA_14  and  CB_15 
REMARK    8  A    between atoms: C_22  and  CA_14 
REMARK    9  A    between atoms: CB_15  and  CG_16 
REMARK       I    between atoms: C_22  and  N_24 
REMARK   10  A    between atoms: N_24  and  CA_25 
REMARK   11  A    between atoms: CA_25  and  CB_28 
REMARK   12  A    between atoms: CA_25  and  C_26 
REMARK   13  A    between atoms: CB_28  and  CG_29 
ROOT
ATOM      1  CA  MOL d          36.358  41.856  -3.816  0.00  0.00     0.036 C 
ATOM      2  H14 MOL d          36.603  42.836  -4.250  0.00  0.00     0.056 H 
ENDROOT
BRANCH   1   3
ATOM      3  CM  MOL d          35.360  41.182  -4.777  0.00  0.00     0.021 C 
ATOM      4  H12 MOL d          35.640  40.122  -4.864  0.00  0.00     0.050 H 
ATOM      5  H13 MOL d          34.358  41.261  -4.331  0.00  0.00     0.050 H 
BRANCH   3   6
ATOM      6  P   MOL d          35.279  41.851  -6.402  0.00  0.00     0.138 P 
ATOM      7  O1P MOL d          36.602  42.438  -6.796  0.00  0.00    -0.666 OA
ATOM      8  O2P MOL d          34.279  42.932  -6.515  0.00  0.00    -0.666 OA
BRANCH   6   9
ATOM      9  CA  MOL d          34.752  40.442  -7.233  0.00  0.00     0.177 C 
ATOM     10  H4  MOL d          33.657  40.469  -7.140  0.00  0.00     0.101 H 
BRANCH   9  11
ATOM     11  N   MOL d          35.119  40.525  -8.665  0.00  0.00    -0.065 N 
ATOM     12  H1  MOL d          34.806  39.694  -9.141  0.00  0.00     0.275 HD
ATOM     13  H2  MOL d          36.120  40.604  -8.751  0.00  0.00     0.275 HD
ATOM     14  H3  MOL d          34.682  41.334  -9.078  0.00  0.00     0.275 HD
ENDBRANCH   9  11
BRANCH   9  15
ATOM     15  CB  MOL d          35.147  39.058  -6.927  0.00  0.00    -0.005 C 
ATOM     16  H5  MOL d          35.299  38.972  -5.841  0.00  0.00     0.044 H 
ATOM     17  H6  MOL d          36.091  38.841  -7.448  0.00  0.00     0.044 H 
BRANCH  15  18
ATOM     18  CG  MOL d          34.111  38.025  -7.354  0.00  0.00    -0.056 A 
ATOM     19  CD1 MOL d          32.795  38.181  -6.892  0.00  0.00    -0.077 A 
ATOM     20  CE1 MOL d          31.885  37.201  -7.299  0.00  0.00    -0.082 A 
ATOM     21  H7  MOL d          32.503  39.010  -6.258  0.00  0.00     0.084 H 
ATOM     22  CZ  MOL d          32.237  36.145  -8.128  0.00  0.00    -0.083 A 
ATOM     23  H9  MOL d          30.860  37.269  -6.953  0.00  0.00     0.083 H 
ATOM     24  CE2 MOL d          33.552  36.059  -8.536  0.00  0.00    -0.082 A 
ATOM     25  H11 MOL d          31.504  35.412  -8.443  0.00  0.00     0.083 H 
ATOM     26  CD2 MOL d          34.459  36.946  -8.138  0.00  0.00    -0.077 A 
ATOM     27  H10 MOL d          33.851  35.252  -9.196  0.00  0.00     0.083 H 
ATOM     28  H8  MOL d          35.494  36.818  -8.436  0.00  0.00     0.084 H 
ENDBRANCH  15  18
ENDBRANCH   9  15
ENDBRANCH   6   9
ENDBRANCH   3   6
ENDBRANCH   1   3
BRANCH   1  29
ATOM     29  CB  MOL d          35.671  42.106  -2.462  0.00  0.00    -0.029 C 
ATOM     30  H15 MOL d          35.339  41.134  -2.068  0.00  0.00     0.041 H 
ATOM     31  H16 MOL d          34.795  42.747  -2.642  0.00  0.00     0.041 H 
BRANCH  29  32
ATOM     32  CG  MOL d          36.522  42.770  -1.403  0.00  0.00    -0.057 A 
ATOM     33  CD1 MOL d          37.033  44.045  -1.587  0.00  0.00    -0.077 A 
ATOM     34  CE1 MOL d          37.817  44.651  -0.625  0.00  0.00    -0.082 A 
ATOM     35  H17 MOL d          36.813  44.578  -2.505  0.00  0.00     0.084 H 
ATOM     36  CZ  MOL d          38.084  43.967   0.546  0.00  0.00    -0.083 A 
ATOM     37  H19 MOL d          38.216  45.647  -0.785  0.00  0.00     0.083 H 
ATOM     38  CE2 MOL d          37.582  42.691   0.742  0.00  0.00    -0.082 A 
ATOM     39  H21 MOL d          38.690  44.431   1.315  0.00  0.00     0.083 H 
ATOM     40  CD2 MOL d          36.776  42.106  -0.214  0.00  0.00    -0.077 A 
ATOM     41  H20 MOL d          37.823  42.151   1.650  0.00  0.00     0.083 H 
ATOM     42  H18 MOL d          36.342  41.129  -0.034  0.00  0.00     0.084 H 
ENDBRANCH  29  32
ENDBRANCH   1  29
BRANCH   1  43
ATOM     43  C   MOL d          37.692  41.120  -3.631  0.00  0.00     0.223 C 
ATOM     44  O   MOL d          38.784  41.657  -3.785  0.00  0.00    -0.273 OA
ATOM     45  N   MOL d          37.574  39.865  -3.268  0.00  0.00    -0.346 N 
ATOM     46  H22 MOL d          36.625  39.585  -3.127  0.00  0.00     0.163 HD
BRANCH  45  47
ATOM     47  CA  MOL d          38.522  38.798  -3.028  0.00  0.00     0.100 C 
ATOM     48  H23 MOL d          39.494  39.208  -2.716  0.00  0.00     0.090 H 
BRANCH  47  49
ATOM     49  CB  MOL d          37.963  37.937  -1.931  0.00  0.00    -0.013 C 
ATOM     50  H24 MOL d          37.027  37.524  -2.337  0.00  0.00     0.043 H 
ATOM     51  H25 MOL d          37.731  38.631  -1.110  0.00  0.00     0.043 H 
BRANCH  49  52
ATOM     52  CG  MOL d          38.654  36.782  -1.284  0.00  0.00    -0.056 A 
ATOM     53  CD1 MOL d          39.826  36.946  -0.575  0.00  0.00    -0.077 A 
ATOM     54  CE1 MOL d          40.472  35.894   0.052  0.00  0.00    -0.082 A 
ATOM     55  H26 MOL d          40.259  37.937  -0.507  0.00  0.00     0.084 H 
ATOM     56  CZ  MOL d          39.917  34.630  -0.041  0.00  0.00    -0.083 A 
ATOM     57  H28 MOL d          41.390  36.058   0.603  0.00  0.00     0.083 H 
ATOM     58  CE2 MOL d          38.743  34.441  -0.753  0.00  0.00    -0.082 A 
ATOM     59  H30 MOL d          40.401  33.788   0.442  0.00  0.00     0.083 H 
ATOM     60  CD2 MOL d          38.111  35.505  -1.367  0.00  0.00    -0.077 A 
ATOM     61  H29 MOL d          38.315  33.447  -0.828  0.00  0.00     0.083 H 
ATOM     62  H27 MOL d          37.190  35.344  -1.915  0.00  0.00     0.084 H 
ENDBRANCH  49  52
ENDBRANCH  47  49
BRANCH  47  63
ATOM     63  C   MOL d          38.689  38.027  -4.340  0.00  0.00     0.197 C 
ATOM     64  O   MOL d          37.662  37.727  -4.976  0.00  0.00    -0.646 OA
ATOM     65  OXT MOL d          39.824  37.743  -4.716  0.00  0.00    -0.646 OA
ENDBRANCH  47  63
ENDBRANCH  45  47
ENDBRANCH   1  43
TORSDOF 13
ENDMDL
