MODEL 1
REMARK VINA RESULT:      -8.7      0.000      0.000
REMARK  13 active torsions:
REMARK  status: ('A' for Active; 'I' for Inactive)
REMARK    1  A    between atoms: CA_2  and  N_1 
REMARK    2  A    between atoms: P_3  and  CA_2 
REMARK    3  A    between atoms: CA_2  and  CB_6 
REMARK    4  A    between atoms: CM_13  and  P_3 
REMARK    5  A    between atoms: CB_6  and  CG_7 
REMARK    6  A    between atoms: CA_14  and  CM_13 
REMARK    7  A    between atoms: CA_14  and  CB_15 
REMARK    8  A    between atoms: C_22  and  CA_14 
REMARK    9  A    between atoms: CB_15  and  CG_16 
REMARK       I    between atoms: C_22  and  N_24 
REMARK   10  A    between atoms: N_24  and  CA_25 
REMARK   11  A    between atoms: CA_25  and  CB_28 
REMARK   12  A    between atoms: CA_25  and  C_26 
REMARK   13  A    between atoms: CB_28  and  CG_29 
ROOT
ATOM      1  CA  MOL d          36.269  41.969  -3.577  0.00  0.00     0.036 C 
ATOM      2  H14 MOL d          36.470  42.947  -4.040  0.00  0.00     0.056 H 
ENDROOT
BRANCH   1   3
ATOM      3  CM  MOL d          35.216  41.270  -4.459  0.00  0.00     0.021 C 
ATOM      4  H12 MOL d          35.380  40.184  -4.380  0.00  0.00     0.050 H 
ATOM      5  H13 MOL d          34.222  41.520  -4.058  0.00  0.00     0.050 H 
BRANCH   3   6
ATOM      6  P   MOL d          35.231  41.693  -6.166  0.00  0.00     0.138 P 
ATOM      7  O1P MOL d          36.456  42.493  -6.498  0.00  0.00    -0.666 OA
ATOM      8  O2P MOL d          34.065  42.513  -6.551  0.00  0.00    -0.666 OA
BRANCH   6   9
ATOM      9  CA  MOL d          35.109  40.111  -6.824  0.00  0.00     0.177 C 
ATOM     10  H4  MOL d          35.039  40.274  -7.909  0.00  0.00     0.101 H 
BRANCH   9  11
ATOM     11  N   MOL d          36.336  39.338  -6.528  0.00  0.00    -0.065 N 
ATOM     12  H1  MOL d          37.051  39.960  -6.186  0.00  0.00     0.275 HD
ATOM     13  H2  MOL d          36.658  38.885  -7.368  0.00  0.00     0.275 HD
ATOM     14  H3  MOL d          36.134  38.642  -5.827  0.00  0.00     0.275 HD
ENDBRANCH   9  11
BRANCH   9  15
ATOM     15  CB  MOL d          34.072  39.117  -6.501  0.00  0.00    -0.005 C 
ATOM     16  H5  MOL d          33.541  39.449  -5.597  0.00  0.00     0.044 H 
ATOM     17  H6  MOL d          34.562  38.152  -6.306  0.00  0.00     0.044 H 
BRANCH  15  18
ATOM     18  CG  MOL d          33.052  38.924  -7.618  0.00  0.00    -0.056 A 
ATOM     19  CD1 MOL d          33.074  39.824  -8.694  0.00  0.00    -0.077 A 
ATOM     20  CE1 MOL d          32.111  39.614  -9.685  0.00  0.00    -0.082 A 
ATOM     21  H7  MOL d          33.794  40.631  -8.753  0.00  0.00     0.084 H 
ATOM     22  CZ  MOL d          31.195  38.573  -9.636  0.00  0.00    -0.083 A 
ATOM     23  H9  MOL d          32.078  40.294 -10.528  0.00  0.00     0.083 H 
ATOM     24  CE2 MOL d          31.235  37.733  -8.542  0.00  0.00    -0.082 A 
ATOM     25  H11 MOL d          30.473  38.424 -10.431  0.00  0.00     0.083 H 
ATOM     26  CD2 MOL d          32.107  37.922  -7.557  0.00  0.00    -0.077 A 
ATOM     27  H10 MOL d          30.540  36.902  -8.485  0.00  0.00     0.083 H 
ATOM     28  H8  MOL d          32.076  37.274  -6.688  0.00  0.00     0.084 H 
ENDBRANCH  15  18
ENDBRANCH   9  15
ENDBRANCH   6   9
ENDBRANCH   3   6
ENDBRANCH   1   3
BRANCH   1  29
ATOM     29  CB  MOL d          35.673  42.230  -2.183  0.00  0.00    -0.029 C 
ATOM     30  H15 MOL d          35.413  41.257  -1.740  0.00  0.00     0.041 H 
ATOM     31  H16 MOL d          34.759  42.829  -2.313  0.00  0.00     0.041 H 
BRANCH  29  32
ATOM     32  CG  MOL d          36.570  42.959  -1.207  0.00  0.00    -0.057 A 
ATOM     33  CD1 MOL d          36.958  44.271  -1.430  0.00  0.00    -0.077 A 
ATOM     34  CE1 MOL d          37.783  44.937  -0.546  0.00  0.00    -0.082 A 
ATOM     35  H17 MOL d          36.606  44.785  -2.317  0.00  0.00     0.084 H 
ATOM     36  CZ  MOL d          38.219  44.275   0.587  0.00  0.00    -0.083 A 
ATOM     37  H19 MOL d          38.084  45.961  -0.736  0.00  0.00     0.083 H 
ATOM     38  CE2 MOL d          37.841  42.963   0.821  0.00  0.00    -0.082 A 
ATOM     39  H21 MOL d          38.860  44.786   1.296  0.00  0.00     0.083 H 
ATOM     40  CD2 MOL d          36.992  42.316  -0.055  0.00  0.00    -0.077 A 
ATOM     41  H20 MOL d          38.213  42.443   1.695  0.00  0.00     0.083 H 
ATOM     42  H18 MOL d          36.658  41.307   0.158  0.00  0.00     0.084 H 
ENDBRANCH  29  32
ENDBRANCH   1  29
BRANCH   1  43
ATOM     43  C   MOL d          37.621  41.254  -3.475  0.00  0.00     0.223 C 
ATOM     44  O   MOL d          38.689  41.785  -3.766  0.00  0.00    -0.273 OA
ATOM     45  N   MOL d          37.552  40.023  -3.024  0.00  0.00    -0.346 N 
ATOM     46  H22 MOL d          36.624  39.748  -2.775  0.00  0.00     0.163 HD
BRANCH  45  47
ATOM     47  CA  MOL d          38.531  38.978  -2.810  0.00  0.00     0.100 C 
ATOM     48  H23 MOL d          39.485  39.407  -2.470  0.00  0.00     0.090 H 
BRANCH  47  49
ATOM     49  CB  MOL d          37.985  38.061  -1.752  0.00  0.00    -0.013 C 
ATOM     50  H24 MOL d          37.018  37.712  -2.143  0.00  0.00     0.043 H 
ATOM     51  H25 MOL d          37.815  38.701  -0.875  0.00  0.00     0.043 H 
BRANCH  49  52
ATOM     52  CG  MOL d          38.657  36.838  -1.220  0.00  0.00    -0.056 A 
ATOM     53  CD1 MOL d          38.098  35.585  -1.367  0.00  0.00    -0.077 A 
ATOM     54  CE1 MOL d          38.714  34.435  -0.903  0.00  0.00    -0.082 A 
ATOM     55  H26 MOL d          37.140  35.497  -1.865  0.00  0.00     0.084 H 
ATOM     56  CZ  MOL d          39.936  34.552  -0.265  0.00  0.00    -0.083 A 
ATOM     57  H28 MOL d          38.249  33.465  -1.037  0.00  0.00     0.083 H 
ATOM     58  CE2 MOL d          40.513  35.802  -0.101  0.00  0.00    -0.082 A 
ATOM     59  H30 MOL d          40.442  33.668   0.106  0.00  0.00     0.083 H 
ATOM     60  CD2 MOL d          39.884  36.937  -0.576  0.00  0.00    -0.077 A 
ATOM     61  H29 MOL d          41.468  35.890   0.405  0.00  0.00     0.083 H 
ATOM     62  H27 MOL d          40.350  37.907  -0.447  0.00  0.00     0.084 H 
ENDBRANCH  49  52
ENDBRANCH  47  49
BRANCH  47  63
ATOM     63  C   MOL d          38.738  38.261  -4.146  0.00  0.00     0.197 C 
ATOM     64  O   MOL d          37.814  37.545  -4.574  0.00  0.00    -0.646 OA
ATOM     65  OXT MOL d          39.799  38.424  -4.744  0.00  0.00    -0.646 OA
ENDBRANCH  47  63
ENDBRANCH  45  47
ENDBRANCH   1  43
TORSDOF 13
ENDMDL
MODEL 2
REMARK VINA RESULT:      -7.6      2.638      6.341
REMARK  13 active torsions:
REMARK  status: ('A' for Active; 'I' for Inactive)
REMARK    1  A    between atoms: CA_2  and  N_1 
REMARK    2  A    between atoms: P_3  and  CA_2 
REMARK    3  A    between atoms: CA_2  and  CB_6 
REMARK    4  A    between atoms: CM_13  and  P_3 
REMARK    5  A    between atoms: CB_6  and  CG_7 
REMARK    6  A    between atoms: CA_14  and  CM_13 
REMARK    7  A    between atoms: CA_14  and  CB_15 
REMARK    8  A    between atoms: C_22  and  CA_14 
REMARK    9  A    between atoms: CB_15  and  CG_16 
REMARK       I    between atoms: C_22  and  N_24 
REMARK   10  A    between atoms: N_24  and  CA_25 
REMARK   11  A    between atoms: CA_25  and  CB_28 
REMARK   12  A    between atoms: CA_25  and  C_26 
REMARK   13  A    between atoms: CB_28  and  CG_29 
ROOT
ATOM      1  CA  MOL d          34.943  40.368  -6.728  0.00  0.00     0.036 C 
ATOM      2  H14 MOL d          34.861  39.429  -6.161  0.00  0.00     0.056 H 
ENDROOT
BRANCH   1   3
ATOM      3  CM  MOL d          33.505  40.863  -6.977  0.00  0.00     0.021 C 
ATOM      4  H12 MOL d          32.857  39.978  -7.068  0.00  0.00     0.050 H 
ATOM      5  H13 MOL d          33.197  41.454  -6.102  0.00  0.00     0.050 H 
BRANCH   3   6
ATOM      6  P   MOL d          33.266  41.856  -8.409  0.00  0.00     0.138 P 
ATOM      7  O1P MOL d          34.583  42.199  -9.037  0.00  0.00    -0.666 OA
ATOM      8  O2P MOL d          32.591  43.133  -8.100  0.00  0.00    -0.666 OA
BRANCH   6   9
ATOM      9  CA  MOL d          32.218  40.806  -9.276  0.00  0.00     0.177 C 
ATOM     10  H4  MOL d          31.564  40.378  -8.502  0.00  0.00     0.101 H 
BRANCH   9  11
ATOM     11  N   MOL d          31.395  41.580 -10.233  0.00  0.00    -0.065 N 
ATOM     12  H1  MOL d          30.740  40.964 -10.688  0.00  0.00     0.275 HD
ATOM     13  H2  MOL d          31.994  42.003 -10.924  0.00  0.00     0.275 HD
ATOM     14  H3  MOL d          30.892  42.299  -9.738  0.00  0.00     0.275 HD
ENDBRANCH   9  11
BRANCH   9  15
ATOM     15  CB  MOL d          32.632  39.674 -10.120  0.00  0.00    -0.005 C 
ATOM     16  H5  MOL d          33.724  39.712 -10.243  0.00  0.00     0.044 H 
ATOM     17  H6  MOL d          32.149  39.776 -11.103  0.00  0.00     0.044 H 
BRANCH  15  18
ATOM     18  CG  MOL d          32.257  38.316  -9.537  0.00  0.00    -0.056 A 
ATOM     19  CD1 MOL d          31.829  38.267  -8.202  0.00  0.00    -0.077 A 
ATOM     20  CE1 MOL d          31.510  36.999  -7.709  0.00  0.00    -0.082 A 
ATOM     21  H7  MOL d          31.749  39.159  -7.591  0.00  0.00     0.084 H 
ATOM     22  CZ  MOL d          31.585  35.850  -8.483  0.00  0.00    -0.083 A 
ATOM     23  H9  MOL d          31.190  36.909  -6.677  0.00  0.00     0.083 H 
ATOM     24  CE2 MOL d          32.020  35.980  -9.786  0.00  0.00    -0.082 A 
ATOM     25  H11 MOL d          31.312  34.883  -8.077  0.00  0.00     0.083 H 
ATOM     26  CD2 MOL d          32.373  37.162 -10.282  0.00  0.00    -0.077 A 
ATOM     27  H10 MOL d          32.075  35.100 -10.418  0.00  0.00     0.083 H 
ATOM     28  H8  MOL d          32.760  37.219 -11.294  0.00  0.00     0.084 H 
ENDBRANCH  15  18
ENDBRANCH   9  15
ENDBRANCH   6   9
ENDBRANCH   3   6
ENDBRANCH   1   3
BRANCH   1  29
ATOM     29  CB  MOL d          35.609  40.039  -8.076  0.00  0.00    -0.029 C 
ATOM     30  H15 MOL d          36.646  40.404  -8.037  0.00  0.00     0.041 H 
ATOM     31  H16 MOL d          35.059  40.577  -8.863  0.00  0.00     0.041 H 
BRANCH  29  32
ATOM     32  CG  MOL d          35.646  38.575  -8.454  0.00  0.00    -0.057 A 
ATOM     33  CD1 MOL d          35.341  37.587  -7.530  0.00  0.00    -0.077 A 
ATOM     34  CE1 MOL d          35.382  36.249  -7.870  0.00  0.00    -0.082 A 
ATOM     35  H17 MOL d          35.066  37.871  -6.521  0.00  0.00     0.084 H 
ATOM     36  CZ  MOL d          35.726  35.899  -9.162  0.00  0.00    -0.083 A 
ATOM     37  H19 MOL d          35.148  35.487  -7.136  0.00  0.00     0.083 H 
ATOM     38  CE2 MOL d          36.035  36.876 -10.094  0.00  0.00    -0.082 A 
ATOM     39  H21 MOL d          35.754  34.854  -9.448  0.00  0.00     0.083 H 
ATOM     40  CD2 MOL d          35.964  38.212  -9.752  0.00  0.00    -0.077 A 
ATOM     41  H20 MOL d          36.334  36.590 -11.095  0.00  0.00     0.083 H 
ATOM     42  H18 MOL d          36.156  38.974 -10.498  0.00  0.00     0.084 H 
ENDBRANCH  29  32
ENDBRANCH   1  29
BRANCH   1  43
ATOM     43  C   MOL d          35.824  41.302  -5.890  0.00  0.00     0.223 C 
ATOM     44  O   MOL d          35.892  42.514  -6.078  0.00  0.00    -0.273 OA
ATOM     45  N   MOL d          36.490  40.705  -4.929  0.00  0.00    -0.346 N 
ATOM     46  H22 MOL d          36.290  39.728  -4.862  0.00  0.00     0.163 HD
BRANCH  45  47
ATOM     47  CA  MOL d          37.451  41.157  -3.945  0.00  0.00     0.100 C 
ATOM     48  H23 MOL d          38.009  42.027  -4.322  0.00  0.00     0.090 H 
BRANCH  47  49
ATOM     49  CB  MOL d          36.684  41.547  -2.713  0.00  0.00    -0.013 C 
ATOM     50  H24 MOL d          36.552  40.612  -2.148  0.00  0.00     0.043 H 
ATOM     51  H25 MOL d          35.707  41.894  -3.079  0.00  0.00     0.043 H 
BRANCH  49  52
ATOM     52  CG  MOL d          37.106  42.560  -1.702  0.00  0.00    -0.056 A 
ATOM     53  CD1 MOL d          37.345  42.214  -0.387  0.00  0.00    -0.077 A 
ATOM     54  CE1 MOL d          37.760  43.131   0.562  0.00  0.00    -0.082 A 
ATOM     55  H26 MOL d          37.202  41.182  -0.087  0.00  0.00     0.084 H 
ATOM     56  CZ  MOL d          37.938  44.448   0.175  0.00  0.00    -0.083 A 
ATOM     57  H28 MOL d          37.942  42.825   1.586  0.00  0.00     0.083 H 
ATOM     58  CE2 MOL d          37.699  44.820  -1.139  0.00  0.00    -0.082 A 
ATOM     59  H30 MOL d          38.265  45.187   0.897  0.00  0.00     0.083 H 
ATOM     60  CD2 MOL d          37.290  43.887  -2.073  0.00  0.00    -0.077 A 
ATOM     61  H29 MOL d          37.833  45.853  -1.437  0.00  0.00     0.083 H 
ATOM     62  H27 MOL d          37.113  44.191  -3.098  0.00  0.00     0.084 H 
ENDBRANCH  49  52
ENDBRANCH  47  49
BRANCH  47  63
ATOM     63  C   MOL d          38.419  40.001  -3.683  0.00  0.00     0.197 C 
ATOM     64  O   MOL d          37.940  38.863  -3.525  0.00  0.00    -0.646 OA
ATOM     65  OXT MOL d          39.624  40.238  -3.646  0.00  0.00    -0.646 OA
ENDBRANCH  47  63
ENDBRANCH  45  47
ENDBRANCH   1  43
TORSDOF 13
ENDMDL
MODEL 3
REMARK VINA RESULT:      -7.6      1.352      1.955
REMARK  13 active torsions:
REMARK  status: ('A' for Active; 'I' for Inactive)
REMARK    1  A    between atoms: CA_2  and  N_1 
REMARK    2  A    between atoms: P_3  and  CA_2 
REMARK    3  A    between atoms: CA_2  and  CB_6 
REMARK    4  A    between atoms: CM_13  and  P_3 
REMARK    5  A    between atoms: CB_6  and  CG_7 
REMARK    6  A    between atoms: CA_14  and  CM_13 
REMARK    7  A    between atoms: CA_14  and  CB_15 
REMARK    8  A    between atoms: C_22  and  CA_14 
REMARK    9  A    between atoms: CB_15  and  CG_16 
REMARK       I    between atoms: C_22  and  N_24 
REMARK   10  A    between atoms: N_24  and  CA_25 
REMARK   11  A    between atoms: CA_25  and  CB_28 
REMARK   12  A    between atoms: CA_25  and  C_26 
REMARK   13  A    between atoms: CB_28  and  CG_29 
ROOT
ATOM      1  CA  MOL d          36.562  41.725  -2.601  0.00  0.00     0.036 C 
ATOM      2  H14 MOL d          37.324  42.366  -3.069  0.00  0.00     0.056 H 
ENDROOT
BRANCH   1   3
ATOM      3  CM  MOL d          35.508  41.427  -3.685  0.00  0.00     0.021 C 
ATOM      4  H12 MOL d          35.005  40.487  -3.415  0.00  0.00     0.050 H 
ATOM      5  H13 MOL d          34.777  42.249  -3.678  0.00  0.00     0.050 H 
BRANCH   3   6
ATOM      6  P   MOL d          36.114  41.261  -5.329  0.00  0.00     0.138 P 
ATOM      7  O1P MOL d          36.959  40.029  -5.455  0.00  0.00    -0.666 OA
ATOM      8  O2P MOL d          36.957  42.404  -5.734  0.00  0.00    -0.666 OA
BRANCH   6   9
ATOM      9  CA  MOL d          34.610  41.287  -6.160  0.00  0.00     0.177 C 
ATOM     10  H4  MOL d          33.962  40.628  -5.563  0.00  0.00     0.101 H 
BRANCH   9  11
ATOM     11  N   MOL d          34.047  42.655  -6.155  0.00  0.00    -0.065 N 
ATOM     12  H1  MOL d          34.755  43.311  -6.446  0.00  0.00     0.275 HD
ATOM     13  H2  MOL d          33.735  42.887  -5.225  0.00  0.00     0.275 HD
ATOM     14  H3  MOL d          33.267  42.700  -6.792  0.00  0.00     0.275 HD
ENDBRANCH   9  11
BRANCH   9  15
ATOM     15  CB  MOL d          34.390  40.901  -7.563  0.00  0.00    -0.005 C 
ATOM     16  H5  MOL d          35.358  40.619  -8.003  0.00  0.00     0.044 H 
ATOM     17  H6  MOL d          33.981  41.768  -8.102  0.00  0.00     0.044 H 
BRANCH  15  18
ATOM     18  CG  MOL d          33.425  39.732  -7.724  0.00  0.00    -0.056 A 
ATOM     19  CD1 MOL d          33.378  38.770  -6.704  0.00  0.00    -0.077 A 
ATOM     20  CE1 MOL d          32.489  37.710  -6.904  0.00  0.00    -0.082 A 
ATOM     21  H7  MOL d          33.994  38.845  -5.815  0.00  0.00     0.084 H 
ATOM     22  CZ  MOL d          31.678  37.610  -8.026  0.00  0.00    -0.083 A 
ATOM     23  H9  MOL d          32.431  36.933  -6.151  0.00  0.00     0.083 H 
ATOM     24  CE2 MOL d          31.786  38.594  -8.987  0.00  0.00    -0.082 A 
ATOM     25  H11 MOL d          30.984  36.786  -8.143  0.00  0.00     0.083 H 
ATOM     26  CD2 MOL d          32.649  39.597  -8.856  0.00  0.00    -0.077 A 
ATOM     27  H10 MOL d          31.153  38.548  -9.866  0.00  0.00     0.083 H 
ATOM     28  H8  MOL d          32.744  40.324  -9.655  0.00  0.00     0.084 H 
ENDBRANCH  15  18
ENDBRANCH   9  15
ENDBRANCH   6   9
ENDBRANCH   3   6
ENDBRANCH   1   3
BRANCH   1  29
ATOM     29  CB  MOL d          35.910  42.532  -1.465  0.00  0.00    -0.029 C 
ATOM     30  H15 MOL d          35.524  41.818  -0.723  0.00  0.00     0.041 H 
ATOM     31  H16 MOL d          35.073  43.103  -1.895  0.00  0.00     0.041 H 
BRANCH  29  32
ATOM     32  CG  MOL d          36.815  43.507  -0.744  0.00  0.00    -0.057 A 
ATOM     33  CD1 MOL d          37.583  43.106   0.338  0.00  0.00    -0.077 A 
ATOM     34  CE1 MOL d          38.404  43.995   1.004  0.00  0.00    -0.082 A 
ATOM     35  H17 MOL d          37.537  42.075   0.670  0.00  0.00     0.084 H 
ATOM     36  CZ  MOL d          38.462  45.305   0.569  0.00  0.00    -0.083 A 
ATOM     37  H19 MOL d          38.994  43.670   1.854  0.00  0.00     0.083 H 
ATOM     38  CE2 MOL d          37.698  45.718  -0.511  0.00  0.00    -0.082 A 
ATOM     39  H21 MOL d          39.108  46.013   1.074  0.00  0.00     0.083 H 
ATOM     40  CD2 MOL d          36.902  44.816  -1.187  0.00  0.00    -0.077 A 
ATOM     41  H20 MOL d          37.726  46.755  -0.825  0.00  0.00     0.083 H 
ATOM     42  H18 MOL d          36.346  45.132  -2.062  0.00  0.00     0.084 H 
ENDBRANCH  29  32
ENDBRANCH   1  29
BRANCH   1  43
ATOM     43  C   MOL d          37.305  40.500  -2.053  0.00  0.00     0.223 C 
ATOM     44  O   MOL d          37.064  40.001  -0.958  0.00  0.00    -0.273 OA
ATOM     45  N   MOL d          38.212  40.007  -2.863  0.00  0.00    -0.346 N 
ATOM     46  H22 MOL d          38.255  40.484  -3.740  0.00  0.00     0.163 HD
BRANCH  45  47
ATOM     47  CA  MOL d          39.163  38.921  -2.760  0.00  0.00     0.100 C 
ATOM     48  H23 MOL d          39.851  39.089  -1.918  0.00  0.00     0.090 H 
BRANCH  47  49
ATOM     49  CB  MOL d          38.381  37.659  -2.527  0.00  0.00    -0.013 C 
ATOM     50  H24 MOL d          38.327  37.168  -3.510  0.00  0.00     0.043 H 
ATOM     51  H25 MOL d          37.377  37.992  -2.228  0.00  0.00     0.043 H 
BRANCH  49  52
ATOM     52  CG  MOL d          38.735  36.573  -1.565  0.00  0.00    -0.056 A 
ATOM     53  CD1 MOL d          38.052  35.374  -1.545  0.00  0.00    -0.077 A 
ATOM     54  CE1 MOL d          38.377  34.345  -0.679  0.00  0.00    -0.082 A 
ATOM     55  H26 MOL d          37.228  35.233  -2.235  0.00  0.00     0.084 H 
ATOM     56  CZ  MOL d          39.428  34.531   0.202  0.00  0.00    -0.083 A 
ATOM     57  H28 MOL d          37.822  33.414  -0.691  0.00  0.00     0.083 H 
ATOM     58  CE2 MOL d          40.125  35.729   0.203  0.00  0.00    -0.082 A 
ATOM     59  H30 MOL d          39.706  33.740   0.890  0.00  0.00     0.083 H 
ATOM     60  CD2 MOL d          39.788  36.742  -0.674  0.00  0.00    -0.077 A 
ATOM     61  H29 MOL d          40.944  35.872   0.899  0.00  0.00     0.083 H 
ATOM     62  H27 MOL d          40.346  37.671  -0.666  0.00  0.00     0.084 H 
ENDBRANCH  49  52
ENDBRANCH  47  49
BRANCH  47  63
ATOM     63  C   MOL d          39.956  38.877  -4.068  0.00  0.00     0.197 C 
ATOM     64  O   MOL d          41.030  39.505  -4.121  0.00  0.00    -0.646 OA
ATOM     65  OXT MOL d          39.509  38.222  -5.006  0.00  0.00    -0.646 OA
ENDBRANCH  47  63
ENDBRANCH  45  47
ENDBRANCH   1  43
TORSDOF 13
ENDMDL
MODEL 4
REMARK VINA RESULT:      -7.6      1.445      8.155
REMARK  13 active torsions:
REMARK  status: ('A' for Active; 'I' for Inactive)
REMARK    1  A    between atoms: CA_2  and  N_1 
REMARK    2  A    between atoms: P_3  and  CA_2 
REMARK    3  A    between atoms: CA_2  and  CB_6 
REMARK    4  A    between atoms: CM_13  and  P_3 
REMARK    5  A    between atoms: CB_6  and  CG_7 
REMARK    6  A    between atoms: CA_14  and  CM_13 
REMARK    7  A    between atoms: CA_14  and  CB_15 
REMARK    8  A    between atoms: C_22  and  CA_14 
REMARK    9  A    between atoms: CB_15  and  CG_16 
REMARK       I    between atoms: C_22  and  N_24 
REMARK   10  A    between atoms: N_24  and  CA_25 
REMARK   11  A    between atoms: CA_25  and  CB_28 
REMARK   12  A    between atoms: CA_25  and  C_26 
REMARK   13  A    between atoms: CB_28  and  CG_29 
ROOT
ATOM      1  CA  MOL d          38.223  39.206  -4.690  0.00  0.00     0.036 C 
ATOM      2  H14 MOL d          38.782  40.054  -5.113  0.00  0.00     0.056 H 
ENDROOT
BRANCH   1   3
ATOM      3  CM  MOL d          37.737  39.648  -3.296  0.00  0.00     0.021 C 
ATOM      4  H12 MOL d          36.775  39.150  -3.102  0.00  0.00     0.050 H 
ATOM      5  H13 MOL d          38.480  39.310  -2.559  0.00  0.00     0.050 H 
BRANCH   3   6
ATOM      6  P   MOL d          37.503  41.377  -3.070  0.00  0.00     0.138 P 
ATOM      7  O1P MOL d          37.275  42.053  -4.389  0.00  0.00    -0.666 OA
ATOM      8  O2P MOL d          38.675  42.026  -2.451  0.00  0.00    -0.666 OA
BRANCH   6   9
ATOM      9  CA  MOL d          36.186  41.315  -1.968  0.00  0.00     0.177 C 
ATOM     10  H4  MOL d          35.370  40.859  -2.548  0.00  0.00     0.101 H 
BRANCH   9  11
ATOM     11  N   MOL d          36.518  40.436  -0.824  0.00  0.00    -0.065 N 
ATOM     12  H1  MOL d          35.951  39.603  -0.865  0.00  0.00     0.275 HD
ATOM     13  H2  MOL d          36.335  40.924   0.039  0.00  0.00     0.275 HD
ATOM     14  H3  MOL d          37.492  40.182  -0.867  0.00  0.00     0.275 HD
ENDBRANCH   9  11
BRANCH   9  15
ATOM     15  CB  MOL d          35.587  42.463  -1.269  0.00  0.00    -0.005 C 
ATOM     16  H5  MOL d          34.938  42.084  -0.467  0.00  0.00     0.044 H 
ATOM     17  H6  MOL d          34.984  43.034  -1.990  0.00  0.00     0.044 H 
BRANCH  15  18
ATOM     18  CG  MOL d          36.620  43.402  -0.653  0.00  0.00    -0.056 A 
ATOM     19  CD1 MOL d          36.775  44.675  -1.221  0.00  0.00    -0.077 A 
ATOM     20  CE1 MOL d          37.743  45.493  -0.631  0.00  0.00    -0.082 A 
ATOM     21  H7  MOL d          36.181  45.004  -2.066  0.00  0.00     0.084 H 
ATOM     22  CZ  MOL d          38.497  45.096   0.464  0.00  0.00    -0.083 A 
ATOM     23  H9  MOL d          37.911  46.480  -1.046  0.00  0.00     0.083 H 
ATOM     24  CE2 MOL d          38.288  43.827   0.963  0.00  0.00    -0.082 A 
ATOM     25  H11 MOL d          39.226  45.761   0.913  0.00  0.00     0.083 H 
ATOM     26  CD2 MOL d          37.407  43.001   0.405  0.00  0.00    -0.077 A 
ATOM     27  H10 MOL d          38.853  43.496   1.827  0.00  0.00     0.083 H 
ATOM     28  H8  MOL d          37.306  41.992   0.790  0.00  0.00     0.084 H 
ENDBRANCH  15  18
ENDBRANCH   9  15
ENDBRANCH   6   9
ENDBRANCH   3   6
ENDBRANCH   1   3
BRANCH   1  29
ATOM     29  CB  MOL d          39.204  38.031  -4.538  0.00  0.00    -0.029 C 
ATOM     30  H15 MOL d          40.226  38.434  -4.608  0.00  0.00     0.041 H 
ATOM     31  H16 MOL d          39.027  37.334  -5.370  0.00  0.00     0.041 H 
BRANCH  29  32
ATOM     32  CG  MOL d          39.103  37.249  -3.248  0.00  0.00    -0.057 A 
ATOM     33  CD1 MOL d          39.917  37.542  -2.164  0.00  0.00    -0.077 A 
ATOM     34  CE1 MOL d          39.832  36.825  -0.987  0.00  0.00    -0.082 A 
ATOM     35  H17 MOL d          40.634  38.350  -2.243  0.00  0.00     0.084 H 
ATOM     36  CZ  MOL d          38.907  35.802  -0.894  0.00  0.00    -0.083 A 
ATOM     37  H19 MOL d          40.479  37.060  -0.150  0.00  0.00     0.083 H 
ATOM     38  CE2 MOL d          38.089  35.498  -1.970  0.00  0.00    -0.082 A 
ATOM     39  H21 MOL d          38.821  35.235   0.025  0.00  0.00     0.083 H 
ATOM     40  CD2 MOL d          38.162  36.239  -3.132  0.00  0.00    -0.077 A 
ATOM     41  H20 MOL d          37.389  34.673  -1.898  0.00  0.00     0.083 H 
ATOM     42  H18 MOL d          37.485  36.031  -3.952  0.00  0.00     0.084 H 
ENDBRANCH  29  32
ENDBRANCH   1  29
BRANCH   1  43
ATOM     43  C   MOL d          37.115  38.874  -5.697  0.00  0.00     0.223 C 
ATOM     44  O   MOL d          36.885  37.735  -6.095  0.00  0.00    -0.273 OA
ATOM     45  N   MOL d          36.408  39.907  -6.088  0.00  0.00    -0.346 N 
ATOM     46  H22 MOL d          36.674  40.758  -5.636  0.00  0.00     0.163 HD
BRANCH  45  47
ATOM     47  CA  MOL d          35.324  40.081  -7.033  0.00  0.00     0.100 C 
ATOM     48  H23 MOL d          35.626  39.739  -8.033  0.00  0.00     0.090 H 
BRANCH  47  49
ATOM     49  CB  MOL d          34.167  39.255  -6.546  0.00  0.00    -0.013 C 
ATOM     50  H24 MOL d          33.663  39.880  -5.793  0.00  0.00     0.043 H 
ATOM     51  H25 MOL d          34.621  38.383  -6.054  0.00  0.00     0.043 H 
BRANCH  49  52
ATOM     52  CG  MOL d          33.069  38.700  -7.393  0.00  0.00    -0.056 A 
ATOM     53  CD1 MOL d          32.778  39.226  -8.635  0.00  0.00    -0.077 A 
ATOM     54  CE1 MOL d          31.781  38.713  -9.447  0.00  0.00    -0.082 A 
ATOM     55  H26 MOL d          33.352  40.074  -8.988  0.00  0.00     0.084 H 
ATOM     56  CZ  MOL d          31.049  37.632  -8.990  0.00  0.00    -0.083 A 
ATOM     57  H28 MOL d          31.580  39.148 -10.419  0.00  0.00     0.083 H 
ATOM     58  CE2 MOL d          31.320  37.091  -7.743  0.00  0.00    -0.082 A 
ATOM     59  H30 MOL d          30.263  37.208  -9.606  0.00  0.00     0.083 H 
ATOM     60  CD2 MOL d          32.323  37.615  -6.950  0.00  0.00    -0.077 A 
ATOM     61  H29 MOL d          30.739  36.248  -7.386  0.00  0.00     0.083 H 
ATOM     62  H27 MOL d          32.529  37.177  -5.979  0.00  0.00     0.084 H 
ENDBRANCH  49  52
ENDBRANCH  47  49
BRANCH  47  63
ATOM     63  C   MOL d          34.990  41.574  -7.081  0.00  0.00     0.197 C 
ATOM     64  O   MOL d          33.904  41.945  -6.599  0.00  0.00    -0.646 OA
ATOM     65  OXT MOL d          35.805  42.345  -7.582  0.00  0.00    -0.646 OA
ENDBRANCH  47  63
ENDBRANCH  45  47
ENDBRANCH   1  43
TORSDOF 13
ENDMDL
MODEL 5
REMARK VINA RESULT:      -7.6      2.114      8.075
REMARK  13 active torsions:
REMARK  status: ('A' for Active; 'I' for Inactive)
REMARK    1  A    between atoms: CA_2  and  N_1 
REMARK    2  A    between atoms: P_3  and  CA_2 
REMARK    3  A    between atoms: CA_2  and  CB_6 
REMARK    4  A    between atoms: CM_13  and  P_3 
REMARK    5  A    between atoms: CB_6  and  CG_7 
REMARK    6  A    between atoms: CA_14  and  CM_13 
REMARK    7  A    between atoms: CA_14  and  CB_15 
REMARK    8  A    between atoms: C_22  and  CA_14 
REMARK    9  A    between atoms: CB_15  and  CG_16 
REMARK       I    between atoms: C_22  and  N_24 
REMARK   10  A    between atoms: N_24  and  CA_25 
REMARK   11  A    between atoms: CA_25  and  CB_28 
REMARK   12  A    between atoms: CA_25  and  C_26 
REMARK   13  A    between atoms: CB_28  and  CG_29 
ROOT
ATOM      1  CA  MOL d          37.581  39.256  -4.868  0.00  0.00     0.036 C 
ATOM      2  H14 MOL d          38.503  39.658  -5.313  0.00  0.00     0.056 H 
ENDROOT
BRANCH   1   3
ATOM      3  CM  MOL d          36.581  40.425  -4.786  0.00  0.00     0.021 C 
ATOM      4  H12 MOL d          36.138  40.559  -5.784  0.00  0.00     0.050 H 
ATOM      5  H13 MOL d          35.794  40.145  -4.070  0.00  0.00     0.050 H 
BRANCH   3   6
ATOM      6  P   MOL d          37.242  41.975  -4.279  0.00  0.00     0.138 P 
ATOM      7  O1P MOL d          37.277  42.934  -5.431  0.00  0.00    -0.666 OA
ATOM      8  O2P MOL d          38.625  41.857  -3.776  0.00  0.00    -0.666 OA
BRANCH   6   9
ATOM      9  CA  MOL d          36.152  42.310  -2.994  0.00  0.00     0.177 C 
ATOM     10  H4  MOL d          35.999  43.398  -3.047  0.00  0.00     0.101 H 
BRANCH   9  11
ATOM     11  N   MOL d          34.860  41.626  -3.228  0.00  0.00    -0.065 N 
ATOM     12  H1  MOL d          34.579  41.757  -4.187  0.00  0.00     0.275 HD
ATOM     13  H2  MOL d          34.158  42.016  -2.617  0.00  0.00     0.275 HD
ATOM     14  H3  MOL d          34.961  40.642  -3.039  0.00  0.00     0.275 HD
ENDBRANCH   9  11
BRANCH   9  15
ATOM     15  CB  MOL d          36.371  42.006  -1.571  0.00  0.00    -0.005 C 
ATOM     16  H5  MOL d          36.999  41.105  -1.500  0.00  0.00     0.044 H 
ATOM     17  H6  MOL d          35.396  41.811  -1.101  0.00  0.00     0.044 H 
BRANCH  15  18
ATOM     18  CG  MOL d          37.057  43.135  -0.810  0.00  0.00    -0.056 A 
ATOM     19  CD1 MOL d          36.923  44.440  -1.306  0.00  0.00    -0.077 A 
ATOM     20  CE1 MOL d          37.582  45.439  -0.583  0.00  0.00    -0.082 A 
ATOM     21  H7  MOL d          36.345  44.661  -2.196  0.00  0.00     0.084 H 
ATOM     22  CZ  MOL d          38.309  45.179   0.570  0.00  0.00    -0.083 A 
ATOM     23  H9  MOL d          37.521  46.462  -0.937  0.00  0.00     0.083 H 
ATOM     24  CE2 MOL d          38.397  43.868   0.991  0.00  0.00    -0.082 A 
ATOM     25  H11 MOL d          38.791  45.977   1.121  0.00  0.00     0.083 H 
ATOM     26  CD2 MOL d          37.821  42.882   0.309  0.00  0.00    -0.077 A 
ATOM     27  H10 MOL d          38.946  43.637   1.897  0.00  0.00     0.083 H 
ATOM     28  H8  MOL d          37.954  41.858   0.641  0.00  0.00     0.084 H 
ENDBRANCH  15  18
ENDBRANCH   9  15
ENDBRANCH   6   9
ENDBRANCH   3   6
ENDBRANCH   1   3
BRANCH   1  29
ATOM     29  CB  MOL d          37.923  38.778  -3.446  0.00  0.00    -0.029 C 
ATOM     30  H15 MOL d          37.227  37.966  -3.187  0.00  0.00     0.041 H 
ATOM     31  H16 MOL d          37.770  39.624  -2.760  0.00  0.00     0.041 H 
BRANCH  29  32
ATOM     32  CG  MOL d          39.331  38.264  -3.243  0.00  0.00    -0.057 A 
ATOM     33  CD1 MOL d          39.604  37.262  -2.325  0.00  0.00    -0.077 A 
ATOM     34  CE1 MOL d          40.890  36.796  -2.132  0.00  0.00    -0.082 A 
ATOM     35  H17 MOL d          38.793  36.835  -1.747  0.00  0.00     0.084 H 
ATOM     36  CZ  MOL d          41.917  37.340  -2.880  0.00  0.00    -0.083 A 
ATOM     37  H19 MOL d          41.090  36.016  -1.406  0.00  0.00     0.083 H 
ATOM     38  CE2 MOL d          41.657  38.344  -3.799  0.00  0.00    -0.082 A 
ATOM     39  H21 MOL d          42.930  36.980  -2.747  0.00  0.00     0.083 H 
ATOM     40  CD2 MOL d          40.365  38.783  -4.005  0.00  0.00    -0.077 A 
ATOM     41  H20 MOL d          42.474  38.786  -4.358  0.00  0.00     0.083 H 
ATOM     42  H18 MOL d          40.160  39.531  -4.762  0.00  0.00     0.084 H 
ENDBRANCH  29  32
ENDBRANCH   1  29
BRANCH   1  43
ATOM     43  C   MOL d          37.149  38.082  -5.756  0.00  0.00     0.223 C 
ATOM     44  O   MOL d          37.558  36.935  -5.603  0.00  0.00    -0.273 OA
ATOM     45  N   MOL d          36.282  38.397  -6.688  0.00  0.00    -0.346 N 
ATOM     46  H22 MOL d          35.999  39.356  -6.654  0.00  0.00     0.163 HD
BRANCH  45  47
ATOM     47  CA  MOL d          35.644  37.656  -7.756  0.00  0.00     0.100 C 
ATOM     48  H23 MOL d          35.425  36.627  -7.435  0.00  0.00     0.090 H 
BRANCH  47  49
ATOM     49  CB  MOL d          34.361  38.363  -8.091  0.00  0.00    -0.013 C 
ATOM     50  H24 MOL d          33.663  38.090  -7.286  0.00  0.00     0.043 H 
ATOM     51  H25 MOL d          34.023  37.915  -9.036  0.00  0.00     0.043 H 
BRANCH  49  52
ATOM     52  CG  MOL d          34.194  39.835  -8.274  0.00  0.00    -0.056 A 
ATOM     53  CD1 MOL d          34.409  40.721  -7.238  0.00  0.00    -0.077 A 
ATOM     54  CE1 MOL d          34.283  42.091  -7.390  0.00  0.00    -0.082 A 
ATOM     55  H26 MOL d          34.687  40.329  -6.267  0.00  0.00     0.084 H 
ATOM     56  CZ  MOL d          33.924  42.587  -8.631  0.00  0.00    -0.083 A 
ATOM     57  H28 MOL d          34.462  42.760  -6.556  0.00  0.00     0.083 H 
ATOM     58  CE2 MOL d          33.697  41.716  -9.685  0.00  0.00    -0.082 A 
ATOM     59  H30 MOL d          33.820  43.657  -8.779  0.00  0.00     0.083 H 
ATOM     60  CD2 MOL d          33.834  40.351  -9.513  0.00  0.00    -0.077 A 
ATOM     61  H29 MOL d          33.410  42.108 -10.653  0.00  0.00     0.083 H 
ATOM     62  H27 MOL d          33.659  39.682 -10.347  0.00  0.00     0.084 H 
ENDBRANCH  49  52
ENDBRANCH  47  49
BRANCH  47  63
ATOM     63  C   MOL d          36.615  37.627  -8.940  0.00  0.00     0.197 C 
ATOM     64  O   MOL d          37.580  36.843  -8.884  0.00  0.00    -0.646 OA
ATOM     65  OXT MOL d          36.400  38.368  -9.896  0.00  0.00    -0.646 OA
ENDBRANCH  47  63
ENDBRANCH  45  47
ENDBRANCH   1  43
TORSDOF 13
ENDMDL
MODEL 6
REMARK VINA RESULT:      -7.5      2.193      7.688
REMARK  13 active torsions:
REMARK  status: ('A' for Active; 'I' for Inactive)
REMARK    1  A    between atoms: CA_2  and  N_1 
REMARK    2  A    between atoms: P_3  and  CA_2 
REMARK    3  A    between atoms: CA_2  and  CB_6 
REMARK    4  A    between atoms: CM_13  and  P_3 
REMARK    5  A    between atoms: CB_6  and  CG_7 
REMARK    6  A    between atoms: CA_14  and  CM_13 
REMARK    7  A    between atoms: CA_14  and  CB_15 
REMARK    8  A    between atoms: C_22  and  CA_14 
REMARK    9  A    between atoms: CB_15  and  CG_16 
REMARK       I    between atoms: C_22  and  N_24 
REMARK   10  A    between atoms: N_24  and  CA_25 
REMARK   11  A    between atoms: CA_25  and  CB_28 
REMARK   12  A    between atoms: CA_25  and  C_26 
REMARK   13  A    between atoms: CB_28  and  CG_29 
ROOT
ATOM      1  CA  MOL d          37.386  40.924  -3.608  0.00  0.00     0.036 C 
ATOM      2  H14 MOL d          36.992  40.338  -2.765  0.00  0.00     0.056 H 
ENDROOT
BRANCH   1   3
ATOM      3  CM  MOL d          38.631  40.177  -4.124  0.00  0.00     0.021 C 
ATOM      4  H12 MOL d          38.383  39.748  -5.106  0.00  0.00     0.050 H 
ATOM      5  H13 MOL d          39.440  40.913  -4.240  0.00  0.00     0.050 H 
BRANCH   3   6
ATOM      6  P   MOL d          39.230  38.875  -3.103  0.00  0.00     0.138 P 
ATOM      7  O1P MOL d          38.514  38.868  -1.786  0.00  0.00    -0.666 OA
ATOM      8  O2P MOL d          40.671  39.009  -2.810  0.00  0.00    -0.666 OA
BRANCH   6   9
ATOM      9  CA  MOL d          38.945  37.560  -4.173  0.00  0.00     0.177 C 
ATOM     10  H4  MOL d          37.849  37.467  -4.198  0.00  0.00     0.101 H 
BRANCH   9  11
ATOM     11  N   MOL d          39.435  37.890  -5.530  0.00  0.00    -0.065 N 
ATOM     12  H1  MOL d          39.292  38.871  -5.710  0.00  0.00     0.275 HD
ATOM     13  H2  MOL d          38.929  37.346  -6.211  0.00  0.00     0.275 HD
ATOM     14  H3  MOL d          40.418  37.677  -5.593  0.00  0.00     0.275 HD
ENDBRANCH   9  11
BRANCH   9  15
ATOM     15  CB  MOL d          39.460  36.191  -4.017  0.00  0.00    -0.005 C 
ATOM     16  H5  MOL d          40.499  36.166  -4.377  0.00  0.00     0.044 H 
ATOM     17  H6  MOL d          38.844  35.515  -4.628  0.00  0.00     0.044 H 
BRANCH  15  18
ATOM     18  CG  MOL d          39.435  35.696  -2.575  0.00  0.00    -0.056 A 
ATOM     19  CD1 MOL d          40.651  35.634  -1.879  0.00  0.00    -0.077 A 
ATOM     20  CE1 MOL d          40.579  35.161  -0.565  0.00  0.00    -0.082 A 
ATOM     21  H7  MOL d          41.589  35.935  -2.331  0.00  0.00     0.084 H 
ATOM     22  CZ  MOL d          39.385  34.792   0.037  0.00  0.00    -0.083 A 
ATOM     23  H9  MOL d          41.496  35.079   0.008  0.00  0.00     0.083 H 
ATOM     24  CE2 MOL d          38.232  34.877  -0.715  0.00  0.00    -0.082 A 
ATOM     25  H11 MOL d          39.359  34.448   1.064  0.00  0.00     0.083 H 
ATOM     26  CD2 MOL d          38.261  35.282  -1.982  0.00  0.00    -0.077 A 
ATOM     27  H10 MOL d          37.283  34.609  -0.265  0.00  0.00     0.083 H 
ATOM     28  H8  MOL d          37.344  35.288  -2.560  0.00  0.00     0.084 H 
ENDBRANCH  15  18
ENDBRANCH   9  15
ENDBRANCH   6   9
ENDBRANCH   3   6
ENDBRANCH   1   3
BRANCH   1  29
ATOM     29  CB  MOL d          37.807  42.299  -3.061  0.00  0.00    -0.029 C 
ATOM     30  H15 MOL d          37.167  43.060  -3.533  0.00  0.00     0.041 H 
ATOM     31  H16 MOL d          38.855  42.470  -3.350  0.00  0.00     0.041 H 
BRANCH  29  32
ATOM     32  CG  MOL d          37.705  42.472  -1.562  0.00  0.00    -0.057 A 
ATOM     33  CD1 MOL d          38.369  43.500  -0.911  0.00  0.00    -0.077 A 
ATOM     34  CE1 MOL d          38.284  43.657   0.458  0.00  0.00    -0.082 A 
ATOM     35  H17 MOL d          38.968  44.195  -1.489  0.00  0.00     0.084 H 
ATOM     36  CZ  MOL d          37.511  42.772   1.184  0.00  0.00    -0.083 A 
ATOM     37  H19 MOL d          38.815  44.461   0.955  0.00  0.00     0.083 H 
ATOM     38  CE2 MOL d          36.843  41.739   0.546  0.00  0.00    -0.082 A 
ATOM     39  H21 MOL d          37.426  42.886   2.258  0.00  0.00     0.083 H 
ATOM     40  CD2 MOL d          36.911  41.608  -0.826  0.00  0.00    -0.077 A 
ATOM     41  H20 MOL d          36.264  41.031   1.128  0.00  0.00     0.083 H 
ATOM     42  H18 MOL d          36.346  40.830  -1.326  0.00  0.00     0.084 H 
ENDBRANCH  29  32
ENDBRANCH   1  29
BRANCH   1  43
ATOM     43  C   MOL d          36.236  41.059  -4.615  0.00  0.00     0.223 C 
ATOM     44  O   MOL d          35.455  42.005  -4.624  0.00  0.00    -0.273 OA
ATOM     45  N   MOL d          36.166  40.085  -5.492  0.00  0.00    -0.346 N 
ATOM     46  H22 MOL d          36.902  39.416  -5.396  0.00  0.00     0.163 HD
BRANCH  45  47
ATOM     47  CA  MOL d          35.250  39.771  -6.569  0.00  0.00     0.100 C 
ATOM     48  H23 MOL d          34.217  39.723  -6.195  0.00  0.00     0.090 H 
BRANCH  47  49
ATOM     49  CB  MOL d          35.366  40.866  -7.591  0.00  0.00    -0.013 C 
ATOM     50  H24 MOL d          36.059  40.478  -8.353  0.00  0.00     0.043 H 
ATOM     51  H25 MOL d          35.837  41.707  -7.062  0.00  0.00     0.043 H 
BRANCH  49  52
ATOM     52  CG  MOL d          34.238  41.471  -8.360  0.00  0.00    -0.056 A 
ATOM     53  CD1 MOL d          33.828  40.952  -9.571  0.00  0.00    -0.077 A 
ATOM     54  CE1 MOL d          32.770  41.481 -10.290  0.00  0.00    -0.082 A 
ATOM     55  H26 MOL d          34.356  40.097  -9.976  0.00  0.00     0.084 H 
ATOM     56  CZ  MOL d          32.101  42.575  -9.770  0.00  0.00    -0.083 A 
ATOM     57  H28 MOL d          32.472  41.048 -11.237  0.00  0.00     0.083 H 
ATOM     58  CE2 MOL d          32.498  43.117  -8.557  0.00  0.00    -0.082 A 
ATOM     59  H30 MOL d          31.267  43.009 -10.311  0.00  0.00     0.083 H 
ATOM     60  CD2 MOL d          33.554  42.570  -7.854  0.00  0.00    -0.077 A 
ATOM     61  H29 MOL d          31.975  43.978  -8.157  0.00  0.00     0.083 H 
ATOM     62  H27 MOL d          33.850  43.000  -6.903  0.00  0.00     0.084 H 
ENDBRANCH  49  52
ENDBRANCH  47  49
BRANCH  47  63
ATOM     63  C   MOL d          35.655  38.407  -7.134  0.00  0.00     0.197 C 
ATOM     64  O   MOL d          36.543  37.769  -6.540  0.00  0.00    -0.646 OA
ATOM     65  OXT MOL d          35.085  37.994  -8.141  0.00  0.00    -0.646 OA
ENDBRANCH  47  63
ENDBRANCH  45  47
ENDBRANCH   1  43
TORSDOF 13
ENDMDL
MODEL 7
REMARK VINA RESULT:      -7.3      2.494      7.173
REMARK  13 active torsions:
REMARK  status: ('A' for Active; 'I' for Inactive)
REMARK    1  A    between atoms: CA_2  and  N_1 
REMARK    2  A    between atoms: P_3  and  CA_2 
REMARK    3  A    between atoms: CA_2  and  CB_6 
REMARK    4  A    between atoms: CM_13  and  P_3 
REMARK    5  A    between atoms: CB_6  and  CG_7 
REMARK    6  A    between atoms: CA_14  and  CM_13 
REMARK    7  A    between atoms: CA_14  and  CB_15 
REMARK    8  A    between atoms: C_22  and  CA_14 
REMARK    9  A    between atoms: CB_15  and  CG_16 
REMARK       I    between atoms: C_22  and  N_24 
REMARK   10  A    between atoms: N_24  and  CA_25 
REMARK   11  A    between atoms: CA_25  and  CB_28 
REMARK   12  A    between atoms: CA_25  and  C_26 
REMARK   13  A    between atoms: CB_28  and  CG_29 
ROOT
ATOM      1  CA  MOL d          35.472  40.458  -6.802  0.00  0.00     0.036 C 
ATOM      2  H14 MOL d          35.854  40.734  -7.796  0.00  0.00     0.056 H 
ENDROOT
BRANCH   1   3
ATOM      3  CM  MOL d          35.837  38.976  -6.583  0.00  0.00     0.021 C 
ATOM      4  H12 MOL d          36.887  38.934  -6.257  0.00  0.00     0.050 H 
ATOM      5  H13 MOL d          35.189  38.586  -5.784  0.00  0.00     0.050 H 
BRANCH   3   6
ATOM      6  P   MOL d          35.664  37.922  -7.981  0.00  0.00     0.138 P 
ATOM      7  O1P MOL d          35.942  38.677  -9.246  0.00  0.00    -0.666 OA
ATOM      8  O2P MOL d          34.301  37.369  -8.101  0.00  0.00    -0.666 OA
BRANCH   6   9
ATOM      9  CA  MOL d          36.781  36.700  -7.519  0.00  0.00     0.177 C 
ATOM     10  H4  MOL d          36.654  36.617  -6.430  0.00  0.00     0.101 H 
BRANCH   9  11
ATOM     11  N   MOL d          36.418  35.411  -8.150  0.00  0.00    -0.065 N 
ATOM     12  H1  MOL d          36.552  35.475  -9.146  0.00  0.00     0.275 HD
ATOM     13  H2  MOL d          35.452  35.202  -7.953  0.00  0.00     0.275 HD
ATOM     14  H3  MOL d          37.003  34.679  -7.779  0.00  0.00     0.275 HD
ENDBRANCH   9  11
BRANCH   9  15
ATOM     15  CB  MOL d          38.234  36.723  -7.752  0.00  0.00    -0.005 C 
ATOM     16  H5  MOL d          38.485  37.643  -8.300  0.00  0.00     0.044 H 
ATOM     17  H6  MOL d          38.503  35.848  -8.361  0.00  0.00     0.044 H 
BRANCH  15  18
ATOM     18  CG  MOL d          39.053  36.687  -6.466  0.00  0.00    -0.056 A 
ATOM     19  CD1 MOL d          38.362  36.627  -5.246  0.00  0.00    -0.077 A 
ATOM     20  CE1 MOL d          39.156  36.611  -4.095  0.00  0.00    -0.082 A 
ATOM     21  H7  MOL d          37.280  36.596  -5.199  0.00  0.00     0.084 H 
ATOM     22  CZ  MOL d          40.543  36.629  -4.137  0.00  0.00    -0.083 A 
ATOM     23  H9  MOL d          38.667  36.582  -3.128  0.00  0.00     0.083 H 
ATOM     24  CE2 MOL d          41.147  36.692  -5.376  0.00  0.00    -0.082 A 
ATOM     25  H11 MOL d          41.131  36.594  -3.228  0.00  0.00     0.083 H 
ATOM     26  CD2 MOL d          40.430  36.752  -6.494  0.00  0.00    -0.077 A 
ATOM     27  H10 MOL d          42.230  36.692  -5.439  0.00  0.00     0.083 H 
ATOM     28  H8  MOL d          40.937  36.853  -7.447  0.00  0.00     0.084 H 
ENDBRANCH  15  18
ENDBRANCH   9  15
ENDBRANCH   6   9
ENDBRANCH   3   6
ENDBRANCH   1   3
BRANCH   1  29
ATOM     29  CB  MOL d          33.941  40.605  -6.835  0.00  0.00    -0.029 C 
ATOM     30  H15 MOL d          33.639  41.187  -5.952  0.00  0.00     0.041 H 
ATOM     31  H16 MOL d          33.504  39.597  -6.777  0.00  0.00     0.041 H 
BRANCH  29  32
ATOM     32  CG  MOL d          33.371  41.289  -8.058  0.00  0.00    -0.057 A 
ATOM     33  CD1 MOL d          32.967  40.560  -9.166  0.00  0.00    -0.077 A 
ATOM     34  CE1 MOL d          32.453  41.181 -10.286  0.00  0.00    -0.082 A 
ATOM     35  H17 MOL d          33.057  39.480  -9.152  0.00  0.00     0.084 H 
ATOM     36  CZ  MOL d          32.334  42.558 -10.290  0.00  0.00    -0.083 A 
ATOM     37  H19 MOL d          32.147  40.599 -11.148  0.00  0.00     0.083 H 
ATOM     38  CE2 MOL d          32.736  43.299  -9.191  0.00  0.00    -0.082 A 
ATOM     39  H21 MOL d          31.924  43.062 -11.158  0.00  0.00     0.083 H 
ATOM     40  CD2 MOL d          33.222  42.666  -8.064  0.00  0.00    -0.077 A 
ATOM     41  H20 MOL d          32.668  44.381  -9.216  0.00  0.00     0.083 H 
ATOM     42  H18 MOL d          33.486  43.246  -7.188  0.00  0.00     0.084 H 
ENDBRANCH  29  32
ENDBRANCH   1  29
BRANCH   1  43
ATOM     43  C   MOL d          36.101  41.443  -5.809  0.00  0.00     0.223 C 
ATOM     44  O   MOL d          35.885  42.651  -5.830  0.00  0.00    -0.273 OA
ATOM     45  N   MOL d          36.877  40.887  -4.909  0.00  0.00    -0.346 N 
ATOM     46  H22 MOL d          36.911  39.890  -4.982  0.00  0.00     0.163 HD
BRANCH  45  47
ATOM     47  CA  MOL d          37.695  41.405  -3.833  0.00  0.00     0.100 C 
ATOM     48  H23 MOL d          38.368  42.192  -4.204  0.00  0.00     0.090 H 
BRANCH  47  49
ATOM     49  CB  MOL d          36.768  41.982  -2.801  0.00  0.00    -0.013 C 
ATOM     50  H24 MOL d          36.243  41.117  -2.368  0.00  0.00     0.043 H 
ATOM     51  H25 MOL d          36.054  42.598  -3.366  0.00  0.00     0.043 H 
BRANCH  49  52
ATOM     52  CG  MOL d          37.169  42.822  -1.633  0.00  0.00    -0.056 A 
ATOM     53  CD1 MOL d          37.355  42.275  -0.379  0.00  0.00    -0.077 A 
ATOM     54  CE1 MOL d          37.749  43.028   0.712  0.00  0.00    -0.082 A 
ATOM     55  H26 MOL d          37.185  41.213  -0.245  0.00  0.00     0.084 H 
ATOM     56  CZ  MOL d          37.962  44.385   0.536  0.00  0.00    -0.083 A 
ATOM     57  H28 MOL d          37.889  42.567   1.683  0.00  0.00     0.083 H 
ATOM     58  CE2 MOL d          37.776  44.957  -0.713  0.00  0.00    -0.082 A 
ATOM     59  H30 MOL d          38.274  44.999   1.373  0.00  0.00     0.083 H 
ATOM     60  CD2 MOL d          37.387  44.185  -1.791  0.00  0.00    -0.077 A 
ATOM     61  H29 MOL d          37.937  46.020  -0.845  0.00  0.00     0.083 H 
ATOM     62  H27 MOL d          37.251  44.645  -2.763  0.00  0.00     0.084 H 
ENDBRANCH  49  52
ENDBRANCH  47  49
BRANCH  47  63
ATOM     63  C   MOL d          38.523  40.242  -3.281  0.00  0.00     0.197 C 
ATOM     64  O   MOL d          39.689  40.107  -3.695  0.00  0.00    -0.646 OA
ATOM     65  OXT MOL d          38.009  39.495  -2.451  0.00  0.00    -0.646 OA
ENDBRANCH  47  63
ENDBRANCH  45  47
ENDBRANCH   1  43
TORSDOF 13
ENDMDL
MODEL 8
REMARK VINA RESULT:      -7.2      2.034      7.551
REMARK  13 active torsions:
REMARK  status: ('A' for Active; 'I' for Inactive)
REMARK    1  A    between atoms: CA_2  and  N_1 
REMARK    2  A    between atoms: P_3  and  CA_2 
REMARK    3  A    between atoms: CA_2  and  CB_6 
REMARK    4  A    between atoms: CM_13  and  P_3 
REMARK    5  A    between atoms: CB_6  and  CG_7 
REMARK    6  A    between atoms: CA_14  and  CM_13 
REMARK    7  A    between atoms: CA_14  and  CB_15 
REMARK    8  A    between atoms: C_22  and  CA_14 
REMARK    9  A    between atoms: CB_15  and  CG_16 
REMARK       I    between atoms: C_22  and  N_24 
REMARK   10  A    between atoms: N_24  and  CA_25 
REMARK   11  A    between atoms: CA_25  and  CB_28 
REMARK   12  A    between atoms: CA_25  and  C_26 
REMARK   13  A    between atoms: CB_28  and  CG_29 
ROOT
ATOM      1  CA  MOL d          38.775  39.342  -4.082  0.00  0.00     0.036 C 
ATOM      2  H14 MOL d          38.963  39.924  -4.996  0.00  0.00     0.056 H 
ENDROOT
BRANCH   1   3
ATOM      3  CM  MOL d          37.799  40.170  -3.223  0.00  0.00     0.021 C 
ATOM      4  H12 MOL d          36.953  39.520  -2.955  0.00  0.00     0.050 H 
ATOM      5  H13 MOL d          38.331  40.475  -2.310  0.00  0.00     0.050 H 
BRANCH   3   6
ATOM      6  P   MOL d          37.145  41.620  -3.975  0.00  0.00     0.138 P 
ATOM      7  O1P MOL d          36.477  41.283  -5.275  0.00  0.00    -0.666 OA
ATOM      8  O2P MOL d          38.192  42.617  -4.277  0.00  0.00    -0.666 OA
BRANCH   6   9
ATOM      9  CA  MOL d          36.149  42.153  -2.680  0.00  0.00     0.177 C 
ATOM     10  H4  MOL d          36.083  43.242  -2.822  0.00  0.00     0.101 H 
BRANCH   9  11
ATOM     11  N   MOL d          34.796  41.565  -2.800  0.00  0.00    -0.065 N 
ATOM     12  H1  MOL d          34.718  40.774  -2.181  0.00  0.00     0.275 HD
ATOM     13  H2  MOL d          34.644  41.264  -3.750  0.00  0.00     0.275 HD
ATOM     14  H3  MOL d          34.106  42.256  -2.551  0.00  0.00     0.275 HD
ENDBRANCH   9  11
BRANCH   9  15
ATOM     15  CB  MOL d          36.413  41.952  -1.247  0.00  0.00    -0.005 C 
ATOM     16  H5  MOL d          37.028  41.048  -1.129  0.00  0.00     0.044 H 
ATOM     17  H6  MOL d          35.451  41.812  -0.732  0.00  0.00     0.044 H 
BRANCH  15  18
ATOM     18  CG  MOL d          37.143  43.122  -0.596  0.00  0.00    -0.056 A 
ATOM     19  CD1 MOL d          37.025  44.386  -1.192  0.00  0.00    -0.077 A 
ATOM     20  CE1 MOL d          37.724  45.424  -0.567  0.00  0.00    -0.082 A 
ATOM     21  H7  MOL d          36.429  44.549  -2.083  0.00  0.00     0.084 H 
ATOM     22  CZ  MOL d          38.474  45.238   0.585  0.00  0.00    -0.083 A 
ATOM     23  H9  MOL d          37.677  46.416  -1.002  0.00  0.00     0.083 H 
ATOM     24  CE2 MOL d          38.544  43.964   1.108  0.00  0.00    -0.082 A 
ATOM     25  H11 MOL d          38.988  46.067   1.057  0.00  0.00     0.083 H 
ATOM     26  CD2 MOL d          37.929  42.940   0.522  0.00  0.00    -0.077 A 
ATOM     27  H10 MOL d          39.112  43.793   2.016  0.00  0.00     0.083 H 
ATOM     28  H8  MOL d          38.049  41.943   0.931  0.00  0.00     0.084 H 
ENDBRANCH  15  18
ENDBRANCH   9  15
ENDBRANCH   6   9
ENDBRANCH   3   6
ENDBRANCH   1   3
BRANCH   1  29
ATOM     29  CB  MOL d          40.113  39.200  -3.337  0.00  0.00    -0.029 C 
ATOM     30  H15 MOL d          40.201  40.045  -2.637  0.00  0.00     0.041 H 
ATOM     31  H16 MOL d          40.921  39.255  -4.082  0.00  0.00     0.041 H 
BRANCH  29  32
ATOM     32  CG  MOL d          40.297  37.923  -2.547  0.00  0.00    -0.057 A 
ATOM     33  CD1 MOL d          41.168  36.933  -2.975  0.00  0.00    -0.077 A 
ATOM     34  CE1 MOL d          41.332  35.763  -2.260  0.00  0.00    -0.082 A 
ATOM     35  H17 MOL d          41.731  37.081  -3.889  0.00  0.00     0.084 H 
ATOM     36  CZ  MOL d          40.616  35.589  -1.091  0.00  0.00    -0.083 A 
ATOM     37  H19 MOL d          42.011  34.994  -2.610  0.00  0.00     0.083 H 
ATOM     38  CE2 MOL d          39.741  36.570  -0.653  0.00  0.00    -0.082 A 
ATOM     39  H21 MOL d          40.739  34.681  -0.513  0.00  0.00     0.083 H 
ATOM     40  CD2 MOL d          39.605  37.748  -1.360  0.00  0.00    -0.077 A 
ATOM     41  H20 MOL d          39.160  36.410   0.248  0.00  0.00     0.083 H 
ATOM     42  H18 MOL d          38.958  38.533  -0.986  0.00  0.00     0.084 H 
ENDBRANCH  29  32
ENDBRANCH   1  29
BRANCH   1  43
ATOM     43  C   MOL d          38.250  37.976  -4.541  0.00  0.00     0.223 C 
ATOM     44  O   MOL d          37.795  37.135  -3.770  0.00  0.00    -0.273 OA
ATOM     45  N   MOL d          38.302  37.781  -5.837  0.00  0.00    -0.346 N 
ATOM     46  H22 MOL d          38.642  38.576  -6.340  0.00  0.00     0.163 HD
BRANCH  45  47
ATOM     47  CA  MOL d          37.973  36.664  -6.697  0.00  0.00     0.100 C 
ATOM     48  H23 MOL d          37.484  35.865  -6.121  0.00  0.00     0.090 H 
BRANCH  47  49
ATOM     49  CB  MOL d          37.032  37.171  -7.753  0.00  0.00    -0.013 C 
ATOM     50  H24 MOL d          37.032  36.397  -8.535  0.00  0.00     0.043 H 
ATOM     51  H25 MOL d          37.502  38.085  -8.143  0.00  0.00     0.043 H 
BRANCH  49  52
ATOM     52  CG  MOL d          35.596  37.525  -7.551  0.00  0.00    -0.056 A 
ATOM     53  CD1 MOL d          34.596  36.578  -7.655  0.00  0.00    -0.077 A 
ATOM     54  CE1 MOL d          33.261  36.878  -7.448  0.00  0.00    -0.082 A 
ATOM     55  H26 MOL d          34.869  35.560  -7.908  0.00  0.00     0.084 H 
ATOM     56  CZ  MOL d          32.918  38.180  -7.128  0.00  0.00    -0.083 A 
ATOM     57  H28 MOL d          32.501  36.110  -7.535  0.00  0.00     0.083 H 
ATOM     58  CE2 MOL d          33.905  39.148  -7.023  0.00  0.00    -0.082 A 
ATOM     59  H30 MOL d          31.880  38.442  -6.959  0.00  0.00     0.083 H 
ATOM     60  CD2 MOL d          35.233  38.827  -7.228  0.00  0.00    -0.077 A 
ATOM     61  H29 MOL d          33.631  40.168  -6.779  0.00  0.00     0.083 H 
ATOM     62  H27 MOL d          35.994  39.593  -7.137  0.00  0.00     0.084 H 
ENDBRANCH  49  52
ENDBRANCH  47  49
BRANCH  47  63
ATOM     63  C   MOL d          39.282  36.139  -7.292  0.00  0.00     0.197 C 
ATOM     64  O   MOL d          39.212  35.326  -8.231  0.00  0.00    -0.646 OA
ATOM     65  OXT MOL d          40.345  36.545  -6.827  0.00  0.00    -0.646 OA
ENDBRANCH  47  63
ENDBRANCH  45  47
ENDBRANCH   1  43
TORSDOF 13
ENDMDL
MODEL 9
REMARK VINA RESULT:      -7.1      2.700      6.172
REMARK  13 active torsions:
REMARK  status: ('A' for Active; 'I' for Inactive)
REMARK    1  A    between atoms: CA_2  and  N_1 
REMARK    2  A    between atoms: P_3  and  CA_2 
REMARK    3  A    between atoms: CA_2  and  CB_6 
REMARK    4  A    between atoms: CM_13  and  P_3 
REMARK    5  A    between atoms: CB_6  and  CG_7 
REMARK    6  A    between atoms: CA_14  and  CM_13 
REMARK    7  A    between atoms: CA_14  and  CB_15 
REMARK    8  A    between atoms: C_22  and  CA_14 
REMARK    9  A    between atoms: CB_15  and  CG_16 
REMARK       I    between atoms: C_22  and  N_24 
REMARK   10  A    between atoms: N_24  and  CA_25 
REMARK   11  A    between atoms: CA_25  and  CB_28 
REMARK   12  A    between atoms: CA_25  and  C_26 
REMARK   13  A    between atoms: CB_28  and  CG_29 
ROOT
ATOM      1  CA  MOL d          37.510  40.724  -3.790  0.00  0.00     0.036 C 
ATOM      2  H14 MOL d          37.156  40.089  -2.963  0.00  0.00     0.056 H 
ENDROOT
BRANCH   1   3
ATOM      3  CM  MOL d          38.619  39.935  -4.512  0.00  0.00     0.021 C 
ATOM      4  H12 MOL d          38.343  39.863  -5.574  0.00  0.00     0.050 H 
ATOM      5  H13 MOL d          39.555  40.504  -4.414  0.00  0.00     0.050 H 
BRANCH   3   6
ATOM      6  P   MOL d          38.917  38.304  -3.922  0.00  0.00     0.138 P 
ATOM      7  O1P MOL d          37.802  37.857  -3.025  0.00  0.00    -0.666 OA
ATOM      8  O2P MOL d          40.164  38.210  -3.137  0.00  0.00    -0.666 OA
BRANCH   6   9
ATOM      9  CA  MOL d          39.088  37.512  -5.437  0.00  0.00     0.177 C 
ATOM     10  H4  MOL d          38.553  38.163  -6.144  0.00  0.00     0.101 H 
BRANCH   9  11
ATOM     11  N   MOL d          40.516  37.448  -5.823  0.00  0.00    -0.065 N 
ATOM     12  H1  MOL d          41.053  38.057  -5.226  0.00  0.00     0.275 HD
ATOM     13  H2  MOL d          40.618  37.742  -6.781  0.00  0.00     0.275 HD
ATOM     14  H3  MOL d          40.849  36.502  -5.724  0.00  0.00     0.275 HD
ENDBRANCH   9  11
BRANCH   9  15
ATOM     15  CB  MOL d          38.656  36.140  -5.751  0.00  0.00    -0.005 C 
ATOM     16  H5  MOL d          38.413  35.628  -4.809  0.00  0.00     0.044 H 
ATOM     17  H6  MOL d          39.486  35.618  -6.249  0.00  0.00     0.044 H 
BRANCH  15  18
ATOM     18  CG  MOL d          37.434  36.085  -6.661  0.00  0.00    -0.056 A 
ATOM     19  CD1 MOL d          36.561  34.996  -6.526  0.00  0.00    -0.077 A 
ATOM     20  CE1 MOL d          35.463  34.982  -7.392  0.00  0.00    -0.082 A 
ATOM     21  H7  MOL d          36.727  34.213  -5.796  0.00  0.00     0.084 H 
ATOM     22  CZ  MOL d          35.223  35.987  -8.318  0.00  0.00    -0.083 A 
ATOM     23  H9  MOL d          34.769  34.151  -7.337  0.00  0.00     0.083 H 
ATOM     24  CE2 MOL d          36.131  37.023  -8.393  0.00  0.00    -0.082 A 
ATOM     25  H11 MOL d          34.352  35.958  -8.962  0.00  0.00     0.083 H 
ATOM     26  CD2 MOL d          37.211  37.053  -7.617  0.00  0.00    -0.077 A 
ATOM     27  H10 MOL d          35.961  37.829  -9.098  0.00  0.00     0.083 H 
ATOM     28  H8  MOL d          37.930  37.855  -7.739  0.00  0.00     0.084 H 
ENDBRANCH  15  18
ENDBRANCH   9  15
ENDBRANCH   6   9
ENDBRANCH   3   6
ENDBRANCH   1   3
BRANCH   1  29
ATOM     29  CB  MOL d          38.111  41.998  -3.172  0.00  0.00    -0.029 C 
ATOM     30  H15 MOL d          37.758  42.858  -3.761  0.00  0.00     0.041 H 
ATOM     31  H16 MOL d          39.206  41.925  -3.249  0.00  0.00     0.041 H 
BRANCH  29  32
ATOM     32  CG  MOL d          37.765  42.255  -1.722  0.00  0.00    -0.057 A 
ATOM     33  CD1 MOL d          38.140  43.432  -1.092  0.00  0.00    -0.077 A 
ATOM     34  CE1 MOL d          37.832  43.668   0.233  0.00  0.00    -0.082 A 
ATOM     35  H17 MOL d          38.686  44.183  -1.652  0.00  0.00     0.084 H 
ATOM     36  CZ  MOL d          37.128  42.708   0.935  0.00  0.00    -0.083 A 
ATOM     37  H19 MOL d          38.137  44.590   0.715  0.00  0.00     0.083 H 
ATOM     38  CE2 MOL d          36.749  41.527   0.318  0.00  0.00    -0.082 A 
ATOM     39  H21 MOL d          36.870  42.880   1.973  0.00  0.00     0.083 H 
ATOM     40  CD2 MOL d          37.036  41.313  -1.015  0.00  0.00    -0.077 A 
ATOM     41  H20 MOL d          36.224  40.767   0.886  0.00  0.00     0.083 H 
ATOM     42  H18 MOL d          36.693  40.411  -1.507  0.00  0.00     0.084 H 
ENDBRANCH  29  32
ENDBRANCH   1  29
BRANCH   1  43
ATOM     43  C   MOL d          36.276  41.052  -4.640  0.00  0.00     0.223 C 
ATOM     44  O   MOL d          35.397  41.830  -4.281  0.00  0.00    -0.273 OA
ATOM     45  N   MOL d          36.243  40.448  -5.805  0.00  0.00    -0.346 N 
ATOM     46  H22 MOL d          37.054  39.891  -5.981  0.00  0.00     0.163 HD
BRANCH  45  47
ATOM     47  CA  MOL d          35.285  40.415  -6.890  0.00  0.00     0.100 C 
ATOM     48  H23 MOL d          35.732  39.959  -7.785  0.00  0.00     0.090 H 
BRANCH  47  49
ATOM     49  CB  MOL d          34.116  39.589  -6.432  0.00  0.00    -0.013 C 
ATOM     50  H24 MOL d          33.488  40.277  -5.847  0.00  0.00     0.043 H 
ATOM     51  H25 MOL d          34.545  38.827  -5.765  0.00  0.00     0.043 H 
BRANCH  49  52
ATOM     52  CG  MOL d          33.169  38.846  -7.315  0.00  0.00    -0.056 A 
ATOM     53  CD1 MOL d          32.990  39.195  -8.639  0.00  0.00    -0.077 A 
ATOM     54  CE1 MOL d          32.135  38.507  -9.482  0.00  0.00    -0.082 A 
ATOM     55  H26 MOL d          33.541  40.041  -9.033  0.00  0.00     0.084 H 
ATOM     56  CZ  MOL d          31.431  37.430  -8.974  0.00  0.00    -0.083 A 
ATOM     57  H28 MOL d          32.020  38.805 -10.518  0.00  0.00     0.083 H 
ATOM     58  CE2 MOL d          31.590  37.065  -7.646  0.00  0.00    -0.082 A 
ATOM     59  H30 MOL d          30.756  36.872  -9.613  0.00  0.00     0.083 H 
ATOM     60  CD2 MOL d          32.453  37.762  -6.822  0.00  0.00    -0.077 A 
ATOM     61  H29 MOL d          31.032  36.224  -7.250  0.00  0.00     0.083 H 
ATOM     62  H27 MOL d          32.573  37.462  -5.787  0.00  0.00     0.084 H 
ENDBRANCH  49  52
ENDBRANCH  47  49
BRANCH  47  63
ATOM     63  C   MOL d          34.887  41.861  -7.196  0.00  0.00     0.197 C 
ATOM     64  O   MOL d          33.717  42.209  -6.948  0.00  0.00    -0.646 OA
ATOM     65  OXT MOL d          35.733  42.619  -7.664  0.00  0.00    -0.646 OA
ENDBRANCH  47  63
ENDBRANCH  45  47
ENDBRANCH   1  43
TORSDOF 13
ENDMDL
MODEL 10
REMARK VINA RESULT:      -7.0      1.742      7.598
REMARK  13 active torsions:
REMARK  status: ('A' for Active; 'I' for Inactive)
REMARK    1  A    between atoms: CA_2  and  N_1 
REMARK    2  A    between atoms: P_3  and  CA_2 
REMARK    3  A    between atoms: CA_2  and  CB_6 
REMARK    4  A    between atoms: CM_13  and  P_3 
REMARK    5  A    between atoms: CB_6  and  CG_7 
REMARK    6  A    between atoms: CA_14  and  CM_13 
REMARK    7  A    between atoms: CA_14  and  CB_15 
REMARK    8  A    between atoms: C_22  and  CA_14 
REMARK    9  A    between atoms: CB_15  and  CG_16 
REMARK       I    between atoms: C_22  and  N_24 
REMARK   10  A    between atoms: N_24  and  CA_25 
REMARK   11  A    between atoms: CA_25  and  CB_28 
REMARK   12  A    between atoms: CA_25  and  C_26 
REMARK   13  A    between atoms: CB_28  and  CG_29 
ROOT
ATOM      1  CA  MOL d          37.568  40.647  -3.544  0.00  0.00     0.036 C 
ATOM      2  H14 MOL d          37.148  40.052  -2.719  0.00  0.00     0.056 H 
ENDROOT
BRANCH   1   3
ATOM      3  CM  MOL d          38.678  39.792  -4.187  0.00  0.00     0.021 C 
ATOM      4  H12 MOL d          38.696  40.020  -5.263  0.00  0.00     0.050 H 
ATOM      5  H13 MOL d          39.635  40.088  -3.733  0.00  0.00     0.050 H 
BRANCH   3   6
ATOM      6  P   MOL d          38.513  38.050  -4.008  0.00  0.00     0.138 P 
ATOM      7  O1P MOL d          37.792  37.466  -5.187  0.00  0.00    -0.666 OA
ATOM      8  O2P MOL d          37.741  37.679  -2.806  0.00  0.00    -0.666 OA
BRANCH   6   9
ATOM      9  CA  MOL d          40.174  37.655  -3.813  0.00  0.00     0.177 C 
ATOM     10  H4  MOL d          40.257  36.634  -4.213  0.00  0.00     0.101 H 
BRANCH   9  11
ATOM     11  N   MOL d          41.015  38.563  -4.625  0.00  0.00    -0.065 N 
ATOM     12  H1  MOL d          40.840  38.399  -5.604  0.00  0.00     0.275 HD
ATOM     13  H2  MOL d          41.987  38.390  -4.424  0.00  0.00     0.275 HD
ATOM     14  H3  MOL d          40.790  39.520  -4.400  0.00  0.00     0.275 HD
ENDBRANCH   9  11
BRANCH   9  15
ATOM     15  CB  MOL d          40.919  37.649  -2.544  0.00  0.00    -0.005 C 
ATOM     16  H5  MOL d          40.653  38.555  -1.980  0.00  0.00     0.044 H 
ATOM     17  H6  MOL d          41.995  37.661  -2.771  0.00  0.00     0.044 H 
BRANCH  15  18
ATOM     18  CG  MOL d          40.621  36.433  -1.674  0.00  0.00    -0.056 A 
ATOM     19  CD1 MOL d          40.601  35.172  -2.288  0.00  0.00    -0.077 A 
ATOM     20  CE1 MOL d          40.310  34.090  -1.452  0.00  0.00    -0.082 A 
ATOM     21  H7  MOL d          40.798  35.045  -3.346  0.00  0.00     0.084 H 
ATOM     22  CZ  MOL d          40.076  34.232  -0.092  0.00  0.00    -0.083 A 
ATOM     23  H9  MOL d          40.266  33.097  -1.885  0.00  0.00     0.083 H 
ATOM     24  CE2 MOL d          40.110  35.505   0.437  0.00  0.00    -0.082 A 
ATOM     25  H11 MOL d          39.873  33.371   0.534  0.00  0.00     0.083 H 
ATOM     26  CD2 MOL d          40.341  36.567  -0.331  0.00  0.00    -0.077 A 
ATOM     27  H10 MOL d          39.945  35.644   1.499  0.00  0.00     0.083 H 
ATOM     28  H8  MOL d          40.309  37.558   0.109  0.00  0.00     0.084 H 
ENDBRANCH  15  18
ENDBRANCH   9  15
ENDBRANCH   6   9
ENDBRANCH   3   6
ENDBRANCH   1   3
BRANCH   1  29
ATOM     29  CB  MOL d          38.191  41.914  -2.933  0.00  0.00    -0.029 C 
ATOM     30  H15 MOL d          37.881  42.772  -3.548  0.00  0.00     0.041 H 
ATOM     31  H16 MOL d          39.285  41.806  -2.977  0.00  0.00     0.041 H 
BRANCH  29  32
ATOM     32  CG  MOL d          37.811  42.210  -1.499  0.00  0.00    -0.057 A 
ATOM     33  CD1 MOL d          38.234  43.371  -0.870  0.00  0.00    -0.077 A 
ATOM     34  CE1 MOL d          37.895  43.641   0.441  0.00  0.00    -0.082 A 
ATOM     35  H17 MOL d          38.843  44.080  -1.418  0.00  0.00     0.084 H 
ATOM     36  CZ  MOL d          37.110  42.735   1.129  0.00  0.00    -0.083 A 
ATOM     37  H19 MOL d          38.238  44.550   0.924  0.00  0.00     0.083 H 
ATOM     38  CE2 MOL d          36.683  41.570   0.512  0.00  0.00    -0.082 A 
ATOM     39  H21 MOL d          36.828  42.935   2.155  0.00  0.00     0.083 H 
ATOM     40  CD2 MOL d          37.003  41.323  -0.808  0.00  0.00    -0.077 A 
ATOM     41  H20 MOL d          36.094  40.850   1.069  0.00  0.00     0.083 H 
ATOM     42  H18 MOL d          36.623  40.436  -1.302  0.00  0.00     0.084 H 
ENDBRANCH  29  32
ENDBRANCH   1  29
BRANCH   1  43
ATOM     43  C   MOL d          36.392  40.998  -4.465  0.00  0.00     0.223 C 
ATOM     44  O   MOL d          35.546  41.842  -4.186  0.00  0.00    -0.273 OA
ATOM     45  N   MOL d          36.373  40.337  -5.598  0.00  0.00    -0.346 N 
ATOM     46  H22 MOL d          37.157  39.726  -5.709  0.00  0.00     0.163 HD
BRANCH  45  47
ATOM     47  CA  MOL d          35.461  40.301  -6.722  0.00  0.00     0.100 C 
ATOM     48  H23 MOL d          35.945  39.841  -7.596  0.00  0.00     0.090 H 
BRANCH  47  49
ATOM     49  CB  MOL d          34.274  39.476  -6.311  0.00  0.00    -0.013 C 
ATOM     50  H24 MOL d          33.674  40.135  -5.666  0.00  0.00     0.043 H 
ATOM     51  H25 MOL d          34.688  38.653  -5.711  0.00  0.00     0.043 H 
BRANCH  49  52
ATOM     52  CG  MOL d          33.292  38.832  -7.234  0.00  0.00    -0.056 A 
ATOM     53  CD1 MOL d          32.510  37.770  -6.830  0.00  0.00    -0.077 A 
ATOM     54  CE1 MOL d          31.577  37.173  -7.660  0.00  0.00    -0.082 A 
ATOM     55  H26 MOL d          32.630  37.388  -5.823  0.00  0.00     0.084 H 
ATOM     56  CZ  MOL d          31.429  37.662  -8.946  0.00  0.00    -0.083 A 
ATOM     57  H28 MOL d          30.976  36.341  -7.310  0.00  0.00     0.083 H 
ATOM     58  CE2 MOL d          32.208  38.725  -9.375  0.00  0.00    -0.082 A 
ATOM     59  H30 MOL d          30.704  37.214  -9.617  0.00  0.00     0.083 H 
ATOM     60  CD2 MOL d          33.130  39.310  -8.529  0.00  0.00    -0.077 A 
ATOM     61  H29 MOL d          32.093  39.100 -10.385  0.00  0.00     0.083 H 
ATOM     62  H27 MOL d          33.728  40.145  -8.876  0.00  0.00     0.084 H 
ENDBRANCH  49  52
ENDBRANCH  47  49
BRANCH  47  63
ATOM     63  C   MOL d          35.077  41.745  -7.050  0.00  0.00     0.197 C 
ATOM     64  O   MOL d          35.906  42.446  -7.660  0.00  0.00    -0.646 OA
ATOM     65  OXT MOL d          33.969  42.152  -6.708  0.00  0.00    -0.646 OA
ENDBRANCH  47  63
ENDBRANCH  45  47
ENDBRANCH   1  43
TORSDOF 13
ENDMDL
