MODEL 1
REMARK VINA RESULT:     -13.9      0.000      0.000
REMARK  6 active torsions:
REMARK  status: ('A' for Active; 'I' for Inactive)
REMARK       I    between atoms: C22_2  and  N24_3 
REMARK    1  A    between atoms: C22_2  and  C19_16 
REMARK    2  A    between atoms: N24_3  and  C26_4 
REMARK    3  A    between atoms: C29_6  and  N31_10 
REMARK    4  A    between atoms: C18_19  and  C21_20 
REMARK    5  A    between atoms: C15_21  and  C12_23 
REMARK    6  A    between atoms: C2_30  and  C5_32 
ROOT
ATOM      1  C19 MOL d          39.934  30.426  34.131  0.00  0.00     0.033 A 
ATOM      2  C23 MOL d          38.713  30.682  33.491  0.00  0.00    -0.067 A 
ATOM      3  C20 MOL d          38.679  31.512  32.367  0.00  0.00    -0.075 A 
ATOM      4  C18 MOL d          39.848  32.089  31.871  0.00  0.00    -0.051 A 
ATOM      5  C15 MOL d          41.057  31.832  32.522  0.00  0.00    -0.019 A 
ATOM      6  C17 MOL d          41.108  31.018  33.637  0.00  0.00    -0.057 A 
ATOM      7  H14 MOL d          37.798  30.237  33.866  0.00  0.00     0.085 H 
ATOM      8  H15 MOL d          37.733  31.709  31.876  0.00  0.00     0.084 H 
ATOM      9  H19 MOL d          42.055  30.837  34.131  0.00  0.00     0.086 H 
ENDROOT
BRANCH   5  10
ATOM     10  C12 MOL d          42.297  32.432  32.003  0.00  0.00    -0.023 A 
ATOM     11  C9  MOL d          43.056  31.717  31.079  0.00  0.00    -0.071 A 
ATOM     12  C4  MOL d          44.221  32.287  30.561  0.00  0.00    -0.067 A 
ATOM     13  H20 MOL d          42.745  30.727  30.765  0.00  0.00     0.084 H 
ATOM     14  C1  MOL d          44.595  33.580  30.996  0.00  0.00     0.027 A 
ATOM     15  H21 MOL d          44.827  31.748  29.841  0.00  0.00     0.085 H 
ATOM     16  C3  MOL d          43.826  34.254  31.903  0.00  0.00     0.114 A 
ATOM     17  C2  MOL d          45.689  34.381  30.658  0.00  0.00     0.079 A 
ATOM     18  O8  MOL d          44.422  35.461  32.133  0.00  0.00    -0.212 OA
ATOM     19  C7  MOL d          42.680  33.710  32.411  0.00  0.00    -0.037 A 
ATOM     20  N6  MOL d          45.520  35.527  31.392  0.00  0.00    -0.131 NA
ATOM     21  H22 MOL d          42.077  34.263  33.122  0.00  0.00     0.089 H 
BRANCH  17  22
ATOM     22  C5  MOL d          46.823  34.056  29.709  0.00  0.00    -0.006 C 
ATOM     23  C10 MOL d          47.783  32.994  30.298  0.00  0.00    -0.034 C 
ATOM     24  C13 MOL d          48.708  32.475  29.199  0.00  0.00     0.082 C 
ATOM     25  H24 MOL d          47.197  32.158  30.708  0.00  0.00     0.036 H 
ATOM     26  H25 MOL d          48.384  33.448  31.099  0.00  0.00     0.036 H 
ATOM     27  N16 MOL d          49.505  33.543  28.575  0.00  0.00    -0.075 N 
ATOM     28  H26 MOL d          48.096  31.994  28.422  0.00  0.00     0.075 H 
ATOM     29  H27 MOL d          49.394  31.735  29.636  0.00  0.00     0.075 H 
ATOM     30  C14 MOL d          48.813  34.829  28.322  0.00  0.00     0.082 C 
ATOM     31  H28 MOL d          49.839  33.198  27.689  0.00  0.00     0.277 HD
ATOM     32  H29 MOL d          50.289  33.732  29.179  0.00  0.00     0.277 HD
ATOM     33  C11 MOL d          47.715  35.254  29.337  0.00  0.00    -0.034 C 
ATOM     34  H30 MOL d          48.340  34.762  27.331  0.00  0.00     0.075 H 
ATOM     35  H31 MOL d          49.578  35.620  28.311  0.00  0.00     0.075 H 
ATOM     36  H32 MOL d          48.197  35.643  30.247  0.00  0.00     0.036 H 
ATOM     37  H33 MOL d          47.093  36.042  28.887  0.00  0.00     0.036 H 
ATOM     38  H23 MOL d          46.371  33.659  28.787  0.00  0.00     0.050 H 
ENDBRANCH  17  22
ENDBRANCH   5  10
BRANCH   4  39
ATOM     39  C21 MOL d          39.782  32.987  30.639  0.00  0.00    -0.050 C 
ATOM     40  H16 MOL d          38.741  33.053  30.288  0.00  0.00     0.033 H 
ATOM     41  H17 MOL d          40.410  32.562  29.842  0.00  0.00     0.033 H 
ATOM     42  H18 MOL d          40.146  33.992  30.898  0.00  0.00     0.033 H 
ENDBRANCH   4  39
BRANCH   1  43
ATOM     43  C22 MOL d          40.069  29.591  35.348  0.00  0.00     0.256 C 
ATOM     44  O25 MOL d          40.958  29.870  36.147  0.00  0.00    -0.267 OA
ATOM     45  N24 MOL d          39.157  28.603  35.583  0.00  0.00    -0.323 N 
ATOM     46  H1  MOL d          38.445  28.462  34.895  0.00  0.00     0.169 HD
BRANCH  45  47
ATOM     47  C26 MOL d          39.136  27.770  36.708  0.00  0.00     0.037 A 
ATOM     48  C27 MOL d          39.453  28.187  38.036  0.00  0.00    -0.032 A 
ATOM     49  C29 MOL d          39.434  27.302  39.145  0.00  0.00     0.032 A 
ATOM     50  H2  MOL d          39.720  29.224  38.204  0.00  0.00     0.090 H 
ATOM     51  C32 MOL d          39.077  25.961  38.865  0.00  0.00    -0.057 A 
ATOM     52  C30 MOL d          38.755  25.540  37.569  0.00  0.00    -0.079 A 
ATOM     53  H3  MOL d          39.053  25.242  39.676  0.00  0.00     0.086 H 
ATOM     54  C28 MOL d          38.787  26.439  36.495  0.00  0.00    -0.057 A 
ATOM     55  H4  MOL d          38.478  24.506  37.395  0.00  0.00     0.083 H 
ATOM     56  H5  MOL d          38.539  26.099  35.496  0.00  0.00     0.086 H 
BRANCH  49  57
ATOM     57  N31 MOL d          39.811  27.714  40.441  0.00  0.00    -0.377 N 
ATOM     58  C33 MOL d          40.491  29.027  40.602  0.00  0.00     0.015 C 
ATOM     59  C35 MOL d          40.420  29.613  42.026  0.00  0.00     0.034 C 
ATOM     60  H6  MOL d          40.022  29.743  39.911  0.00  0.00     0.067 H 
ATOM     61  H7  MOL d          41.551  28.899  40.335  0.00  0.00     0.067 H 
ATOM     62  O37 MOL d          40.759  28.585  42.926  0.00  0.00    -0.388 OA
ATOM     63  H8  MOL d          39.401  29.972  42.234  0.00  0.00     0.076 H 
ATOM     64  H9  MOL d          41.129  30.448  42.125  0.00  0.00     0.076 H 
ATOM     65  C36 MOL d          39.769  27.575  42.989  0.00  0.00     0.034 C 
ATOM     66  C34 MOL d          39.660  26.828  41.640  0.00  0.00     0.015 C 
ATOM     67  H10 MOL d          38.799  28.036  43.226  0.00  0.00     0.076 H 
ATOM     68  H11 MOL d          40.037  26.857  43.779  0.00  0.00     0.076 H 
ATOM     69  H12 MOL d          40.447  26.061  41.604  0.00  0.00     0.067 H 
ATOM     70  H13 MOL d          38.674  26.344  41.591  0.00  0.00     0.067 H 
ENDBRANCH  49  57
ENDBRANCH  45  47
ENDBRANCH   1  43
TORSDOF 6
ENDMDL
