MODEL 1
REMARK VINA RESULT:     -11.9      0.000      0.000
REMARK  6 active torsions:
REMARK  status: ('A' for Active; 'I' for Inactive)
REMARK       I    between atoms: C22_2  and  N24_3 
REMARK    1  A    between atoms: C22_2  and  C19_16 
REMARK    2  A    between atoms: N24_3  and  C26_4 
REMARK    3  A    between atoms: C29_6  and  N31_10 
REMARK    4  A    between atoms: C18_19  and  C21_20 
REMARK    5  A    between atoms: C15_21  and  C12_23 
REMARK    6  A    between atoms: C2_30  and  C5_32 
ROOT
ATOM      1  C19 MOL d          39.851  30.575  33.725  0.00  0.00     0.033 A 
ATOM      2  C23 MOL d          38.695  31.037  33.082  0.00  0.00    -0.067 A 
ATOM      3  C20 MOL d          38.805  31.775  31.901  0.00  0.00    -0.075 A 
ATOM      4  C18 MOL d          40.055  32.058  31.350  0.00  0.00    -0.051 A 
ATOM      5  C15 MOL d          41.200  31.597  32.004  0.00  0.00    -0.019 A 
ATOM      6  C17 MOL d          41.110  30.871  33.175  0.00  0.00    -0.057 A 
ATOM      7  H14 MOL d          37.717  30.823  33.500  0.00  0.00     0.085 H 
ATOM      8  H15 MOL d          37.908  32.133  31.408  0.00  0.00     0.084 H 
ATOM      9  H19 MOL d          42.011  30.528  33.670  0.00  0.00     0.086 H 
ENDROOT
BRANCH   5  10
ATOM     10  C12 MOL d          42.524  31.885  31.428  0.00  0.00    -0.023 A 
ATOM     11  C9  MOL d          43.046  33.172  31.547  0.00  0.00    -0.071 A 
ATOM     12  C4  MOL d          44.311  33.450  31.026  0.00  0.00    -0.067 A 
ATOM     13  H20 MOL d          42.474  33.950  32.041  0.00  0.00     0.084 H 
ATOM     14  C1  MOL d          45.026  32.409  30.388  0.00  0.00     0.027 A 
ATOM     15  H21 MOL d          44.737  34.443  31.108  0.00  0.00     0.085 H 
ATOM     16  C3  MOL d          44.484  31.157  30.289  0.00  0.00     0.114 A 
ATOM     17  C2  MOL d          46.286  32.397  29.783  0.00  0.00     0.079 A 
ATOM     18  O8  MOL d          45.385  30.368  29.635  0.00  0.00    -0.212 OA
ATOM     19  C7  MOL d          43.250  30.871  30.802  0.00  0.00    -0.037 A 
ATOM     20  N6  MOL d          46.447  31.108  29.342  0.00  0.00    -0.131 NA
ATOM     21  H22 MOL d          42.840  29.871  30.723  0.00  0.00     0.089 H 
BRANCH  17  22
ATOM     22  C5  MOL d          47.253  33.549  29.627  0.00  0.00    -0.006 C 
ATOM     23  C10 MOL d          47.766  34.063  30.994  0.00  0.00    -0.034 C 
ATOM     24  C13 MOL d          48.958  34.994  30.777  0.00  0.00     0.082 C 
ATOM     25  H24 MOL d          48.076  33.210  31.614  0.00  0.00     0.036 H 
ATOM     26  H25 MOL d          46.960  34.613  31.504  0.00  0.00     0.036 H 
ATOM     27  N16 MOL d          48.630  36.149  29.926  0.00  0.00    -0.075 N 
ATOM     28  H26 MOL d          49.767  34.423  30.298  0.00  0.00     0.075 H 
ATOM     29  H27 MOL d          49.298  35.363  31.756  0.00  0.00     0.075 H 
ATOM     30  C14 MOL d          47.757  35.890  28.758  0.00  0.00     0.082 C 
ATOM     31  H28 MOL d          49.497  36.529  29.581  0.00  0.00     0.277 HD
ATOM     32  H29 MOL d          48.171  36.834  30.505  0.00  0.00     0.277 HD
ATOM     33  C11 MOL d          46.674  34.786  28.915  0.00  0.00    -0.034 C 
ATOM     34  H30 MOL d          48.405  35.601  27.917  0.00  0.00     0.075 H 
ATOM     35  H31 MOL d          47.239  36.830  28.516  0.00  0.00     0.075 H 
ATOM     36  H32 MOL d          45.836  35.184  29.507  0.00  0.00     0.036 H 
ATOM     37  H33 MOL d          46.311  34.491  27.919  0.00  0.00     0.036 H 
ATOM     38  H23 MOL d          48.108  33.179  29.041  0.00  0.00     0.050 H 
ENDBRANCH  17  22
ENDBRANCH   5  10
BRANCH   4  39
ATOM     39  C21 MOL d          40.145  32.861  30.056  0.00  0.00    -0.050 C 
ATOM     40  H16 MOL d          39.145  32.943  29.604  0.00  0.00     0.033 H 
ATOM     41  H17 MOL d          40.823  32.352  29.355  0.00  0.00     0.033 H 
ATOM     42  H18 MOL d          40.531  33.868  30.275  0.00  0.00     0.033 H 
ENDBRANCH   4  39
BRANCH   1  43
ATOM     43  C22 MOL d          39.841  29.816  34.998  0.00  0.00     0.256 C 
ATOM     44  O25 MOL d          40.036  30.433  36.042  0.00  0.00    -0.267 OA
ATOM     45  N24 MOL d          39.533  28.487  34.980  0.00  0.00    -0.323 N 
ATOM     46  H1  MOL d          39.357  28.069  34.089  0.00  0.00     0.169 HD
BRANCH  45  47
ATOM     47  C26 MOL d          39.443  27.661  36.106  0.00  0.00     0.037 A 
ATOM     48  C27 MOL d          39.585  28.104  37.455  0.00  0.00    -0.032 A 
ATOM     49  C29 MOL d          39.502  27.224  38.566  0.00  0.00     0.032 A 
ATOM     50  H2  MOL d          39.766  29.156  37.640  0.00  0.00     0.090 H 
ATOM     51  C32 MOL d          39.264  25.861  38.266  0.00  0.00    -0.057 A 
ATOM     52  C30 MOL d          39.113  25.414  36.947  0.00  0.00    -0.079 A 
ATOM     53  H3  MOL d          39.198  25.146  39.077  0.00  0.00     0.086 H 
ATOM     54  C28 MOL d          39.205  26.309  35.872  0.00  0.00    -0.057 A 
ATOM     55  H4  MOL d          38.924  24.364  36.756  0.00  0.00     0.083 H 
ATOM     56  H5  MOL d          39.090  25.948  34.857  0.00  0.00     0.086 H 
BRANCH  49  57
ATOM     57  N31 MOL d          39.708  27.666  39.891  0.00  0.00    -0.377 N 
ATOM     58  C33 MOL d          39.604  29.121  40.181  0.00  0.00     0.015 C 
ATOM     59  C35 MOL d          39.349  29.461  41.663  0.00  0.00     0.034 C 
ATOM     60  H6  MOL d          38.775  29.532  39.586  0.00  0.00     0.067 H 
ATOM     61  H7  MOL d          40.547  29.600  39.876  0.00  0.00     0.067 H 
ATOM     62  O37 MOL d          40.250  28.702  42.433  0.00  0.00    -0.388 OA
ATOM     63  H8  MOL d          38.315  29.204  41.935  0.00  0.00     0.076 H 
ATOM     64  H9  MOL d          39.518  30.534  41.837  0.00  0.00     0.076 H 
ATOM     65  C36 MOL d          39.951  27.319  42.408  0.00  0.00     0.034 C 
ATOM     66  C34 MOL d          40.143  26.741  40.987  0.00  0.00     0.015 C 
ATOM     67  H10 MOL d          38.906  27.171  42.718  0.00  0.00     0.076 H 
ATOM     68  H11 MOL d          40.618  26.791  43.105  0.00  0.00     0.076 H 
ATOM     69  H12 MOL d          41.211  26.517  40.846  0.00  0.00     0.067 H 
ATOM     70  H13 MOL d          39.559  25.813  40.908  0.00  0.00     0.067 H 
ENDBRANCH  49  57
ENDBRANCH  45  47
ENDBRANCH   1  43
TORSDOF 6
ENDMDL
MODEL 2
REMARK VINA RESULT:     -11.6      1.449      1.988
REMARK  6 active torsions:
REMARK  status: ('A' for Active; 'I' for Inactive)
REMARK       I    between atoms: C22_2  and  N24_3 
REMARK    1  A    between atoms: C22_2  and  C19_16 
REMARK    2  A    between atoms: N24_3  and  C26_4 
REMARK    3  A    between atoms: C29_6  and  N31_10 
REMARK    4  A    between atoms: C18_19  and  C21_20 
REMARK    5  A    between atoms: C15_21  and  C12_23 
REMARK    6  A    between atoms: C2_30  and  C5_32 
ROOT
ATOM      1  C19 MOL d          39.706  30.553  33.819  0.00  0.00     0.033 A 
ATOM      2  C23 MOL d          38.562  30.767  33.038  0.00  0.00    -0.067 A 
ATOM      3  C20 MOL d          38.637  31.583  31.906  0.00  0.00    -0.075 A 
ATOM      4  C18 MOL d          39.840  32.187  31.541  0.00  0.00    -0.051 A 
ATOM      5  C15 MOL d          40.971  31.972  32.332  0.00  0.00    -0.019 A 
ATOM      6  C17 MOL d          40.914  31.172  33.456  0.00  0.00    -0.057 A 
ATOM      7  H14 MOL d          37.622  30.301  33.311  0.00  0.00     0.085 H 
ATOM      8  H15 MOL d          37.750  31.748  31.305  0.00  0.00     0.084 H 
ATOM      9  H19 MOL d          41.801  31.023  34.060  0.00  0.00     0.086 H 
ENDROOT
BRANCH   5  10
ATOM     10  C12 MOL d          42.247  32.601  31.952  0.00  0.00    -0.023 A 
ATOM     11  C9  MOL d          43.177  31.856  31.228  0.00  0.00    -0.071 A 
ATOM     12  C4  MOL d          44.380  32.450  30.841  0.00  0.00    -0.067 A 
ATOM     13  H20 MOL d          42.967  30.824  30.969  0.00  0.00     0.084 H 
ATOM     14  C1  MOL d          44.617  33.798  31.199  0.00  0.00     0.027 A 
ATOM     15  H21 MOL d          45.117  31.889  30.278  0.00  0.00     0.085 H 
ATOM     16  C3  MOL d          43.682  34.500  31.908  0.00  0.00     0.114 A 
ATOM     17  C2  MOL d          45.710  34.634  30.956  0.00  0.00     0.079 A 
ATOM     18  O8  MOL d          44.175  35.757  32.108  0.00  0.00    -0.212 OA
ATOM     19  C7  MOL d          42.498  33.931  32.287  0.00  0.00    -0.037 A 
ATOM     20  N6  MOL d          45.371  35.827  31.540  0.00  0.00    -0.131 NA
ATOM     21  H22 MOL d          41.764  34.506  32.840  0.00  0.00     0.089 H 
BRANCH  17  22
ATOM     22  C5  MOL d          46.993  34.298  30.228  0.00  0.00    -0.006 C 
ATOM     23  C10 MOL d          47.136  35.095  28.909  0.00  0.00    -0.034 C 
ATOM     24  C13 MOL d          48.564  34.964  28.383  0.00  0.00     0.082 C 
ATOM     25  H24 MOL d          46.911  36.156  29.096  0.00  0.00     0.036 H 
ATOM     26  H25 MOL d          46.433  34.698  28.162  0.00  0.00     0.036 H 
ATOM     27  N16 MOL d          48.954  33.566  28.138  0.00  0.00    -0.075 N 
ATOM     28  H26 MOL d          49.253  35.396  29.123  0.00  0.00     0.075 H 
ATOM     29  H27 MOL d          48.644  35.521  27.438  0.00  0.00     0.075 H 
ATOM     30  C14 MOL d          48.509  32.566  29.137  0.00  0.00     0.082 C 
ATOM     31  H28 MOL d          49.960  33.532  28.100  0.00  0.00     0.277 HD
ATOM     32  H29 MOL d          48.575  33.295  27.245  0.00  0.00     0.277 HD
ATOM     33  C11 MOL d          47.140  32.818  29.829  0.00  0.00    -0.034 C 
ATOM     34  H30 MOL d          49.276  32.521  29.925  0.00  0.00     0.075 H 
ATOM     35  H31 MOL d          48.449  31.593  28.627  0.00  0.00     0.075 H 
ATOM     36  H32 MOL d          46.330  32.548  29.135  0.00  0.00     0.036 H 
ATOM     37  H33 MOL d          47.072  32.193  30.732  0.00  0.00     0.036 H 
ATOM     38  H23 MOL d          47.826  34.562  30.898  0.00  0.00     0.050 H 
ENDBRANCH  17  22
ENDBRANCH   5  10
BRANCH   4  39
ATOM     39  C21 MOL d          39.895  33.069  30.296  0.00  0.00    -0.050 C 
ATOM     40  H16 MOL d          39.833  32.438  29.397  0.00  0.00     0.033 H 
ATOM     41  H17 MOL d          40.840  33.631  30.286  0.00  0.00     0.033 H 
ATOM     42  H18 MOL d          39.049  33.773  30.309  0.00  0.00     0.033 H 
ENDBRANCH   4  39
BRANCH   1  43
ATOM     43  C22 MOL d          39.721  29.735  35.055  0.00  0.00     0.256 C 
ATOM     44  O25 MOL d          39.910  30.306  36.125  0.00  0.00    -0.267 OA
ATOM     45  N24 MOL d          39.440  28.401  34.976  0.00  0.00    -0.323 N 
ATOM     46  H1  MOL d          39.267  28.022  34.067  0.00  0.00     0.169 HD
BRANCH  45  47
ATOM     47  C26 MOL d          39.375  27.521  36.062  0.00  0.00     0.037 A 
ATOM     48  C27 MOL d          39.505  27.905  37.430  0.00  0.00    -0.032 A 
ATOM     49  C29 MOL d          39.448  26.972  38.499  0.00  0.00     0.032 A 
ATOM     50  H2  MOL d          39.654  28.952  37.664  0.00  0.00     0.090 H 
ATOM     51  C32 MOL d          39.251  25.619  38.135  0.00  0.00    -0.057 A 
ATOM     52  C30 MOL d          39.112  25.229  36.797  0.00  0.00    -0.079 A 
ATOM     53  H3  MOL d          39.206  24.865  38.912  0.00  0.00     0.086 H 
ATOM     54  C28 MOL d          39.176  26.175  35.765  0.00  0.00    -0.057 A 
ATOM     55  H4  MOL d          38.953  24.184  36.557  0.00  0.00     0.083 H 
ATOM     56  H5  MOL d          39.072  25.859  34.734  0.00  0.00     0.086 H 
BRANCH  49  57
ATOM     57  N31 MOL d          39.642  27.358  39.843  0.00  0.00    -0.377 N 
ATOM     58  C33 MOL d          39.536  28.799  40.193  0.00  0.00     0.015 C 
ATOM     59  C35 MOL d          39.268  29.076  41.686  0.00  0.00     0.034 C 
ATOM     60  H6  MOL d          38.713  29.235  39.608  0.00  0.00     0.067 H 
ATOM     61  H7  MOL d          40.482  29.289  39.917  0.00  0.00     0.067 H 
ATOM     62  O37 MOL d          40.161  28.285  42.432  0.00  0.00    -0.388 OA
ATOM     63  H8  MOL d          38.230  28.809  41.937  0.00  0.00     0.076 H 
ATOM     64  H9  MOL d          39.435  30.141  41.906  0.00  0.00     0.076 H 
ATOM     65  C36 MOL d          39.861  26.904  42.345  0.00  0.00     0.034 C 
ATOM     66  C34 MOL d          40.066  26.387  40.903  0.00  0.00     0.015 C 
ATOM     67  H10 MOL d          38.813  26.744  42.639  0.00  0.00     0.076 H 
ATOM     68  H11 MOL d          40.522  26.348  43.026  0.00  0.00     0.076 H 
ATOM     69  H12 MOL d          41.135  26.168  40.762  0.00  0.00     0.067 H 
ATOM     70  H13 MOL d          39.483  25.463  40.780  0.00  0.00     0.067 H 
ENDBRANCH  49  57
ENDBRANCH  45  47
ENDBRANCH   1  43
TORSDOF 6
ENDMDL
MODEL 3
REMARK VINA RESULT:     -10.0      2.882     10.889
REMARK  6 active torsions:
REMARK  status: ('A' for Active; 'I' for Inactive)
REMARK       I    between atoms: C22_2  and  N24_3 
REMARK    1  A    between atoms: C22_2  and  C19_16 
REMARK    2  A    between atoms: N24_3  and  C26_4 
REMARK    3  A    between atoms: C29_6  and  N31_10 
REMARK    4  A    between atoms: C18_19  and  C21_20 
REMARK    5  A    between atoms: C15_21  and  C12_23 
REMARK    6  A    between atoms: C2_30  and  C5_32 
ROOT
ATOM      1  C19 MOL d          41.827  31.706  31.430  0.00  0.00     0.033 A 
ATOM      2  C23 MOL d          40.725  32.324  30.824  0.00  0.00    -0.067 A 
ATOM      3  C20 MOL d          39.469  32.254  31.432  0.00  0.00    -0.075 A 
ATOM      4  C18 MOL d          39.297  31.577  32.640  0.00  0.00    -0.051 A 
ATOM      5  C15 MOL d          40.403  30.959  33.230  0.00  0.00    -0.019 A 
ATOM      6  C17 MOL d          41.650  31.014  32.640  0.00  0.00    -0.057 A 
ATOM      7  H14 MOL d          40.846  32.854  29.886  0.00  0.00     0.085 H 
ATOM      8  H15 MOL d          38.617  32.731  30.959  0.00  0.00     0.084 H 
ATOM      9  H19 MOL d          42.494  30.523  33.111  0.00  0.00     0.086 H 
ENDROOT
BRANCH   5  10
ATOM     10  C12 MOL d          40.234  30.247  34.507  0.00  0.00    -0.023 A 
ATOM     11  C9  MOL d          40.715  30.835  35.675  0.00  0.00    -0.071 A 
ATOM     12  C4  MOL d          40.539  30.180  36.896  0.00  0.00    -0.067 A 
ATOM     13  H20 MOL d          41.222  31.793  35.636  0.00  0.00     0.084 H 
ATOM     14  C1  MOL d          39.873  28.932  36.906  0.00  0.00     0.027 A 
ATOM     15  H21 MOL d          40.905  30.620  37.817  0.00  0.00     0.085 H 
ATOM     16  C3  MOL d          39.412  28.384  35.741  0.00  0.00     0.114 A 
ATOM     17  C2  MOL d          39.563  28.065  37.958  0.00  0.00     0.079 A 
ATOM     18  O8  MOL d          38.820  27.194  36.051  0.00  0.00    -0.212 OA
ATOM     19  C7  MOL d          39.573  29.019  34.541  0.00  0.00    -0.037 A 
ATOM     20  N6  MOL d          38.912  27.016  37.362  0.00  0.00    -0.131 NA
ATOM     21  H22 MOL d          39.192  28.575  33.629  0.00  0.00     0.089 H 
BRANCH  17  22
ATOM     22  C5  MOL d          39.887  28.232  39.426  0.00  0.00    -0.006 C 
ATOM     23  C10 MOL d          39.564  26.954  40.238  0.00  0.00    -0.034 C 
ATOM     24  C13 MOL d          40.193  27.058  41.627  0.00  0.00     0.082 C 
ATOM     25  H24 MOL d          39.970  26.076  39.717  0.00  0.00     0.036 H 
ATOM     26  H25 MOL d          38.473  26.849  40.338  0.00  0.00     0.036 H 
ATOM     27  N16 MOL d          39.723  28.232  42.379  0.00  0.00    -0.075 N 
ATOM     28  H26 MOL d          41.285  27.127  41.514  0.00  0.00     0.075 H 
ATOM     29  H27 MOL d          39.940  26.151  42.196  0.00  0.00     0.075 H 
ATOM     30  C14 MOL d          39.564  29.491  41.616  0.00  0.00     0.082 C 
ATOM     31  H28 MOL d          40.384  28.405  43.119  0.00  0.00     0.277 HD
ATOM     32  H29 MOL d          38.826  28.000  42.776  0.00  0.00     0.277 HD
ATOM     33  C11 MOL d          39.124  29.369  40.130  0.00  0.00    -0.034 C 
ATOM     34  H30 MOL d          40.533  30.013  41.633  0.00  0.00     0.075 H 
ATOM     35  H31 MOL d          38.810  30.101  42.135  0.00  0.00     0.075 H 
ATOM     36  H32 MOL d          38.045  29.159  40.090  0.00  0.00     0.036 H 
ATOM     37  H33 MOL d          39.332  30.317  39.612  0.00  0.00     0.036 H 
ATOM     38  H23 MOL d          40.965  28.439  39.499  0.00  0.00     0.050 H 
ENDBRANCH  17  22
ENDBRANCH   5  10
BRANCH   4  39
ATOM     39  C21 MOL d          37.915  31.521  33.284  0.00  0.00    -0.050 C 
ATOM     40  H16 MOL d          37.144  31.635  32.508  0.00  0.00     0.033 H 
ATOM     41  H17 MOL d          37.821  32.335  34.018  0.00  0.00     0.033 H 
ATOM     42  H18 MOL d          37.786  30.553  33.791  0.00  0.00     0.033 H 
ENDBRANCH   4  39
BRANCH   1  43
ATOM     43  C22 MOL d          43.190  31.693  30.847  0.00  0.00     0.256 C 
ATOM     44  O25 MOL d          43.801  32.756  30.777  0.00  0.00    -0.267 OA
ATOM     45  N24 MOL d          43.751  30.502  30.490  0.00  0.00    -0.323 N 
ATOM     46  H1  MOL d          43.195  29.679  30.608  0.00  0.00     0.169 HD
BRANCH  45  47
ATOM     47  C26 MOL d          45.041  30.336  29.972  0.00  0.00     0.037 A 
ATOM     48  C27 MOL d          45.662  29.076  29.721  0.00  0.00    -0.032 A 
ATOM     49  C29 MOL d          46.981  28.958  29.210  0.00  0.00     0.032 A 
ATOM     50  H2  MOL d          45.104  28.171  29.931  0.00  0.00     0.090 H 
ATOM     51  C32 MOL d          47.662  30.172  28.955  0.00  0.00    -0.057 A 
ATOM     52  C30 MOL d          47.061  31.415  29.187  0.00  0.00    -0.079 A 
ATOM     53  H3  MOL d          48.674  30.138  28.569  0.00  0.00     0.086 H 
ATOM     54  C28 MOL d          45.758  31.498  29.696  0.00  0.00    -0.057 A 
ATOM     55  H4  MOL d          47.611  32.325  28.971  0.00  0.00     0.083 H 
ATOM     56  H5  MOL d          45.307  32.467  29.875  0.00  0.00     0.086 H 
BRANCH  49  57
ATOM     57  N31 MOL d          47.605  27.704  29.026  0.00  0.00    -0.377 N 
ATOM     58  C33 MOL d          47.702  26.780  30.187  0.00  0.00     0.015 C 
ATOM     59  C35 MOL d          47.927  25.302  29.810  0.00  0.00     0.034 C 
ATOM     60  H6  MOL d          46.766  26.850  30.761  0.00  0.00     0.067 H 
ATOM     61  H7  MOL d          48.544  27.106  30.816  0.00  0.00     0.067 H 
ATOM     62  O37 MOL d          48.958  25.261  28.852  0.00  0.00    -0.388 OA
ATOM     63  H8  MOL d          47.005  24.878  29.387  0.00  0.00     0.076 H 
ATOM     64  H9  MOL d          48.220  24.728  30.701  0.00  0.00     0.076 H 
ATOM     65  C36 MOL d          48.562  25.810  27.609  0.00  0.00     0.034 C 
ATOM     66  C34 MOL d          48.278  27.324  27.743  0.00  0.00     0.015 C 
ATOM     67  H10 MOL d          47.649  25.301  27.265  0.00  0.00     0.076 H 
ATOM     68  H11 MOL d          49.366  25.657  26.874  0.00  0.00     0.076 H 
ATOM     69  H12 MOL d          49.235  27.863  27.680  0.00  0.00     0.067 H 
ATOM     70  H13 MOL d          47.630  27.629  26.908  0.00  0.00     0.067 H 
ENDBRANCH  49  57
ENDBRANCH  45  47
ENDBRANCH   1  43
TORSDOF 6
ENDMDL
