MODEL 1
REMARK VINA RESULT:      -7.9      0.000      0.000
REMARK  8 active torsions:
REMARK  status: ('A' for Active; 'I' for Inactive)
REMARK    1  A    between atoms: N1_2  and  C2_4 
REMARK       I    between atoms: C10_18  and  N1_2 
REMARK    2  A    between atoms: N3_8  and  N2_5 
REMARK       I    between atoms: N2_5  and  C10_18 
REMARK       I    between atoms: C12_20  and  N3_8 
REMARK    3  A    between atoms: C16_24  and  N4_11 
REMARK    4  A    between atoms: C13_21  and  C12_20 
REMARK    5  A    between atoms: C18_26  and  C19_27 
REMARK    6  A    between atoms: C19_27  and  C20_28 
REMARK    7  A    between atoms: C19_27  and  C21_29 
REMARK    8  A    between atoms: C19_27  and  C22_30 
ROOT
ATOM      1  O2  AGY d          29.963  -5.678  19.137  0.00  0.00    -0.266 OA
ATOM      2  N3  AGY d          29.243  -3.622  18.581  0.00  0.00    -0.262 N 
ATOM      3  C12 AGY d          29.339  -4.650  19.468  0.00  0.00     0.270 C 
ATOM      4  H3  AGY d          28.753  -2.777  18.794  0.00  0.00     0.190 HD
ENDROOT
BRANCH   3   5
ATOM      5  C13 AGY d          28.713  -4.553  20.785  0.00  0.00     0.036 A 
ATOM      6  C14 AGY d          29.206  -5.339  21.847  0.00  0.00    -0.035 A 
ATOM      7  C16 AGY d          28.636  -5.279  23.159  0.00  0.00     0.111 A 
ATOM      8  H11 AGY d          30.040  -6.008  21.665  0.00  0.00     0.088 H 
ATOM      9  C18 AGY d          27.496  -4.388  23.447  0.00  0.00    -0.018 A 
ATOM     10  C17 AGY d          27.001  -3.578  22.319  0.00  0.00    -0.073 A 
ATOM     11  C15 AGY d          27.612  -3.672  21.014  0.00  0.00    -0.067 A 
ATOM     12  H13 AGY d          26.167  -2.902  22.472  0.00  0.00     0.084 H 
ATOM     13  H12 AGY d          27.231  -3.068  20.199  0.00  0.00     0.085 H 
BRANCH   7  14
ATOM     14  N4  AGY d          29.188  -6.018  24.106  0.00  0.00    -0.115 N 
ATOM     15  O3  AGY d          28.638  -7.153  24.431  0.00  0.00    -0.532 OA
ATOM     16  O4  AGY d          30.339  -5.582  24.752  0.00  0.00    -0.532 OA
ENDBRANCH   7  14
BRANCH   9  17
ATOM     17  C19 AGY d          26.805  -4.245  24.825  0.00  0.00    -0.022 C 
BRANCH  17  18
ATOM     18  C20 AGY d          25.897  -5.441  25.201  0.00  0.00    -0.066 C 
ATOM     19  H14 AGY d          25.013  -5.450  24.546  0.00  0.00     0.028 H 
ATOM     20  H15 AGY d          25.576  -5.343  26.248  0.00  0.00     0.028 H 
ATOM     21  H16 AGY d          26.457  -6.380  25.074  0.00  0.00     0.028 H 
ENDBRANCH  17  18
BRANCH  17  22
ATOM     22  C21 AGY d          27.653  -4.209  26.153  0.00  0.00    -0.066 C 
ATOM     23  H17 AGY d          27.826  -5.236  26.505  0.00  0.00     0.028 H 
ATOM     24  H18 AGY d          27.106  -3.645  26.922  0.00  0.00     0.028 H 
ATOM     25  H19 AGY d          28.619  -3.721  25.958  0.00  0.00     0.028 H 
ENDBRANCH  17  22
BRANCH  17  26
ATOM     26  C22 AGY d          26.049  -2.902  24.803  0.00  0.00    -0.066 C 
ATOM     27  H20 AGY d          26.622  -2.168  24.217  0.00  0.00     0.028 H 
ATOM     28  H21 AGY d          25.926  -2.533  25.832  0.00  0.00     0.028 H 
ATOM     29  H22 AGY d          25.059  -3.046  24.344  0.00  0.00     0.028 H 
ENDBRANCH  17  26
ENDBRANCH   9  17
ENDBRANCH   3   5
BRANCH   2  30
ATOM     30  N2  AGY d          29.895  -3.834  17.320  0.00  0.00    -0.248 N 
ATOM     31  C10 AGY d          31.019  -3.169  16.936  0.00  0.00     0.339 C 
ATOM     32  N1  AGY d          31.602  -2.245  17.754  0.00  0.00    -0.307 N 
ATOM     33  O1  AGY d          31.488  -3.438  15.822  0.00  0.00    -0.245 OA
ATOM     34  H1  AGY d          31.143  -2.112  18.632  0.00  0.00     0.170 HD
ATOM     35  H2  AGY d          29.503  -4.505  16.691  0.00  0.00     0.192 HD
BRANCH  32  36
ATOM     36  C2  AGY d          32.734  -1.456  17.560  0.00  0.00     0.047 A 
ATOM     37  C1  AGY d          34.101  -1.956  17.594  0.00  0.00     0.001 A 
ATOM     38  C3  AGY d          35.247  -1.021  17.372  0.00  0.00    -0.024 A 
ATOM     39  C4  AGY d          34.378  -3.353  17.842  0.00  0.00    -0.070 A 
ATOM     40  C6  AGY d          35.014   0.380  17.123  0.00  0.00    -0.072 A 
ATOM     41  C7  AGY d          36.585  -1.517  17.406  0.00  0.00    -0.072 A 
ATOM     42  C9  AGY d          33.642   0.878  17.089  0.00  0.00    -0.080 A 
ATOM     43  H6  AGY d          35.846   1.055  16.962  0.00  0.00     0.084 H 
ATOM     44  C5  AGY d          32.526  -0.033  17.306  0.00  0.00    -0.056 A 
ATOM     45  H9  AGY d          33.453   1.928  16.903  0.00  0.00     0.083 H 
ATOM     46  H5  AGY d          31.515   0.356  17.278  0.00  0.00     0.086 H 
ATOM     47  C11 AGY d          36.840  -2.922  17.657  0.00  0.00    -0.082 A 
ATOM     48  H7  AGY d          37.415  -0.839  17.245  0.00  0.00     0.084 H 
ATOM     49  C8  AGY d          35.740  -3.835  17.874  0.00  0.00    -0.082 A 
ATOM     50  H10 AGY d          37.860  -3.290  17.683  0.00  0.00     0.083 H 
ATOM     51  H8  AGY d          35.937  -4.885  18.060  0.00  0.00     0.083 H 
ATOM     52  H4  AGY d          33.559  -4.043  18.005  0.00  0.00     0.084 H 
ENDBRANCH  32  36
ENDBRANCH   2  30
TORSDOF 8
ENDMDL
MODEL 2
REMARK VINA RESULT:      -7.4      1.606      2.033
REMARK  8 active torsions:
REMARK  status: ('A' for Active; 'I' for Inactive)
REMARK    1  A    between atoms: N1_2  and  C2_4 
REMARK       I    between atoms: C10_18  and  N1_2 
REMARK    2  A    between atoms: N3_8  and  N2_5 
REMARK       I    between atoms: N2_5  and  C10_18 
REMARK       I    between atoms: C12_20  and  N3_8 
REMARK    3  A    between atoms: C16_24  and  N4_11 
REMARK    4  A    between atoms: C13_21  and  C12_20 
REMARK    5  A    between atoms: C18_26  and  C19_27 
REMARK    6  A    between atoms: C19_27  and  C20_28 
REMARK    7  A    between atoms: C19_27  and  C21_29 
REMARK    8  A    between atoms: C19_27  and  C22_30 
ROOT
ATOM      1  O2  AGY d          30.041  -5.739  19.147  0.00  0.00    -0.266 OA
ATOM      2  N3  AGY d          29.320  -3.624  18.900  0.00  0.00    -0.262 N 
ATOM      3  C12 AGY d          29.510  -4.735  19.662  0.00  0.00     0.270 C 
ATOM      4  H3  AGY d          28.897  -2.794  19.263  0.00  0.00     0.190 HD
ENDROOT
BRANCH   3   5
ATOM      5  C13 AGY d          29.091  -4.754  21.062  0.00  0.00     0.036 A 
ATOM      6  C14 AGY d          27.811  -4.276  21.410  0.00  0.00    -0.035 A 
ATOM      7  C16 AGY d          27.347  -4.277  22.765  0.00  0.00     0.111 A 
ATOM      8  H11 AGY d          27.159  -3.897  20.630  0.00  0.00     0.088 H 
ATOM      9  C18 AGY d          28.204  -4.777  23.857  0.00  0.00    -0.018 A 
ATOM     10  C17 AGY d          29.537  -5.271  23.465  0.00  0.00    -0.073 A 
ATOM     11  C15 AGY d          29.958  -5.251  22.084  0.00  0.00    -0.067 A 
ATOM     12  H13 AGY d          30.210  -5.653  24.224  0.00  0.00     0.084 H 
ATOM     13  H12 AGY d          30.943  -5.617  21.819  0.00  0.00     0.085 H 
BRANCH   7  14
ATOM     14  N4  AGY d          26.117  -3.853  22.996  0.00  0.00    -0.115 N 
ATOM     15  O3  AGY d          25.140  -4.715  23.027  0.00  0.00    -0.532 OA
ATOM     16  O4  AGY d          25.869  -2.500  23.195  0.00  0.00    -0.532 OA
ENDBRANCH   7  14
BRANCH   9  17
ATOM     17  C19 AGY d          27.804  -4.825  25.352  0.00  0.00    -0.022 C 
BRANCH  17  18
ATOM     18  C20 AGY d          27.424  -3.446  25.945  0.00  0.00    -0.066 C 
ATOM     19  H14 AGY d          27.576  -3.461  27.034  0.00  0.00     0.028 H 
ATOM     20  H15 AGY d          26.368  -3.232  25.726  0.00  0.00     0.028 H 
ATOM     21  H16 AGY d          28.057  -2.667  25.495  0.00  0.00     0.028 H 
ENDBRANCH  17  18
BRANCH  17  22
ATOM     22  C21 AGY d          26.519  -5.608  25.818  0.00  0.00    -0.066 C 
ATOM     23  H17 AGY d          25.865  -4.933  26.389  0.00  0.00     0.028 H 
ATOM     24  H18 AGY d          26.816  -6.455  26.454  0.00  0.00     0.028 H 
ATOM     25  H19 AGY d          25.978  -5.982  24.937  0.00  0.00     0.028 H 
ENDBRANCH  17  22
BRANCH  17  26
ATOM     26  C22 AGY d          28.971  -5.498  26.100  0.00  0.00    -0.066 C 
ATOM     27  H20 AGY d          29.214  -4.914  27.001  0.00  0.00     0.028 H 
ATOM     28  H21 AGY d          29.852  -5.542  25.443  0.00  0.00     0.028 H 
ATOM     29  H22 AGY d          28.679  -6.518  26.392  0.00  0.00     0.028 H 
ENDBRANCH  17  26
ENDBRANCH   9  17
ENDBRANCH   3   5
BRANCH   2  30
ATOM     30  N2  AGY d          29.769  -3.726  17.540  0.00  0.00    -0.248 N 
ATOM     31  C10 AGY d          30.873  -3.088  17.066  0.00  0.00     0.339 C 
ATOM     32  N1  AGY d          31.633  -2.299  17.881  0.00  0.00    -0.307 N 
ATOM     33  O1  AGY d          31.158  -3.251  15.872  0.00  0.00    -0.245 OA
ATOM     34  H1  AGY d          31.315  -2.243  18.828  0.00  0.00     0.170 HD
ATOM     35  H2  AGY d          29.243  -4.295  16.909  0.00  0.00     0.192 HD
BRANCH  32  36
ATOM     36  C2  AGY d          32.782  -1.561  17.606  0.00  0.00     0.047 A 
ATOM     37  C1  AGY d          34.133  -2.104  17.620  0.00  0.00     0.001 A 
ATOM     38  C3  AGY d          35.298  -1.222  17.307  0.00  0.00    -0.024 A 
ATOM     39  C4  AGY d          34.374  -3.494  17.934  0.00  0.00    -0.070 A 
ATOM     40  C6  AGY d          35.101   0.172  16.991  0.00  0.00    -0.072 A 
ATOM     41  C7  AGY d          36.621  -1.759  17.323  0.00  0.00    -0.072 A 
ATOM     42  C9  AGY d          33.746   0.712  16.978  0.00  0.00    -0.080 A 
ATOM     43  H6  AGY d          35.948   0.809  16.765  0.00  0.00     0.084 H 
ATOM     44  C5  AGY d          32.610  -0.147  17.282  0.00  0.00    -0.056 A 
ATOM     45  H9  AGY d          33.584   1.757  16.740  0.00  0.00     0.083 H 
ATOM     46  H5  AGY d          31.611   0.273  17.268  0.00  0.00     0.086 H 
ATOM     47  C11 AGY d          36.840  -3.157  17.641  0.00  0.00    -0.082 A 
ATOM     48  H7  AGY d          37.465  -1.119  17.096  0.00  0.00     0.084 H 
ATOM     49  C8  AGY d          35.720  -4.019  17.944  0.00  0.00    -0.082 A 
ATOM     50  H10 AGY d          37.848  -3.557  17.651  0.00  0.00     0.083 H 
ATOM     51  H8  AGY d          35.890  -5.064  18.181  0.00  0.00     0.083 H 
ATOM     52  H4  AGY d          33.540  -4.146  18.163  0.00  0.00     0.084 H 
ENDBRANCH  32  36
ENDBRANCH   2  30
TORSDOF 8
ENDMDL
MODEL 3
REMARK VINA RESULT:      -6.9      1.043      2.361
REMARK  8 active torsions:
REMARK  status: ('A' for Active; 'I' for Inactive)
REMARK    1  A    between atoms: N1_2  and  C2_4 
REMARK       I    between atoms: C10_18  and  N1_2 
REMARK    2  A    between atoms: N3_8  and  N2_5 
REMARK       I    between atoms: N2_5  and  C10_18 
REMARK       I    between atoms: C12_20  and  N3_8 
REMARK    3  A    between atoms: C16_24  and  N4_11 
REMARK    4  A    between atoms: C13_21  and  C12_20 
REMARK    5  A    between atoms: C18_26  and  C19_27 
REMARK    6  A    between atoms: C19_27  and  C20_28 
REMARK    7  A    between atoms: C19_27  and  C21_29 
REMARK    8  A    between atoms: C19_27  and  C22_30 
ROOT
ATOM      1  O2  AGY d          29.036  -4.194  18.217  0.00  0.00    -0.266 OA
ATOM      2  N3  AGY d          30.572  -5.609  19.049  0.00  0.00    -0.262 N 
ATOM      3  C12 AGY d          29.498  -4.790  19.210  0.00  0.00     0.270 C 
ATOM      4  H3  AGY d          30.982  -6.108  19.812  0.00  0.00     0.190 HD
ENDROOT
BRANCH   3   5
ATOM      5  C13 AGY d          28.898  -4.605  20.530  0.00  0.00     0.036 A 
ATOM      6  C14 AGY d          29.373  -5.363  21.620  0.00  0.00    -0.035 A 
ATOM      7  C16 AGY d          28.827  -5.218  22.936  0.00  0.00     0.111 A 
ATOM      8  H11 AGY d          30.174  -6.076  21.458  0.00  0.00     0.088 H 
ATOM      9  C18 AGY d          27.731  -4.265  23.198  0.00  0.00    -0.018 A 
ATOM     10  C17 AGY d          27.255  -3.486  22.041  0.00  0.00    -0.073 A 
ATOM     11  C15 AGY d          27.840  -3.667  20.734  0.00  0.00    -0.067 A 
ATOM     12  H13 AGY d          26.453  -2.767  22.174  0.00  0.00     0.084 H 
ATOM     13  H12 AGY d          27.472  -3.084  19.897  0.00  0.00     0.085 H 
BRANCH   7  14
ATOM     14  N4  AGY d          29.361  -5.936  23.909  0.00  0.00    -0.115 N 
ATOM     15  O3  AGY d          30.476  -5.540  24.455  0.00  0.00    -0.532 OA
ATOM     16  O4  AGY d          28.744  -7.105  24.337  0.00  0.00    -0.532 OA
ENDBRANCH   7  14
BRANCH   9  17
ATOM     17  C19 AGY d          27.070  -4.028  24.578  0.00  0.00    -0.022 C 
BRANCH  17  18
ATOM     18  C20 AGY d          26.129  -5.172  25.028  0.00  0.00    -0.066 C 
ATOM     19  H14 AGY d          25.211  -5.152  24.422  0.00  0.00     0.028 H 
ATOM     20  H15 AGY d          25.870  -5.038  26.089  0.00  0.00     0.028 H 
ATOM     21  H16 AGY d          26.637  -6.139  24.893  0.00  0.00     0.028 H 
ENDBRANCH  17  18
BRANCH  17  22
ATOM     22  C21 AGY d          27.941  -3.955  25.889  0.00  0.00    -0.066 C 
ATOM     23  H17 AGY d          28.613  -4.823  25.931  0.00  0.00     0.028 H 
ATOM     24  H18 AGY d          27.281  -3.958  26.768  0.00  0.00     0.028 H 
ATOM     25  H19 AGY d          28.537  -3.030  25.881  0.00  0.00     0.028 H 
ENDBRANCH  17  22
BRANCH  17  26
ATOM     26  C22 AGY d          26.358  -2.663  24.499  0.00  0.00    -0.066 C 
ATOM     27  H20 AGY d          26.824  -2.053  23.710  0.00  0.00     0.028 H 
ATOM     28  H21 AGY d          26.450  -2.145  25.465  0.00  0.00     0.028 H 
ATOM     29  H22 AGY d          25.295  -2.817  24.264  0.00  0.00     0.028 H 
ENDBRANCH  17  26
ENDBRANCH   9  17
ENDBRANCH   3   5
BRANCH   2  30
ATOM     30  N2  AGY d          31.075  -5.708  17.708  0.00  0.00    -0.248 N 
ATOM     31  C10 AGY d          32.169  -5.031  17.266  0.00  0.00     0.339 C 
ATOM     32  N1  AGY d          32.866  -4.203  18.098  0.00  0.00    -0.307 N 
ATOM     33  O1  AGY d          32.505  -5.197  16.085  0.00  0.00    -0.245 OA
ATOM     34  H1  AGY d          32.510  -4.149  19.032  0.00  0.00     0.170 HD
ATOM     35  H2  AGY d          30.596  -6.306  17.065  0.00  0.00     0.192 HD
BRANCH  32  36
ATOM     36  C2  AGY d          33.993  -3.422  17.855  0.00  0.00     0.047 A 
ATOM     37  C1  AGY d          33.964  -1.986  17.614  0.00  0.00     0.001 A 
ATOM     38  C3  AGY d          35.236  -1.242  17.364  0.00  0.00    -0.024 A 
ATOM     39  C4  AGY d          32.716  -1.256  17.611  0.00  0.00    -0.070 A 
ATOM     40  C6  AGY d          36.502  -1.933  17.358  0.00  0.00    -0.072 A 
ATOM     41  C7  AGY d          35.201   0.165  17.128  0.00  0.00    -0.072 A 
ATOM     42  C9  AGY d          36.528  -3.371  17.600  0.00  0.00    -0.080 A 
ATOM     43  H6  AGY d          37.423  -1.390  17.176  0.00  0.00     0.084 H 
ATOM     44  C5  AGY d          35.289  -4.097  17.843  0.00  0.00    -0.056 A 
ATOM     45  H9  AGY d          37.473  -3.902  17.598  0.00  0.00     0.083 H 
ATOM     46  H5  AGY d          35.329  -5.165  18.020  0.00  0.00     0.086 H 
ATOM     47  C11 AGY d          33.938   0.878  17.129  0.00  0.00    -0.082 A 
ATOM     48  H7  AGY d          36.124   0.704  16.948  0.00  0.00     0.084 H 
ATOM     49  C8  AGY d          32.702   0.168  17.370  0.00  0.00    -0.082 A 
ATOM     50  H10 AGY d          33.920   1.947  16.948  0.00  0.00     0.083 H 
ATOM     51  H8  AGY d          31.760   0.706  17.369  0.00  0.00     0.083 H 
ATOM     52  H4  AGY d          31.786  -1.782  17.790  0.00  0.00     0.084 H 
ENDBRANCH  32  36
ENDBRANCH   2  30
TORSDOF 8
ENDMDL
MODEL 4
REMARK VINA RESULT:      -6.4      1.869      3.075
REMARK  8 active torsions:
REMARK  status: ('A' for Active; 'I' for Inactive)
REMARK    1  A    between atoms: N1_2  and  C2_4 
REMARK       I    between atoms: C10_18  and  N1_2 
REMARK    2  A    between atoms: N3_8  and  N2_5 
REMARK       I    between atoms: N2_5  and  C10_18 
REMARK       I    between atoms: C12_20  and  N3_8 
REMARK    3  A    between atoms: C16_24  and  N4_11 
REMARK    4  A    between atoms: C13_21  and  C12_20 
REMARK    5  A    between atoms: C18_26  and  C19_27 
REMARK    6  A    between atoms: C19_27  and  C20_28 
REMARK    7  A    between atoms: C19_27  and  C21_29 
REMARK    8  A    between atoms: C19_27  and  C22_30 
ROOT
ATOM      1  O2  AGY d          29.040  -3.998  18.668  0.00  0.00    -0.266 OA
ATOM      2  N3  AGY d          30.554  -5.604  19.092  0.00  0.00    -0.262 N 
ATOM      3  C12 AGY d          29.570  -4.758  19.502  0.00  0.00     0.270 C 
ATOM      4  H3  AGY d          31.014  -6.232  19.719  0.00  0.00     0.190 HD
ENDROOT
BRANCH   3   5
ATOM      5  C13 AGY d          29.147  -4.736  20.900  0.00  0.00     0.036 A 
ATOM      6  C14 AGY d          27.866  -4.247  21.230  0.00  0.00    -0.035 A 
ATOM      7  C16 AGY d          27.397  -4.208  22.583  0.00  0.00     0.111 A 
ATOM      8  H11 AGY d          27.218  -3.889  20.437  0.00  0.00     0.088 H 
ATOM      9  C18 AGY d          28.251  -4.678  23.691  0.00  0.00    -0.018 A 
ATOM     10  C17 AGY d          29.584  -5.184  23.318  0.00  0.00    -0.073 A 
ATOM     11  C15 AGY d          30.010  -5.205  21.938  0.00  0.00    -0.067 A 
ATOM     12  H13 AGY d          30.254  -5.546  24.090  0.00  0.00     0.084 H 
ATOM     13  H12 AGY d          30.995  -5.580  21.687  0.00  0.00     0.085 H 
BRANCH   7  14
ATOM     14  N4  AGY d          26.167  -3.776  22.797  0.00  0.00    -0.115 N 
ATOM     15  O3  AGY d          25.940  -2.493  22.834  0.00  0.00    -0.532 OA
ATOM     16  O4  AGY d          25.130  -4.681  22.990  0.00  0.00    -0.532 OA
ENDBRANCH   7  14
BRANCH   9  17
ATOM     17  C19 AGY d          27.845  -4.682  25.186  0.00  0.00    -0.022 C 
BRANCH  17  18
ATOM     18  C20 AGY d          27.575  -3.273  25.767  0.00  0.00    -0.066 C 
ATOM     19  H14 AGY d          26.716  -2.821  25.250  0.00  0.00     0.028 H 
ATOM     20  H15 AGY d          28.463  -2.640  25.623  0.00  0.00     0.028 H 
ATOM     21  H16 AGY d          27.355  -3.356  26.842  0.00  0.00     0.028 H 
ENDBRANCH  17  18
BRANCH  17  22
ATOM     22  C21 AGY d          26.500  -5.356  25.655  0.00  0.00    -0.066 C 
ATOM     23  H17 AGY d          26.346  -5.160  26.725  0.00  0.00     0.028 H 
ATOM     24  H18 AGY d          26.556  -6.441  25.484  0.00  0.00     0.028 H 
ATOM     25  H19 AGY d          25.661  -4.937  25.081  0.00  0.00     0.028 H 
ENDBRANCH  17  22
BRANCH  17  26
ATOM     26  C22 AGY d          28.953  -5.441  25.942  0.00  0.00    -0.066 C 
ATOM     27  H20 AGY d          29.718  -5.780  25.227  0.00  0.00     0.028 H 
ATOM     28  H21 AGY d          28.517  -6.312  26.453  0.00  0.00     0.028 H 
ATOM     29  H22 AGY d          29.414  -4.772  26.684  0.00  0.00     0.028 H 
ENDBRANCH  17  26
ENDBRANCH   9  17
ENDBRANCH   3   5
BRANCH   2  30
ATOM     30  N2  AGY d          30.885  -5.533  17.696  0.00  0.00    -0.248 N 
ATOM     31  C10 AGY d          31.959  -4.850  17.215  0.00  0.00     0.339 C 
ATOM     32  N1  AGY d          32.802  -4.183  18.057  0.00  0.00    -0.307 N 
ATOM     33  O1  AGY d          32.140  -4.860  15.990  0.00  0.00    -0.245 OA
ATOM     34  H1  AGY d          32.565  -4.247  19.027  0.00  0.00     0.170 HD
ATOM     35  H2  AGY d          30.296  -6.010  17.045  0.00  0.00     0.192 HD
BRANCH  32  36
ATOM     36  C2  AGY d          33.940  -3.428  17.782  0.00  0.00     0.047 A 
ATOM     37  C1  AGY d          33.938  -1.991  17.550  0.00  0.00     0.001 A 
ATOM     38  C3  AGY d          35.218  -1.276  17.262  0.00  0.00    -0.024 A 
ATOM     39  C4  AGY d          32.709  -1.231  17.592  0.00  0.00    -0.070 A 
ATOM     40  C6  AGY d          36.466  -1.997  17.210  0.00  0.00    -0.072 A 
ATOM     41  C7  AGY d          35.210   0.134  17.036  0.00  0.00    -0.072 A 
ATOM     42  C9  AGY d          36.465  -3.437  17.442  0.00  0.00    -0.080 A 
ATOM     43  H6  AGY d          37.394  -1.475  17.001  0.00  0.00     0.084 H 
ATOM     44  C5  AGY d          35.217  -4.134  17.723  0.00  0.00    -0.056 A 
ATOM     45  H9  AGY d          37.396  -3.991  17.406  0.00  0.00     0.083 H 
ATOM     46  H5  AGY d          35.237  -5.204  17.892  0.00  0.00     0.086 H 
ATOM     47  C11 AGY d          33.965   0.876  17.082  0.00  0.00    -0.082 A 
ATOM     48  H7  AGY d          36.139   0.651  16.827  0.00  0.00     0.084 H 
ATOM     49  C8  AGY d          32.721   0.195  17.359  0.00  0.00    -0.082 A 
ATOM     50  H10 AGY d          33.968   1.946  16.908  0.00  0.00     0.083 H 
ATOM     51  H8  AGY d          31.793   0.755  17.393  0.00  0.00     0.083 H 
ATOM     52  H4  AGY d          31.772  -1.735  17.799  0.00  0.00     0.084 H 
ENDBRANCH  32  36
ENDBRANCH   2  30
TORSDOF 8
ENDMDL
MODEL 5
REMARK VINA RESULT:      -5.4      1.671      2.402
REMARK  8 active torsions:
REMARK  status: ('A' for Active; 'I' for Inactive)
REMARK    1  A    between atoms: N1_2  and  C2_4 
REMARK       I    between atoms: C10_18  and  N1_2 
REMARK    2  A    between atoms: N3_8  and  N2_5 
REMARK       I    between atoms: N2_5  and  C10_18 
REMARK       I    between atoms: C12_20  and  N3_8 
REMARK    3  A    between atoms: C16_24  and  N4_11 
REMARK    4  A    between atoms: C13_21  and  C12_20 
REMARK    5  A    between atoms: C18_26  and  C19_27 
REMARK    6  A    between atoms: C19_27  and  C20_28 
REMARK    7  A    between atoms: C19_27  and  C21_29 
REMARK    8  A    between atoms: C19_27  and  C22_30 
ROOT
ATOM      1  O2  AGY d          29.080  -3.780  18.692  0.00  0.00    -0.266 OA
ATOM      2  N3  AGY d          29.235  -6.005  18.970  0.00  0.00    -0.262 N 
ATOM      3  C12 AGY d          28.953  -4.763  19.449  0.00  0.00     0.270 C 
ATOM      4  H3  AGY d          29.153  -6.826  19.535  0.00  0.00     0.190 HD
ENDROOT
BRANCH   3   5
ATOM      5  C13 AGY d          28.515  -4.583  20.832  0.00  0.00     0.036 A 
ATOM      6  C14 AGY d          29.187  -5.266  21.866  0.00  0.00    -0.035 A 
ATOM      7  C16 AGY d          28.805  -5.122  23.239  0.00  0.00     0.111 A 
ATOM      8  H11 AGY d          30.016  -5.919  21.616  0.00  0.00     0.088 H 
ATOM      9  C18 AGY d          27.678  -4.250  23.621  0.00  0.00    -0.018 A 
ATOM     10  C17 AGY d          26.994  -3.548  22.520  0.00  0.00    -0.073 A 
ATOM     11  C15 AGY d          27.419  -3.724  21.151  0.00  0.00    -0.067 A 
ATOM     12  H13 AGY d          26.160  -2.891  22.741  0.00  0.00     0.084 H 
ATOM     13  H12 AGY d          26.900  -3.200  20.357  0.00  0.00     0.085 H 
BRANCH   7  14
ATOM     14  N4  AGY d          29.517  -5.764  24.149  0.00  0.00    -0.115 N 
ATOM     15  O3  AGY d          30.486  -5.140  24.757  0.00  0.00    -0.532 OA
ATOM     16  O4  AGY d          29.239  -7.093  24.445  0.00  0.00    -0.532 OA
ENDBRANCH   7  14
BRANCH   9  17
ATOM     17  C19 AGY d          27.182  -4.021  25.070  0.00  0.00    -0.022 C 
BRANCH  17  18
ATOM     18  C20 AGY d          25.643  -3.914  25.198  0.00  0.00    -0.066 C 
ATOM     19  H14 AGY d          25.329  -2.879  24.997  0.00  0.00     0.028 H 
ATOM     20  H15 AGY d          25.339  -4.197  26.216  0.00  0.00     0.028 H 
ATOM     21  H16 AGY d          25.167  -4.590  24.472  0.00  0.00     0.028 H 
ENDBRANCH  17  18
BRANCH  17  22
ATOM     22  C21 AGY d          27.402  -5.117  26.181  0.00  0.00    -0.066 C 
ATOM     23  H17 AGY d          26.590  -5.856  26.132  0.00  0.00     0.028 H 
ATOM     24  H18 AGY d          27.405  -4.639  27.171  0.00  0.00     0.028 H 
ATOM     25  H19 AGY d          28.366  -5.620  26.013  0.00  0.00     0.028 H 
ENDBRANCH  17  22
BRANCH  17  26
ATOM     26  C22 AGY d          27.915  -2.772  25.596  0.00  0.00    -0.066 C 
ATOM     27  H20 AGY d          28.755  -3.082  26.236  0.00  0.00     0.028 H 
ATOM     28  H21 AGY d          27.216  -2.156  26.182  0.00  0.00     0.028 H 
ATOM     29  H22 AGY d          28.297  -2.186  24.747  0.00  0.00     0.028 H 
ENDBRANCH  17  26
ENDBRANCH   9  17
ENDBRANCH   3   5
BRANCH   2  30
ATOM     30  N2  AGY d          29.658  -6.055  17.599  0.00  0.00    -0.248 N 
ATOM     31  C10 AGY d          30.861  -5.585  17.168  0.00  0.00     0.339 C 
ATOM     32  N1  AGY d          31.752  -5.031  18.042  0.00  0.00    -0.307 N 
ATOM     33  O1  AGY d          31.111  -5.682  15.960  0.00  0.00    -0.245 OA
ATOM     34  H1  AGY d          31.448  -5.009  18.995  0.00  0.00     0.170 HD
ATOM     35  H2  AGY d          29.037  -6.456  16.926  0.00  0.00     0.192 HD
BRANCH  32  36
ATOM     36  C2  AGY d          33.016  -4.491  17.818  0.00  0.00     0.047 A 
ATOM     37  C1  AGY d          34.264  -5.222  17.978  0.00  0.00     0.001 A 
ATOM     38  C3  AGY d          35.570  -4.545  17.709  0.00  0.00    -0.024 A 
ATOM     39  C4  AGY d          34.269  -6.606  18.395  0.00  0.00    -0.070 A 
ATOM     40  C6  AGY d          35.609  -3.165  17.292  0.00  0.00    -0.072 A 
ATOM     41  C7  AGY d          36.791  -5.268  17.867  0.00  0.00    -0.072 A 
ATOM     42  C9  AGY d          34.356  -2.435  17.133  0.00  0.00    -0.080 A 
ATOM     43  H6  AGY d          36.557  -2.677  17.098  0.00  0.00     0.084 H 
ATOM     44  C5  AGY d          33.084  -3.094  17.394  0.00  0.00    -0.056 A 
ATOM     45  H9  AGY d          34.372  -1.397  16.819  0.00  0.00     0.083 H 
ATOM     46  H5  AGY d          32.164  -2.535  17.271  0.00  0.00     0.086 H 
ATOM     47  C11 AGY d          36.772  -6.656  18.288  0.00  0.00    -0.082 A 
ATOM     48  H7  AGY d          37.736  -4.776  17.672  0.00  0.00     0.084 H 
ATOM     49  C8  AGY d          35.515  -7.320  18.550  0.00  0.00    -0.082 A 
ATOM     50  H10 AGY d          37.704  -7.197  18.406  0.00  0.00     0.083 H 
ATOM     51  H8  AGY d          35.508  -8.358  18.864  0.00  0.00     0.083 H 
ATOM     52  H4  AGY d          33.331  -7.111  18.594  0.00  0.00     0.084 H 
ENDBRANCH  32  36
ENDBRANCH   2  30
TORSDOF 8
ENDMDL
MODEL 6
REMARK VINA RESULT:      -5.2      2.128      2.704
REMARK  8 active torsions:
REMARK  status: ('A' for Active; 'I' for Inactive)
REMARK    1  A    between atoms: N1_2  and  C2_4 
REMARK       I    between atoms: C10_18  and  N1_2 
REMARK    2  A    between atoms: N3_8  and  N2_5 
REMARK       I    between atoms: N2_5  and  C10_18 
REMARK       I    between atoms: C12_20  and  N3_8 
REMARK    3  A    between atoms: C16_24  and  N4_11 
REMARK    4  A    between atoms: C13_21  and  C12_20 
REMARK    5  A    between atoms: C18_26  and  C19_27 
REMARK    6  A    between atoms: C19_27  and  C20_28 
REMARK    7  A    between atoms: C19_27  and  C21_29 
REMARK    8  A    between atoms: C19_27  and  C22_30 
ROOT
ATOM      1  O2  AGY d          28.977  -3.792  18.925  0.00  0.00    -0.266 OA
ATOM      2  N3  AGY d          29.501  -5.978  18.904  0.00  0.00    -0.262 N 
ATOM      3  C12 AGY d          29.087  -4.860  19.559  0.00  0.00     0.270 C 
ATOM      4  H3  AGY d          29.609  -6.858  19.365  0.00  0.00     0.190 HD
ENDROOT
BRANCH   3   5
ATOM      5  C13 AGY d          28.783  -4.909  20.988  0.00  0.00     0.036 A 
ATOM      6  C14 AGY d          27.581  -4.342  21.461  0.00  0.00    -0.035 A 
ATOM      7  C16 AGY d          27.230  -4.367  22.850  0.00  0.00     0.111 A 
ATOM      8  H11 AGY d          26.905  -3.873  20.755  0.00  0.00     0.088 H 
ATOM      9  C18 AGY d          28.126  -4.988  23.844  0.00  0.00    -0.018 A 
ATOM     10  C17 AGY d          29.374  -5.573  23.322  0.00  0.00    -0.073 A 
ATOM     11  C15 AGY d          29.682  -5.524  21.912  0.00  0.00    -0.067 A 
ATOM     12  H13 AGY d          30.070  -6.046  24.006  0.00  0.00     0.084 H 
ATOM     13  H12 AGY d          30.607  -5.959  21.551  0.00  0.00     0.085 H 
BRANCH   7  14
ATOM     14  N4  AGY d          26.064  -3.852  23.200  0.00  0.00    -0.115 N 
ATOM     15  O3  AGY d          25.985  -2.579  23.469  0.00  0.00    -0.532 OA
ATOM     16  O4  AGY d          24.939  -4.662  23.289  0.00  0.00    -0.532 OA
ENDBRANCH   7  14
BRANCH   9  17
ATOM     17  C19 AGY d          27.844  -5.071  25.365  0.00  0.00    -0.022 C 
BRANCH  17  18
ATOM     18  C20 AGY d          26.617  -5.941  25.730  0.00  0.00    -0.066 C 
ATOM     19  H14 AGY d          26.595  -6.833  25.086  0.00  0.00     0.028 H 
ATOM     20  H15 AGY d          25.697  -5.358  25.580  0.00  0.00     0.028 H 
ATOM     21  H16 AGY d          26.688  -6.251  26.783  0.00  0.00     0.028 H 
ENDBRANCH  17  18
BRANCH  17  22
ATOM     22  C21 AGY d          28.875  -5.756  26.339  0.00  0.00    -0.066 C 
ATOM     23  H17 AGY d          28.673  -5.436  27.371  0.00  0.00     0.028 H 
ATOM     24  H18 AGY d          29.897  -5.462  26.058  0.00  0.00     0.028 H 
ATOM     25  H19 AGY d          28.776  -6.850  26.268  0.00  0.00     0.028 H 
ENDBRANCH  17  22
BRANCH  17  26
ATOM     26  C22 AGY d          27.724  -3.621  25.872  0.00  0.00    -0.066 C 
ATOM     27  H20 AGY d          28.589  -3.383  26.509  0.00  0.00     0.028 H 
ATOM     28  H21 AGY d          26.797  -3.513  26.456  0.00  0.00     0.028 H 
ATOM     29  H22 AGY d          27.700  -2.933  25.014  0.00  0.00     0.028 H 
ENDBRANCH  17  26
ENDBRANCH   9  17
ENDBRANCH   3   5
BRANCH   2  30
ATOM     30  N2  AGY d          29.772  -5.806  17.504  0.00  0.00    -0.248 N 
ATOM     31  C10 AGY d          30.875  -5.165  17.028  0.00  0.00     0.339 C 
ATOM     32  N1  AGY d          31.806  -4.642  17.879  0.00  0.00    -0.307 N 
ATOM     33  O1  AGY d          30.997  -5.077  15.799  0.00  0.00    -0.245 OA
ATOM     34  H1  AGY d          31.609  -4.775  18.850  0.00  0.00     0.170 HD
ATOM     35  H2  AGY d          29.118  -6.176  16.846  0.00  0.00     0.192 HD
BRANCH  32  36
ATOM     36  C2  AGY d          32.985  -3.952  17.610  0.00  0.00     0.047 A 
ATOM     37  C1  AGY d          34.236  -4.583  17.214  0.00  0.00     0.001 A 
ATOM     38  C3  AGY d          35.446  -3.746  16.947  0.00  0.00    -0.024 A 
ATOM     39  C4  AGY d          34.335  -6.017  17.071  0.00  0.00    -0.070 A 
ATOM     40  C6  AGY d          35.391  -2.311  17.080  0.00  0.00    -0.072 A 
ATOM     41  C7  AGY d          36.670  -4.370  16.559  0.00  0.00    -0.072 A 
ATOM     42  C9  AGY d          34.136  -1.682  17.478  0.00  0.00    -0.080 A 
ATOM     43  H6  AGY d          36.270  -1.707  16.887  0.00  0.00     0.084 H 
ATOM     44  C5  AGY d          32.957  -2.497  17.737  0.00  0.00    -0.056 A 
ATOM     45  H9  AGY d          34.081  -0.605  17.580  0.00  0.00     0.083 H 
ATOM     46  H5  AGY d          32.034  -2.011  18.032  0.00  0.00     0.086 H 
ATOM     47  C11 AGY d          36.746  -5.812  16.422  0.00  0.00    -0.082 A 
ATOM     48  H7  AGY d          37.546  -3.763  16.366  0.00  0.00     0.084 H 
ATOM     49  C8  AGY d          35.582  -6.630  16.677  0.00  0.00    -0.082 A 
ATOM     50  H10 AGY d          37.680  -6.278  16.127  0.00  0.00     0.083 H 
ATOM     51  H8  AGY d          35.645  -7.708  16.573  0.00  0.00     0.083 H 
ATOM     52  H4  AGY d          33.466  -6.638  17.260  0.00  0.00     0.084 H 
ENDBRANCH  32  36
ENDBRANCH   2  30
TORSDOF 8
ENDMDL
