MODEL 1
REMARK VINA RESULT:      -5.8      0.000      0.000
REMARK  6 active torsions:
REMARK  status: ('A' for Active; 'I' for Inactive)
REMARK    1  A    between atoms: C1_1  and  O1_7 
REMARK    2  A    between atoms: C2_2  and  O2_8 
REMARK    3  A    between atoms: C3_3  and  O3_9 
REMARK    4  A    between atoms: C4_4  and  O4_10 
REMARK    5  A    between atoms: C5_5  and  C6_6 
REMARK    6  A    between atoms: O1_7  and  CM_12 
ROOT
ATOM      1  C1  MFU d          12.414   4.860  -3.675  0.00  0.00     0.158 C 
ATOM      2  C2  MFU d          11.082   4.717  -2.910  0.00  0.00     0.110 C 
ATOM      3  C3  MFU d          10.280   3.545  -3.469  0.00  0.00     0.092 C 
ATOM      4  C4  MFU d          11.138   2.283  -3.546  0.00  0.00     0.087 C 
ATOM      5  C5  MFU d          12.487   2.517  -4.239  0.00  0.00     0.065 C 
ATOM      6  O5  MFU d          13.162   3.624  -3.625  0.00  0.00    -0.351 OA
ATOM      7  H1  MFU d          13.012   5.660  -3.214  0.00  0.00     0.133 H 
ATOM      8  H2  MFU d          11.333   4.494  -1.862  0.00  0.00     0.094 H 
ATOM      9  H3  MFU d           9.906   3.805  -4.471  0.00  0.00     0.091 H 
ATOM     10  H4  MFU d          10.585   1.516  -4.110  0.00  0.00     0.091 H 
ATOM     11  H5  MFU d          12.287   2.778  -5.289  0.00  0.00     0.086 H 
ENDROOT
BRANCH   1  12
ATOM     12  O1  MFU d          12.132   5.205  -5.044  0.00  0.00    -0.363 OA
BRANCH  12  13
ATOM     13  CM  MFU d          12.989   6.212  -5.605  0.00  0.00     0.007 C 
ATOM     14  H12 MFU d          13.840   6.385  -4.932  0.00  0.00     0.066 H 
ATOM     15  H13 MFU d          12.423   7.147  -5.730  0.00  0.00     0.066 H 
ATOM     16  H14 MFU d          13.359   5.873  -6.585  0.00  0.00     0.066 H 
ENDBRANCH  12  13
ENDBRANCH   1  12
BRANCH   2  17
ATOM     17  O2  MFU d          10.245   5.906  -2.911  0.00  0.00    -0.388 OA
ATOM     18  H9  MFU d          10.530   6.492  -3.603  0.00  0.00     0.210 HD
ENDBRANCH   2  17
BRANCH   3  19
ATOM     19  O3  MFU d           9.182   3.255  -2.593  0.00  0.00    -0.390 OA
ATOM     20  H10 MFU d           8.472   2.870  -3.093  0.00  0.00     0.210 HD
ENDBRANCH   3  19
BRANCH   5  21
ATOM     21  C6  MFU d          13.365   1.262  -4.230  0.00  0.00    -0.050 C 
ATOM     22  H6  MFU d          12.735   0.375  -4.067  0.00  0.00     0.031 H 
ATOM     23  H7  MFU d          14.106   1.339  -3.420  0.00  0.00     0.031 H 
ATOM     24  H8  MFU d          13.884   1.171  -5.195  0.00  0.00     0.031 H 
ENDBRANCH   5  21
BRANCH   4  25
ATOM     25  O4  MFU d          11.371   1.815  -2.205  0.00  0.00    -0.390 OA
ATOM     26  H11 MFU d          11.206   0.880  -2.164  0.00  0.00     0.210 HD
ENDBRANCH   4  25
TORSDOF 6
ENDMDL
MODEL 2
REMARK VINA RESULT:      -4.9      1.121      3.391
REMARK  6 active torsions:
REMARK  status: ('A' for Active; 'I' for Inactive)
REMARK    1  A    between atoms: C1_1  and  O1_7 
REMARK    2  A    between atoms: C2_2  and  O2_8 
REMARK    3  A    between atoms: C3_3  and  O3_9 
REMARK    4  A    between atoms: C4_4  and  O4_10 
REMARK    5  A    between atoms: C5_5  and  C6_6 
REMARK    6  A    between atoms: O1_7  and  CM_12 
ROOT
ATOM      1  C1  MFU d          12.130   2.577  -4.862  0.00  0.00     0.158 C 
ATOM      2  C2  MFU d          10.717   2.431  -4.259  0.00  0.00     0.110 C 
ATOM      3  C3  MFU d          10.611   3.244  -2.972  0.00  0.00     0.092 C 
ATOM      4  C4  MFU d          11.092   4.678  -3.191  0.00  0.00     0.087 C 
ATOM      5  C5  MFU d          12.462   4.752  -3.877  0.00  0.00     0.065 C 
ATOM      6  O5  MFU d          12.445   3.971  -5.081  0.00  0.00    -0.351 OA
ATOM      7  H1  MFU d          12.168   2.047  -5.825  0.00  0.00     0.133 H 
ATOM      8  H2  MFU d          10.008   2.847  -4.989  0.00  0.00     0.094 H 
ATOM      9  H3  MFU d          11.213   2.764  -2.186  0.00  0.00     0.091 H 
ATOM     10  H4  MFU d          11.164   5.177  -2.213  0.00  0.00     0.091 H 
ATOM     11  H5  MFU d          13.206   4.314  -3.195  0.00  0.00     0.086 H 
ENDROOT
BRANCH   1  12
ATOM     12  O1  MFU d          13.087   1.995  -3.959  0.00  0.00    -0.363 OA
BRANCH  12  13
ATOM     13  CM  MFU d          13.758   0.826  -4.455  0.00  0.00     0.007 C 
ATOM     14  H12 MFU d          14.729   1.115  -4.883  0.00  0.00     0.066 H 
ATOM     15  H13 MFU d          13.140   0.352  -5.233  0.00  0.00     0.066 H 
ATOM     16  H14 MFU d          13.918   0.117  -3.629  0.00  0.00     0.066 H 
ENDBRANCH  12  13
ENDBRANCH   1  12
BRANCH   2  17
ATOM     17  O2  MFU d          10.307   1.062  -3.989  0.00  0.00    -0.388 OA
ATOM     18  H9  MFU d          10.576   0.504  -4.708  0.00  0.00     0.210 HD
ENDBRANCH   2  17
BRANCH   3  19
ATOM     19  O3  MFU d           9.237   3.319  -2.565  0.00  0.00    -0.390 OA
ATOM     20  H10 MFU d           8.709   2.773  -3.135  0.00  0.00     0.210 HD
ENDBRANCH   3  19
BRANCH   5  21
ATOM     21  C6  MFU d          12.886   6.196  -4.163  0.00  0.00    -0.050 C 
ATOM     22  H6  MFU d          13.225   6.278  -5.206  0.00  0.00     0.031 H 
ATOM     23  H7  MFU d          13.708   6.478  -3.488  0.00  0.00     0.031 H 
ATOM     24  H8  MFU d          12.030   6.868  -4.001  0.00  0.00     0.031 H 
ENDBRANCH   5  21
BRANCH   4  25
ATOM     25  O4  MFU d          10.119   5.360  -4.005  0.00  0.00    -0.390 OA
ATOM     26  H11 MFU d           9.965   4.859  -4.797  0.00  0.00     0.210 HD
ENDBRANCH   4  25
TORSDOF 6
ENDMDL
MODEL 3
REMARK VINA RESULT:      -4.8      1.079      3.377
REMARK  6 active torsions:
REMARK  status: ('A' for Active; 'I' for Inactive)
REMARK    1  A    between atoms: C1_1  and  O1_7 
REMARK    2  A    between atoms: C2_2  and  O2_8 
REMARK    3  A    between atoms: C3_3  and  O3_9 
REMARK    4  A    between atoms: C4_4  and  O4_10 
REMARK    5  A    between atoms: C5_5  and  C6_6 
REMARK    6  A    between atoms: O1_7  and  CM_12 
ROOT
ATOM      1  C1  MFU d          11.212   2.868  -4.445  0.00  0.00     0.158 C 
ATOM      2  C2  MFU d          10.192   3.721  -3.663  0.00  0.00     0.110 C 
ATOM      3  C3  MFU d          10.882   4.939  -3.056  0.00  0.00     0.092 C 
ATOM      4  C4  MFU d          11.698   5.686  -4.111  0.00  0.00     0.087 C 
ATOM      5  C5  MFU d          12.625   4.764  -4.914  0.00  0.00     0.065 C 
ATOM      6  O5  MFU d          11.873   3.668  -5.453  0.00  0.00    -0.351 OA
ATOM      7  H1  MFU d          10.687   2.036  -4.937  0.00  0.00     0.133 H 
ATOM      8  H2  MFU d           9.442   4.074  -4.387  0.00  0.00     0.094 H 
ATOM      9  H3  MFU d          11.539   4.615  -2.236  0.00  0.00     0.091 H 
ATOM     10  H4  MFU d          12.313   6.446  -3.606  0.00  0.00     0.091 H 
ATOM     11  H5  MFU d          13.378   4.357  -4.223  0.00  0.00     0.086 H 
ENDROOT
BRANCH   1  12
ATOM     12  O1  MFU d          12.185   2.341  -3.524  0.00  0.00    -0.363 OA
BRANCH  12  13
ATOM     13  CM  MFU d          13.025   1.305  -4.056  0.00  0.00     0.007 C 
ATOM     14  H12 MFU d          14.079   1.548  -3.854  0.00  0.00     0.066 H 
ATOM     15  H13 MFU d          12.869   1.227  -5.142  0.00  0.00     0.066 H 
ATOM     16  H14 MFU d          12.773   0.346  -3.578  0.00  0.00     0.066 H 
ENDBRANCH  12  13
ENDBRANCH   1  12
BRANCH   2  17
ATOM     17  O2  MFU d           9.478   3.010  -2.613  0.00  0.00    -0.388 OA
ATOM     18  H9  MFU d           9.488   2.079  -2.800  0.00  0.00     0.210 HD
ENDBRANCH   2  17
BRANCH   3  19
ATOM     19  O3  MFU d           9.893   5.854  -2.564  0.00  0.00    -0.390 OA
ATOM     20  H10 MFU d           9.039   5.605  -2.896  0.00  0.00     0.210 HD
ENDBRANCH   3  19
BRANCH   5  21
ATOM     21  C6  MFU d          13.369   5.518  -6.021  0.00  0.00    -0.050 C 
ATOM     22  H6  MFU d          13.332   4.933  -6.951  0.00  0.00     0.031 H 
ATOM     23  H7  MFU d          14.418   5.666  -5.723  0.00  0.00     0.031 H 
ATOM     24  H8  MFU d          12.891   6.495  -6.183  0.00  0.00     0.031 H 
ENDBRANCH   5  21
BRANCH   4  25
ATOM     25  O4  MFU d          10.781   6.334  -5.013  0.00  0.00    -0.390 OA
ATOM     26  H11 MFU d          10.679   5.804  -5.794  0.00  0.00     0.210 HD
ENDBRANCH   4  25
TORSDOF 6
ENDMDL
MODEL 4
REMARK VINA RESULT:      -4.8      1.531      2.242
REMARK  6 active torsions:
REMARK  status: ('A' for Active; 'I' for Inactive)
REMARK    1  A    between atoms: C1_1  and  O1_7 
REMARK    2  A    between atoms: C2_2  and  O2_8 
REMARK    3  A    between atoms: C3_3  and  O3_9 
REMARK    4  A    between atoms: C4_4  and  O4_10 
REMARK    5  A    between atoms: C5_5  and  C6_6 
REMARK    6  A    between atoms: O1_7  and  CM_12 
ROOT
ATOM      1  C1  MFU d          12.884   3.371  -3.653  0.00  0.00     0.158 C 
ATOM      2  C2  MFU d          12.194   4.459  -2.804  0.00  0.00     0.110 C 
ATOM      3  C3  MFU d          10.865   4.855  -3.439  0.00  0.00     0.092 C 
ATOM      4  C4  MFU d          10.018   3.620  -3.748  0.00  0.00     0.087 C 
ATOM      5  C5  MFU d          10.792   2.540  -4.515  0.00  0.00     0.065 C 
ATOM      6  O5  MFU d          12.010   2.231  -3.822  0.00  0.00    -0.351 OA
ATOM      7  H1  MFU d          13.803   3.044  -3.144  0.00  0.00     0.133 H 
ATOM      8  H2  MFU d          11.987   4.018  -1.818  0.00  0.00     0.094 H 
ATOM      9  H3  MFU d          11.056   5.418  -4.365  0.00  0.00     0.091 H 
ATOM     10  H4  MFU d           9.155   3.930  -4.357  0.00  0.00     0.091 H 
ATOM     11  H5  MFU d          11.053   2.947  -5.502  0.00  0.00     0.086 H 
ENDROOT
BRANCH   1  12
ATOM     12  O1  MFU d          13.221   3.924  -4.938  0.00  0.00    -0.363 OA
BRANCH  12  13
ATOM     13  CM  MFU d          13.780   2.989  -5.874  0.00  0.00     0.007 C 
ATOM     14  H12 MFU d          14.445   3.520  -6.570  0.00  0.00     0.066 H 
ATOM     15  H13 MFU d          12.969   2.505  -6.438  0.00  0.00     0.066 H 
ATOM     16  H14 MFU d          14.355   2.225  -5.329  0.00  0.00     0.066 H 
ENDBRANCH  12  13
ENDBRANCH   1  12
BRANCH   2  17
ATOM     17  O2  MFU d          12.988   5.657  -2.584  0.00  0.00    -0.388 OA
ATOM     18  H9  MFU d          12.557   6.401  -2.988  0.00  0.00     0.210 HD
ENDBRANCH   2  17
BRANCH   3  19
ATOM     19  O3  MFU d          10.115   5.660  -2.519  0.00  0.00    -0.390 OA
ATOM     20  H10 MFU d          10.483   6.535  -2.493  0.00  0.00     0.210 HD
ENDBRANCH   3  19
BRANCH   5  21
ATOM     21  C6  MFU d           9.951   1.279  -4.739  0.00  0.00    -0.050 C 
ATOM     22  H6  MFU d          10.586   0.485  -5.157  0.00  0.00     0.031 H 
ATOM     23  H7  MFU d           9.134   1.503  -5.441  0.00  0.00     0.031 H 
ATOM     24  H8  MFU d           9.530   0.945  -3.779  0.00  0.00     0.031 H 
ENDBRANCH   5  21
BRANCH   4  25
ATOM     25  O4  MFU d           9.551   3.072  -2.501  0.00  0.00    -0.390 OA
ATOM     26  H11 MFU d          10.296   2.883  -1.942  0.00  0.00     0.210 HD
ENDBRANCH   4  25
TORSDOF 6
ENDMDL
MODEL 5
REMARK VINA RESULT:      -4.7      1.645      2.078
REMARK  6 active torsions:
REMARK  status: ('A' for Active; 'I' for Inactive)
REMARK    1  A    between atoms: C1_1  and  O1_7 
REMARK    2  A    between atoms: C2_2  and  O2_8 
REMARK    3  A    between atoms: C3_3  and  O3_9 
REMARK    4  A    between atoms: C4_4  and  O4_10 
REMARK    5  A    between atoms: C5_5  and  C6_6 
REMARK    6  A    between atoms: O1_7  and  CM_12 
ROOT
ATOM      1  C1  MFU d          11.215   4.323  -3.686  0.00  0.00     0.158 C 
ATOM      2  C2  MFU d          10.456   3.095  -3.139  0.00  0.00     0.110 C 
ATOM      3  C3  MFU d          10.229   2.080  -4.256  0.00  0.00     0.092 C 
ATOM      4  C4  MFU d          11.533   1.778  -4.993  0.00  0.00     0.087 C 
ATOM      5  C5  MFU d          12.282   3.044  -5.429  0.00  0.00     0.065 C 
ATOM      6  O5  MFU d          12.458   3.916  -4.303  0.00  0.00    -0.351 OA
ATOM      7  H1  MFU d          11.436   5.011  -2.856  0.00  0.00     0.133 H 
ATOM      8  H2  MFU d          11.099   2.631  -2.377  0.00  0.00     0.094 H 
ATOM      9  H3  MFU d           9.484   2.476  -4.962  0.00  0.00     0.091 H 
ATOM     10  H4  MFU d          11.300   1.185  -5.890  0.00  0.00     0.091 H 
ATOM     11  H5  MFU d          11.661   3.566  -6.172  0.00  0.00     0.086 H 
ENDROOT
BRANCH   1  12
ATOM     12  O1  MFU d          10.385   4.993  -4.653  0.00  0.00    -0.363 OA
BRANCH  12  13
ATOM     13  CM  MFU d          10.116   6.374  -4.368  0.00  0.00     0.007 C 
ATOM     14  H12 MFU d           9.755   6.873  -5.279  0.00  0.00     0.066 H 
ATOM     15  H13 MFU d          11.039   6.865  -4.023  0.00  0.00     0.066 H 
ATOM     16  H14 MFU d           9.348   6.444  -3.583  0.00  0.00     0.066 H 
ENDBRANCH  12  13
ENDBRANCH   1  12
BRANCH   2  17
ATOM     17  O2  MFU d           9.182   3.396  -2.507  0.00  0.00    -0.388 OA
ATOM     18  H9  MFU d           9.309   3.492  -1.570  0.00  0.00     0.210 HD
ENDBRANCH   2  17
BRANCH   3  19
ATOM     19  O3  MFU d           9.768   0.844  -3.693  0.00  0.00    -0.390 OA
ATOM     20  H10 MFU d          10.506   0.261  -3.563  0.00  0.00     0.210 HD
ENDBRANCH   3  19
BRANCH   5  21
ATOM     21  C6  MFU d          13.625   2.720  -6.089  0.00  0.00    -0.050 C 
ATOM     22  H6  MFU d          14.254   2.157  -5.384  0.00  0.00     0.031 H 
ATOM     23  H7  MFU d          14.134   3.657  -6.365  0.00  0.00     0.031 H 
ATOM     24  H8  MFU d          13.454   2.116  -6.992  0.00  0.00     0.031 H 
ENDBRANCH   5  21
BRANCH   4  25
ATOM     25  O4  MFU d          12.378   1.008  -4.116  0.00  0.00    -0.390 OA
ATOM     26  H11 MFU d          11.878   0.288  -3.750  0.00  0.00     0.210 HD
ENDBRANCH   4  25
TORSDOF 6
ENDMDL
MODEL 6
REMARK VINA RESULT:      -4.6      1.447      3.224
REMARK  6 active torsions:
REMARK  status: ('A' for Active; 'I' for Inactive)
REMARK    1  A    between atoms: C1_1  and  O1_7 
REMARK    2  A    between atoms: C2_2  and  O2_8 
REMARK    3  A    between atoms: C3_3  and  O3_9 
REMARK    4  A    between atoms: C4_4  and  O4_10 
REMARK    5  A    between atoms: C5_5  and  C6_6 
REMARK    6  A    between atoms: O1_7  and  CM_12 
ROOT
ATOM      1  C1  MFU d          11.805   3.282  -5.348  0.00  0.00     0.158 C 
ATOM      2  C2  MFU d          11.564   2.170  -4.307  0.00  0.00     0.110 C 
ATOM      3  C3  MFU d          11.593   2.756  -2.898  0.00  0.00     0.092 C 
ATOM      4  C4  MFU d          10.673   3.972  -2.793  0.00  0.00     0.087 C 
ATOM      5  C5  MFU d          10.904   4.996  -3.912  0.00  0.00     0.065 C 
ATOM      6  O5  MFU d          10.837   4.344  -5.189  0.00  0.00    -0.351 OA
ATOM      7  H1  MFU d          11.709   2.859  -6.359  0.00  0.00     0.133 H 
ATOM      8  H2  MFU d          10.557   1.766  -4.491  0.00  0.00     0.094 H 
ATOM      9  H3  MFU d          12.624   3.045  -2.645  0.00  0.00     0.091 H 
ATOM     10  H4  MFU d          10.852   4.466  -1.827  0.00  0.00     0.091 H 
ATOM     11  H5  MFU d          11.917   5.407  -3.791  0.00  0.00     0.086 H 
ENDROOT
BRANCH   1  12
ATOM     12  O1  MFU d          13.136   3.804  -5.176  0.00  0.00    -0.363 OA
BRANCH  12  13
ATOM     13  CM  MFU d          13.614   4.618  -6.258  0.00  0.00     0.007 C 
ATOM     14  H12 MFU d          13.171   4.269  -7.203  0.00  0.00     0.066 H 
ATOM     15  H13 MFU d          14.710   4.543  -6.317  0.00  0.00     0.066 H 
ATOM     16  H14 MFU d          13.326   5.666  -6.084  0.00  0.00     0.066 H 
ENDBRANCH  12  13
ENDBRANCH   1  12
BRANCH   2  17
ATOM     17  O2  MFU d          12.496   1.056  -4.375  0.00  0.00    -0.388 OA
ATOM     18  H9  MFU d          12.020   0.257  -4.570  0.00  0.00     0.210 HD
ENDBRANCH   2  17
BRANCH   3  19
ATOM     19  O3  MFU d          11.110   1.781  -1.964  0.00  0.00    -0.390 OA
ATOM     20  H10 MFU d          11.529   0.946  -2.134  0.00  0.00     0.210 HD
ENDBRANCH   3  19
BRANCH   5  21
ATOM     21  C6  MFU d           9.916   6.164  -3.838  0.00  0.00    -0.050 C 
ATOM     22  H6  MFU d           9.776   6.459  -2.788  0.00  0.00     0.031 H 
ATOM     23  H7  MFU d           8.949   5.854  -4.263  0.00  0.00     0.031 H 
ATOM     24  H8  MFU d          10.312   7.016  -4.409  0.00  0.00     0.031 H 
ENDBRANCH   5  21
BRANCH   4  25
ATOM     25  O4  MFU d           9.310   3.511  -2.850  0.00  0.00    -0.390 OA
ATOM     26  H11 MFU d           8.748   4.132  -2.401  0.00  0.00     0.210 HD
ENDBRANCH   4  25
TORSDOF 6
ENDMDL
MODEL 7
REMARK VINA RESULT:      -4.5      1.709      3.356
REMARK  6 active torsions:
REMARK  status: ('A' for Active; 'I' for Inactive)
REMARK    1  A    between atoms: C1_1  and  O1_7 
REMARK    2  A    between atoms: C2_2  and  O2_8 
REMARK    3  A    between atoms: C3_3  and  O3_9 
REMARK    4  A    between atoms: C4_4  and  O4_10 
REMARK    5  A    between atoms: C5_5  and  C6_6 
REMARK    6  A    between atoms: O1_7  and  CM_12 
ROOT
ATOM      1  C1  MFU d          10.364   3.041  -4.837  0.00  0.00     0.158 C 
ATOM      2  C2  MFU d          10.309   3.882  -3.545  0.00  0.00     0.110 C 
ATOM      3  C3  MFU d          11.691   3.945  -2.901  0.00  0.00     0.092 C 
ATOM      4  C4  MFU d          12.750   4.365  -3.921  0.00  0.00     0.087 C 
ATOM      5  C5  MFU d          12.689   3.547  -5.218  0.00  0.00     0.065 C 
ATOM      6  O5  MFU d          11.355   3.572  -5.745  0.00  0.00    -0.351 OA
ATOM      7  H1  MFU d           9.379   3.066  -5.327  0.00  0.00     0.133 H 
ATOM      8  H2  MFU d          10.018   4.902  -3.835  0.00  0.00     0.094 H 
ATOM      9  H3  MFU d          11.944   2.958  -2.485  0.00  0.00     0.091 H 
ATOM     10  H4  MFU d          13.744   4.230  -3.470  0.00  0.00     0.091 H 
ATOM     11  H5  MFU d          12.942   2.505  -4.974  0.00  0.00     0.086 H 
ENDROOT
BRANCH   1  12
ATOM     12  O1  MFU d          10.691   1.681  -4.496  0.00  0.00    -0.363 OA
BRANCH  12  13
ATOM     13  CM  MFU d           9.841   0.685  -5.085  0.00  0.00     0.007 C 
ATOM     14  H12 MFU d          10.459  -0.094  -5.555  0.00  0.00     0.066 H 
ATOM     15  H13 MFU d           9.200   1.154  -5.848  0.00  0.00     0.066 H 
ATOM     16  H14 MFU d           9.211   0.232  -4.305  0.00  0.00     0.066 H 
ENDBRANCH  12  13
ENDBRANCH   1  12
BRANCH   2  17
ATOM     17  O2  MFU d           9.347   3.422  -2.556  0.00  0.00    -0.388 OA
ATOM     18  H9  MFU d           9.806   3.175  -1.761  0.00  0.00     0.210 HD
ENDBRANCH   2  17
BRANCH   3  19
ATOM     19  O3  MFU d          11.692   4.933  -1.862  0.00  0.00    -0.390 OA
ATOM     20  H10 MFU d          12.274   5.644  -2.103  0.00  0.00     0.210 HD
ENDBRANCH   3  19
BRANCH   5  21
ATOM     21  C6  MFU d          13.701   4.041  -6.257  0.00  0.00    -0.050 C 
ATOM     22  H6  MFU d          14.590   3.394  -6.239  0.00  0.00     0.031 H 
ATOM     23  H7  MFU d          13.995   5.075  -6.021  0.00  0.00     0.031 H 
ATOM     24  H8  MFU d          13.244   4.008  -7.257  0.00  0.00     0.031 H 
ENDBRANCH   5  21
BRANCH   4  25
ATOM     25  O4  MFU d          12.549   5.757  -4.230  0.00  0.00    -0.390 OA
ATOM     26  H11 MFU d          13.384   6.209  -4.201  0.00  0.00     0.210 HD
ENDBRANCH   4  25
TORSDOF 6
ENDMDL
MODEL 8
REMARK VINA RESULT:      -4.4      1.622      3.076
REMARK  6 active torsions:
REMARK  status: ('A' for Active; 'I' for Inactive)
REMARK    1  A    between atoms: C1_1  and  O1_7 
REMARK    2  A    between atoms: C2_2  and  O2_8 
REMARK    3  A    between atoms: C3_3  and  O3_9 
REMARK    4  A    between atoms: C4_4  and  O4_10 
REMARK    5  A    between atoms: C5_5  and  C6_6 
REMARK    6  A    between atoms: O1_7  and  CM_12 
ROOT
ATOM      1  C1  MFU d          10.422   5.656  -4.001  0.00  0.00     0.158 C 
ATOM      2  C2  MFU d          10.706   4.403  -3.146  0.00  0.00     0.110 C 
ATOM      3  C3  MFU d          11.770   3.540  -3.818  0.00  0.00     0.092 C 
ATOM      4  C4  MFU d          12.993   4.376  -4.195  0.00  0.00     0.087 C 
ATOM      5  C5  MFU d          12.632   5.653  -4.964  0.00  0.00     0.065 C 
ATOM      6  O5  MFU d          11.642   6.395  -4.237  0.00  0.00    -0.351 OA
ATOM      7  H1  MFU d           9.709   6.302  -3.469  0.00  0.00     0.133 H 
ATOM      8  H2  MFU d          11.104   4.752  -2.182  0.00  0.00     0.094 H 
ATOM      9  H3  MFU d          11.345   3.073  -4.719  0.00  0.00     0.091 H 
ATOM     10  H4  MFU d          13.656   3.764  -4.825  0.00  0.00     0.091 H 
ATOM     11  H5  MFU d          12.196   5.355  -5.929  0.00  0.00     0.086 H 
ENDROOT
BRANCH   1  12
ATOM     12  O1  MFU d           9.849   5.245  -5.256  0.00  0.00    -0.363 OA
BRANCH  12  13
ATOM     13  CM  MFU d           9.441   6.319  -6.118  0.00  0.00     0.007 C 
ATOM     14  H12 MFU d           8.569   6.828  -5.681  0.00  0.00     0.066 H 
ATOM     15  H13 MFU d           9.174   5.916  -7.106  0.00  0.00     0.066 H 
ATOM     16  H14 MFU d          10.268   7.037  -6.225  0.00  0.00     0.066 H 
ENDBRANCH  12  13
ENDBRANCH   1  12
BRANCH   2  17
ATOM     17  O2  MFU d           9.541   3.580  -2.861  0.00  0.00    -0.388 OA
ATOM     18  H9  MFU d           9.315   3.074  -3.633  0.00  0.00     0.210 HD
ENDBRANCH   2  17
BRANCH   3  19
ATOM     19  O3  MFU d          12.216   2.530  -2.903  0.00  0.00    -0.390 OA
ATOM     20  H10 MFU d          11.723   2.596  -2.094  0.00  0.00     0.210 HD
ENDBRANCH   3  19
BRANCH   5  21
ATOM     21  C6  MFU d          13.862   6.517  -5.256  0.00  0.00    -0.050 C 
ATOM     22  H6  MFU d          13.553   7.564  -5.385  0.00  0.00     0.031 H 
ATOM     23  H7  MFU d          14.349   6.163  -6.178  0.00  0.00     0.031 H 
ATOM     24  H8  MFU d          14.569   6.443  -4.417  0.00  0.00     0.031 H 
ENDBRANCH   5  21
BRANCH   4  25
ATOM     25  O4  MFU d          13.683   4.734  -2.983  0.00  0.00    -0.390 OA
ATOM     26  H11 MFU d          14.220   4.004  -2.698  0.00  0.00     0.210 HD
ENDBRANCH   4  25
TORSDOF 6
ENDMDL
MODEL 9
REMARK VINA RESULT:      -3.6      1.777      1.932
REMARK  6 active torsions:
REMARK  status: ('A' for Active; 'I' for Inactive)
REMARK    1  A    between atoms: C1_1  and  O1_7 
REMARK    2  A    between atoms: C2_2  and  O2_8 
REMARK    3  A    between atoms: C3_3  and  O3_9 
REMARK    4  A    between atoms: C4_4  and  O4_10 
REMARK    5  A    between atoms: C5_5  and  C6_6 
REMARK    6  A    between atoms: O1_7  and  CM_12 
ROOT
ATOM      1  C1  MFU d          12.184   3.762  -3.526  0.00  0.00     0.158 C 
ATOM      2  C2  MFU d          10.768   3.532  -4.093  0.00  0.00     0.110 C 
ATOM      3  C3  MFU d          10.855   2.912  -5.484  0.00  0.00     0.092 C 
ATOM      4  C4  MFU d          11.774   1.690  -5.482  0.00  0.00     0.087 C 
ATOM      5  C5  MFU d          13.132   1.965  -4.822  0.00  0.00     0.065 C 
ATOM      6  O5  MFU d          12.934   2.526  -3.517  0.00  0.00    -0.351 OA
ATOM      7  H1  MFU d          12.104   4.141  -2.496  0.00  0.00     0.133 H 
ATOM      8  H2  MFU d          10.265   2.814  -3.427  0.00  0.00     0.094 H 
ATOM      9  H3  MFU d          11.233   3.662  -6.195  0.00  0.00     0.091 H 
ATOM     10  H4  MFU d          11.948   1.380  -6.523  0.00  0.00     0.091 H 
ATOM     11  H5  MFU d          13.663   2.706  -5.437  0.00  0.00     0.086 H 
ENDROOT
BRANCH   1  12
ATOM     12  O1  MFU d          12.860   4.738  -4.341  0.00  0.00    -0.363 OA
BRANCH  12  13
ATOM     13  CM  MFU d          13.280   5.923  -3.646  0.00  0.00     0.007 C 
ATOM     14  H12 MFU d          14.162   6.349  -4.148  0.00  0.00     0.066 H 
ATOM     15  H13 MFU d          13.538   5.667  -2.607  0.00  0.00     0.066 H 
ATOM     16  H14 MFU d          12.464   6.660  -3.651  0.00  0.00     0.066 H 
ENDBRANCH  12  13
ENDBRANCH   1  12
BRANCH   2  17
ATOM     17  O2  MFU d           9.933   4.721  -4.157  0.00  0.00    -0.388 OA
ATOM     18  H9  MFU d           9.771   5.040  -3.277  0.00  0.00     0.210 HD
ENDBRANCH   2  17
BRANCH   3  19
ATOM     19  O3  MFU d           9.556   2.459  -5.890  0.00  0.00    -0.390 OA
ATOM     20  H10 MFU d           9.418   1.573  -5.576  0.00  0.00     0.210 HD
ENDBRANCH   3  19
BRANCH   5  21
ATOM     21  C6  MFU d          14.004   0.707  -4.754  0.00  0.00    -0.050 C 
ATOM     22  H6  MFU d          13.394  -0.175  -4.998  0.00  0.00     0.031 H 
ATOM     23  H7  MFU d          14.413   0.599  -3.738  0.00  0.00     0.031 H 
ATOM     24  H8  MFU d          14.829   0.794  -5.475  0.00  0.00     0.031 H 
ENDBRANCH   5  21
BRANCH   4  25
ATOM     25  O4  MFU d          11.110   0.629  -4.771  0.00  0.00    -0.390 OA
ATOM     26  H11 MFU d          11.128   0.814  -3.839  0.00  0.00     0.210 HD
ENDBRANCH   4  25
TORSDOF 6
ENDMDL
MODEL 10
REMARK VINA RESULT:      -3.5      1.650      4.254
REMARK  6 active torsions:
REMARK  status: ('A' for Active; 'I' for Inactive)
REMARK    1  A    between atoms: C1_1  and  O1_7 
REMARK    2  A    between atoms: C2_2  and  O2_8 
REMARK    3  A    between atoms: C3_3  and  O3_9 
REMARK    4  A    between atoms: C4_4  and  O4_10 
REMARK    5  A    between atoms: C5_5  and  C6_6 
REMARK    6  A    between atoms: O1_7  and  CM_12 
ROOT
ATOM      1  C1  MFU d          10.474   2.457  -3.356  0.00  0.00     0.158 C 
ATOM      2  C2  MFU d          12.010   2.388  -3.484  0.00  0.00     0.110 C 
ATOM      3  C3  MFU d          12.487   3.331  -4.584  0.00  0.00     0.092 C 
ATOM      4  C4  MFU d          11.901   4.730  -4.397  0.00  0.00     0.087 C 
ATOM      5  C5  MFU d          10.381   4.719  -4.185  0.00  0.00     0.065 C 
ATOM      6  O5  MFU d          10.046   3.817  -3.120  0.00  0.00    -0.351 OA
ATOM      7  H1  MFU d          10.153   1.829  -2.512  0.00  0.00     0.133 H 
ATOM      8  H2  MFU d          12.431   2.734  -2.528  0.00  0.00     0.094 H 
ATOM      9  H3  MFU d          12.189   2.929  -5.564  0.00  0.00     0.091 H 
ATOM     10  H4  MFU d          12.123   5.327  -5.294  0.00  0.00     0.091 H 
ATOM     11  H5  MFU d           9.913   4.346  -5.108  0.00  0.00     0.086 H 
ENDROOT
BRANCH   1  12
ATOM     12  O1  MFU d           9.881   1.962  -4.571  0.00  0.00    -0.363 OA
BRANCH  12  13
ATOM     13  CM  MFU d           9.322   0.642  -4.480  0.00  0.00     0.007 C 
ATOM     14  H12 MFU d          10.125  -0.083  -4.279  0.00  0.00     0.066 H 
ATOM     15  H13 MFU d           8.827   0.388  -5.429  0.00  0.00     0.066 H 
ATOM     16  H14 MFU d           8.587   0.611  -3.662  0.00  0.00     0.066 H 
ENDBRANCH  12  13
ENDBRANCH   1  12
BRANCH   2  17
ATOM     17  O2  MFU d          12.544   1.059  -3.736  0.00  0.00    -0.388 OA
ATOM     18  H9  MFU d          13.181   1.103  -4.439  0.00  0.00     0.210 HD
ENDBRANCH   2  17
BRANCH   3  19
ATOM     19  O3  MFU d          13.914   3.461  -4.519  0.00  0.00    -0.390 OA
ATOM     20  H10 MFU d          14.162   4.345  -4.764  0.00  0.00     0.210 HD
ENDBRANCH   3  19
BRANCH   5  21
ATOM     21  C6  MFU d           9.827   6.120  -3.915  0.00  0.00    -0.050 C 
ATOM     22  H6  MFU d           9.091   6.073  -3.098  0.00  0.00     0.031 H 
ATOM     23  H7  MFU d           9.340   6.504  -4.824  0.00  0.00     0.031 H 
ATOM     24  H8  MFU d          10.650   6.791  -3.628  0.00  0.00     0.031 H 
ENDBRANCH   5  21
BRANCH   4  25
ATOM     25  O4  MFU d          12.533   5.333  -3.252  0.00  0.00    -0.390 OA
ATOM     26  H11 MFU d          13.430   5.027  -3.190  0.00  0.00     0.210 HD
ENDBRANCH   4  25
TORSDOF 6
ENDMDL
