MODEL 1
REMARK VINA RESULT:      -7.0      0.000      0.000
REMARK  10 active torsions:
REMARK  status: ('A' for Active; 'I' for Inactive)
REMARK    1  A    between atoms: C12_12  and  C21_21 
REMARK    2  A    between atoms: C13_13  and  C22_22 
REMARK    3  A    between atoms: C24_24  and  C14_14 
REMARK    4  A    between atoms: C25_25  and  C15_15 
REMARK    5  A    between atoms: C26_26  and  C16_16 
REMARK    6  A    between atoms: C27_27  and  C20_20 
REMARK       I    between atoms: C21_21  and  N28_28 
REMARK    7  A    between atoms: N28_28  and  C24_24 
REMARK    8  A    between atoms: N29_29  and  C25_25 
REMARK    9  A    between atoms: N29_29  and  C26_26 
REMARK   10  A    between atoms: C27_27  and  N29_29 
ROOT
ATOM      1  C25 N44 d          -9.385  44.009  -1.537  0.00  0.00     0.109 C 
ATOM      2  H19 N44 d          -9.238  43.446  -2.471  0.00  0.00     0.083 H 
ATOM      3  H20 N44 d          -8.876  44.981  -1.612  0.00  0.00     0.083 H 
ENDROOT
BRANCH   1   4
ATOM      4  C15 N44 d          -8.751  43.240  -0.431  0.00  0.00    -0.017 A 
ATOM      5  C9  N44 d          -8.934  41.871  -0.414  0.00  0.00    -0.074 A 
ATOM      6  C5  N44 d          -8.380  41.086   0.582  0.00  0.00    -0.082 A 
ATOM      7  H9  N44 d          -9.522  41.402  -1.194  0.00  0.00     0.084 H 
ATOM      8  C2  N44 d          -7.641  41.694   1.567  0.00  0.00    -0.082 A 
ATOM      9  H5  N44 d          -8.526  40.012   0.586  0.00  0.00     0.083 H 
ATOM     10  C6  N44 d          -7.449  43.063   1.560  0.00  0.00    -0.067 A 
ATOM     11  H2  N44 d          -7.203  41.095   2.357  0.00  0.00     0.083 H 
ATOM     12  C12 N44 d          -7.998  43.850   0.563  0.00  0.00     0.040 A 
ATOM     13  H6  N44 d          -6.863  43.525   2.346  0.00  0.00     0.085 H 
BRANCH  12  14
ATOM     14  C21 N44 d          -7.775  45.327   0.593  0.00  0.00     0.252 C 
ATOM     15  N28 N44 d          -8.139  46.026   1.736  0.00  0.00    -0.353 N 
ATOM     16  H25 N44 d          -8.533  45.537   2.514  0.00  0.00     0.163 HD
ATOM     17  O31 N44 d          -7.291  45.876  -0.384  0.00  0.00    -0.268 OA
BRANCH  15  18
ATOM     18  C24 N44 d          -7.950  47.460   1.807  0.00  0.00     0.019 C 
ATOM     19  H17 N44 d          -7.101  47.680   2.471  0.00  0.00     0.071 H 
ATOM     20  H18 N44 d          -7.735  47.845   0.798  0.00  0.00     0.071 H 
BRANCH  18  21
ATOM     21  C14 N44 d          -9.174  48.136   2.338  0.00  0.00    -0.041 A 
ATOM     22  C7  N44 d          -9.338  49.497   2.197  0.00  0.00    -0.075 A 
ATOM     23  C3  N44 d         -10.470  50.121   2.668  0.00  0.00    -0.082 A 
ATOM     24  H7  N44 d          -8.567  50.082   1.711  0.00  0.00     0.084 H 
ATOM     25  C1  N44 d         -11.455  49.386   3.292  0.00  0.00    -0.083 A 
ATOM     26  H3  N44 d         -10.588  51.191   2.547  0.00  0.00     0.083 H 
ATOM     27  C4  N44 d         -11.292  48.028   3.455  0.00  0.00    -0.082 A 
ATOM     28  H1  N44 d         -12.354  49.874   3.653  0.00  0.00     0.083 H 
ATOM     29  C8  N44 d         -10.159  47.405   2.974  0.00  0.00    -0.075 A 
ATOM     30  H4  N44 d         -12.054  47.448   3.961  0.00  0.00     0.083 H 
ATOM     31  H8  N44 d         -10.040  46.334   3.097  0.00  0.00     0.084 H 
ENDBRANCH  18  21
ENDBRANCH  15  18
ENDBRANCH  12  14
ENDBRANCH   1   4
BRANCH   1  32
ATOM     32  N29 N44 d         -10.841  44.264  -1.379  0.00  0.00    -0.060 N 
ATOM     33  H26 N44 d         -11.030  45.014  -2.026  0.00  0.00     0.281 HD
BRANCH  32  34
ATOM     34  C26 N44 d         -11.275  44.832  -0.053  0.00  0.00     0.109 C 
ATOM     35  H21 N44 d         -12.172  44.299   0.293  0.00  0.00     0.083 H 
ATOM     36  H22 N44 d         -10.465  44.701   0.679  0.00  0.00     0.083 H 
BRANCH  34  37
ATOM     37  C16 N44 d         -11.590  46.296  -0.185  0.00  0.00    -0.013 A 
ATOM     38  C10 N44 d         -10.625  47.113  -0.774  0.00  0.00    -0.071 A 
ATOM     39  C11 N44 d         -10.831  48.478  -0.931  0.00  0.00    -0.047 A 
ATOM     40  H10 N44 d          -9.695  46.675  -1.117  0.00  0.00     0.084 H 
ATOM     41  C17 N44 d         -12.028  48.979  -0.474  0.00  0.00     0.106 A 
ATOM     42  H11 N44 d         -10.085  49.117  -1.392  0.00  0.00     0.087 H 
ATOM     43  C18 N44 d         -12.984  48.185   0.109  0.00  0.00     0.122 A 
ATOM     44  O33 N44 d         -12.397  50.300  -0.540  0.00  0.00    -0.323 OA
ATOM     45  C13 N44 d         -12.800  46.819   0.279  0.00  0.00     0.085 A 
ATOM     46  O34 N44 d         -14.100  48.928   0.494  0.00  0.00    -0.322 OA
ATOM     47  C23 N44 d         -13.707  50.246   0.070  0.00  0.00     0.115 A 
ATOM     48  H15 N44 d         -14.445  50.609  -0.661  0.00  0.00     0.118 H 
ATOM     49  H16 N44 d         -13.706  50.907   0.949  0.00  0.00     0.118 H 
BRANCH  45  50
ATOM     50  C22 N44 d         -13.867  45.955   0.902  0.00  0.00     0.212 C 
ATOM     51  O30 N44 d         -13.831  45.835   2.158  0.00  0.00    -0.644 OA
ATOM     52  O32 N44 d         -14.767  45.425   0.182  0.00  0.00    -0.644 OA
ENDBRANCH  45  50
ENDBRANCH  34  37
ENDBRANCH  32  34
BRANCH  32  53
ATOM     53  C27 N44 d         -11.661  43.117  -1.896  0.00  0.00     0.099 C 
ATOM     54  H23 N44 d         -11.346  42.908  -2.928  0.00  0.00     0.082 H 
ATOM     55  H24 N44 d         -11.459  42.239  -1.264  0.00  0.00     0.082 H 
BRANCH  53  56
ATOM     56  C20 N44 d         -13.131  43.361  -1.897  0.00  0.00    -0.087 C 
ATOM     57  C19 N44 d         -13.695  44.280  -2.691  0.00  0.00    -0.123 C 
ATOM     58  H12 N44 d         -14.773  44.432  -2.667  0.00  0.00     0.066 H 
ATOM     59  H13 N44 d         -13.076  44.874  -3.360  0.00  0.00     0.066 H 
ATOM     60  H14 N44 d         -13.765  42.775  -1.234  0.00  0.00     0.078 H 
ENDBRANCH  53  56
ENDBRANCH  32  53
ENDBRANCH   1  32
TORSDOF 10
ENDMDL
MODEL 2
REMARK VINA RESULT:      -6.9      2.001      3.817
REMARK  10 active torsions:
REMARK  status: ('A' for Active; 'I' for Inactive)
REMARK    1  A    between atoms: C12_12  and  C21_21 
REMARK    2  A    between atoms: C13_13  and  C22_22 
REMARK    3  A    between atoms: C24_24  and  C14_14 
REMARK    4  A    between atoms: C25_25  and  C15_15 
REMARK    5  A    between atoms: C26_26  and  C16_16 
REMARK    6  A    between atoms: C27_27  and  C20_20 
REMARK       I    between atoms: C21_21  and  N28_28 
REMARK    7  A    between atoms: N28_28  and  C24_24 
REMARK    8  A    between atoms: N29_29  and  C25_25 
REMARK    9  A    between atoms: N29_29  and  C26_26 
REMARK   10  A    between atoms: C27_27  and  N29_29 
ROOT
ATOM      1  C25 N44 d          -8.774  45.313   0.595  0.00  0.00     0.109 C 
ATOM      2  H19 N44 d          -8.557  45.735  -0.397  0.00  0.00     0.083 H 
ATOM      3  H20 N44 d          -8.009  45.650   1.311  0.00  0.00     0.083 H 
ENDROOT
BRANCH   1   4
ATOM      4  C15 N44 d          -8.687  43.830   0.493  0.00  0.00    -0.017 A 
ATOM      5  C9  N44 d          -9.489  43.202  -0.441  0.00  0.00    -0.074 A 
ATOM      6  C5  N44 d          -9.469  41.827  -0.595  0.00  0.00    -0.082 A 
ATOM      7  H9  N44 d         -10.145  43.798  -1.065  0.00  0.00     0.084 H 
ATOM      8  C2  N44 d          -8.635  41.086   0.205  0.00  0.00    -0.082 A 
ATOM      9  H5  N44 d         -10.099  41.345  -1.333  0.00  0.00     0.083 H 
ATOM     10  C6  N44 d          -7.828  41.701   1.142  0.00  0.00    -0.067 A 
ATOM     11  H2  N44 d          -8.610  40.007   0.101  0.00  0.00     0.083 H 
ATOM     12  C12 N44 d          -7.841  43.077   1.296  0.00  0.00     0.040 A 
ATOM     13  H6  N44 d          -7.176  41.099   1.765  0.00  0.00     0.085 H 
BRANCH  12  14
ATOM     14  C21 N44 d          -6.959  43.705   2.325  0.00  0.00     0.252 C 
ATOM     15  N28 N44 d          -7.513  44.042   3.552  0.00  0.00    -0.353 N 
ATOM     16  H25 N44 d          -8.479  43.857   3.730  0.00  0.00     0.163 HD
ATOM     17  O31 N44 d          -5.786  43.911   2.057  0.00  0.00    -0.268 OA
BRANCH  15  18
ATOM     18  C24 N44 d          -6.697  44.662   4.576  0.00  0.00     0.019 C 
ATOM     19  H17 N44 d          -6.909  44.184   5.544  0.00  0.00     0.071 H 
ATOM     20  H18 N44 d          -5.635  44.524   4.323  0.00  0.00     0.071 H 
BRANCH  18  21
ATOM     21  C14 N44 d          -6.989  46.126   4.680  0.00  0.00    -0.041 A 
ATOM     22  C7  N44 d          -6.690  46.974   3.637  0.00  0.00    -0.075 A 
ATOM     23  C3  N44 d          -6.973  48.318   3.719  0.00  0.00    -0.082 A 
ATOM     24  H7  N44 d          -6.226  46.579   2.741  0.00  0.00     0.084 H 
ATOM     25  C1  N44 d          -7.559  48.831   4.857  0.00  0.00    -0.083 A 
ATOM     26  H3  N44 d          -6.735  48.973   2.890  0.00  0.00     0.083 H 
ATOM     27  C4  N44 d          -7.844  47.995   5.913  0.00  0.00    -0.082 A 
ATOM     28  H1  N44 d          -7.794  49.888   4.920  0.00  0.00     0.083 H 
ATOM     29  C8  N44 d          -7.567  46.647   5.823  0.00  0.00    -0.075 A 
ATOM     30  H4  N44 d          -8.288  48.396   6.816  0.00  0.00     0.083 H 
ATOM     31  H8  N44 d          -7.803  45.992   6.654  0.00  0.00     0.084 H 
ENDBRANCH  18  21
ENDBRANCH  15  18
ENDBRANCH  12  14
ENDBRANCH   1   4
BRANCH   1  32
ATOM     32  N29 N44 d         -10.088  45.842   1.044  0.00  0.00    -0.060 N 
ATOM     33  H26 N44 d         -10.692  45.035   1.039  0.00  0.00     0.281 HD
BRANCH  32  34
ATOM     34  C26 N44 d         -10.776  46.796   0.102  0.00  0.00     0.109 C 
ATOM     35  H21 N44 d         -11.278  47.581   0.685  0.00  0.00     0.083 H 
ATOM     36  H22 N44 d         -10.026  47.254  -0.560  0.00  0.00     0.083 H 
BRANCH  34  37
ATOM     37  C16 N44 d         -11.794  46.070  -0.731  0.00  0.00    -0.013 A 
ATOM     38  C10 N44 d         -11.367  45.521  -1.941  0.00  0.00    -0.071 A 
ATOM     39  C11 N44 d         -12.242  44.838  -2.776  0.00  0.00    -0.047 A 
ATOM     40  H10 N44 d         -10.329  45.631  -2.236  0.00  0.00     0.084 H 
ATOM     41  C17 N44 d         -13.547  44.735  -2.351  0.00  0.00     0.106 A 
ATOM     42  H11 N44 d         -11.913  44.407  -3.715  0.00  0.00     0.087 H 
ATOM     43  C18 N44 d         -13.979  45.272  -1.164  0.00  0.00     0.122 A 
ATOM     44  O33 N44 d         -14.546  44.103  -3.048  0.00  0.00    -0.323 OA
ATOM     45  C13 N44 d         -13.123  45.961  -0.314  0.00  0.00     0.085 A 
ATOM     46  O34 N44 d         -15.340  45.040  -0.965  0.00  0.00    -0.322 OA
ATOM     47  C23 N44 d         -15.667  44.302  -2.156  0.00  0.00     0.115 A 
ATOM     48  H15 N44 d         -16.051  43.315  -1.858  0.00  0.00     0.118 H 
ATOM     49  H16 N44 d         -16.449  44.852  -2.701  0.00  0.00     0.118 H 
BRANCH  45  50
ATOM     50  C22 N44 d         -13.607  46.526   0.997  0.00  0.00     0.212 C 
ATOM     51  O30 N44 d         -13.638  45.729   1.975  0.00  0.00    -0.644 OA
ATOM     52  O32 N44 d         -13.918  47.752   1.093  0.00  0.00    -0.644 OA
ENDBRANCH  45  50
ENDBRANCH  34  37
ENDBRANCH  32  34
BRANCH  32  53
ATOM     53  C27 N44 d         -10.049  46.265   2.484  0.00  0.00     0.099 C 
ATOM     54  H23 N44 d         -10.609  45.524   3.074  0.00  0.00     0.082 H 
ATOM     55  H24 N44 d          -8.999  46.277   2.811  0.00  0.00     0.082 H 
BRANCH  53  56
ATOM     56  C20 N44 d         -10.634  47.610   2.749  0.00  0.00    -0.087 C 
ATOM     57  C19 N44 d         -11.022  47.984   3.974  0.00  0.00    -0.123 C 
ATOM     58  H12 N44 d         -11.445  48.974   4.132  0.00  0.00     0.066 H 
ATOM     59  H13 N44 d         -10.915  47.297   4.812  0.00  0.00     0.066 H 
ATOM     60  H14 N44 d         -10.749  48.309   1.922  0.00  0.00     0.078 H 
ENDBRANCH  53  56
ENDBRANCH  32  53
ENDBRANCH   1  32
TORSDOF 10
ENDMDL
MODEL 3
REMARK VINA RESULT:      -6.9      1.810      5.035
REMARK  10 active torsions:
REMARK  status: ('A' for Active; 'I' for Inactive)
REMARK    1  A    between atoms: C12_12  and  C21_21 
REMARK    2  A    between atoms: C13_13  and  C22_22 
REMARK    3  A    between atoms: C24_24  and  C14_14 
REMARK    4  A    between atoms: C25_25  and  C15_15 
REMARK    5  A    between atoms: C26_26  and  C16_16 
REMARK    6  A    between atoms: C27_27  and  C20_20 
REMARK       I    between atoms: C21_21  and  N28_28 
REMARK    7  A    between atoms: N28_28  and  C24_24 
REMARK    8  A    between atoms: N29_29  and  C25_25 
REMARK    9  A    between atoms: N29_29  and  C26_26 
REMARK   10  A    between atoms: C27_27  and  N29_29 
ROOT
ATOM      1  C25 N44 d          -7.982  46.004   0.746  0.00  0.00     0.109 C 
ATOM      2  H19 N44 d          -9.048  45.731   0.735  0.00  0.00     0.083 H 
ATOM      3  H20 N44 d          -7.619  46.105  -0.287  0.00  0.00     0.083 H 
ENDROOT
BRANCH   1   4
ATOM      4  C15 N44 d          -7.229  44.895   1.393  0.00  0.00    -0.017 A 
ATOM      5  C9  N44 d          -6.426  45.207   2.473  0.00  0.00    -0.074 A 
ATOM      6  C5  N44 d          -5.691  44.233   3.126  0.00  0.00    -0.082 A 
ATOM      7  H9  N44 d          -6.370  46.234   2.816  0.00  0.00     0.084 H 
ATOM      8  C2  N44 d          -5.769  42.937   2.678  0.00  0.00    -0.082 A 
ATOM      9  H5  N44 d          -5.067  44.488   3.974  0.00  0.00     0.083 H 
ATOM     10  C6  N44 d          -6.569  42.612   1.599  0.00  0.00    -0.067 A 
ATOM     11  H2  N44 d          -5.197  42.162   3.175  0.00  0.00     0.083 H 
ATOM     12  C12 N44 d          -7.309  43.582   0.947  0.00  0.00     0.040 A 
ATOM     13  H6  N44 d          -6.618  41.583   1.260  0.00  0.00     0.085 H 
BRANCH  12  14
ATOM     14  C21 N44 d          -8.157  43.193  -0.219  0.00  0.00     0.252 C 
ATOM     15  N28 N44 d          -9.438  42.718   0.025  0.00  0.00    -0.353 N 
ATOM     16  H25 N44 d          -9.773  42.650   0.964  0.00  0.00     0.163 HD
ATOM     17  O31 N44 d          -7.699  43.293  -1.347  0.00  0.00    -0.268 OA
BRANCH  15  18
ATOM     18  C24 N44 d         -10.291  42.318  -1.076  0.00  0.00     0.019 C 
ATOM     19  H17 N44 d          -9.666  42.076  -1.947  0.00  0.00     0.071 H 
ATOM     20  H18 N44 d         -10.868  41.429  -0.780  0.00  0.00     0.071 H 
BRANCH  18  21
ATOM     21  C14 N44 d         -11.239  43.416  -1.444  0.00  0.00    -0.041 A 
ATOM     22  C7  N44 d         -12.575  43.149  -1.645  0.00  0.00    -0.075 A 
ATOM     23  C3  N44 d         -13.454  44.157  -1.966  0.00  0.00    -0.082 A 
ATOM     24  H7  N44 d         -12.938  42.132  -1.550  0.00  0.00     0.084 H 
ATOM     25  C1  N44 d         -13.001  45.452  -2.095  0.00  0.00    -0.083 A 
ATOM     26  H3  N44 d         -14.503  43.932  -2.118  0.00  0.00     0.083 H 
ATOM     27  C4  N44 d         -11.664  45.727  -1.915  0.00  0.00    -0.082 A 
ATOM     28  H1  N44 d         -13.694  46.251  -2.336  0.00  0.00     0.083 H 
ATOM     29  C8  N44 d         -10.787  44.715  -1.585  0.00  0.00    -0.075 A 
ATOM     30  H4  N44 d         -11.299  46.741  -2.033  0.00  0.00     0.083 H 
ATOM     31  H8  N44 d          -9.737  44.939  -1.435  0.00  0.00     0.084 H 
ENDBRANCH  18  21
ENDBRANCH  15  18
ENDBRANCH  12  14
ENDBRANCH   1   4
BRANCH   1  32
ATOM     32  N29 N44 d          -7.855  47.329   1.409  0.00  0.00    -0.060 N 
ATOM     33  H26 N44 d          -6.975  47.275   1.897  0.00  0.00     0.281 HD
BRANCH  32  34
ATOM     34  C26 N44 d          -8.844  47.619   2.508  0.00  0.00     0.109 C 
ATOM     35  H21 N44 d          -8.467  47.203   3.453  0.00  0.00     0.083 H 
ATOM     36  H22 N44 d          -8.964  48.708   2.609  0.00  0.00     0.083 H 
BRANCH  34  37
ATOM     37  C16 N44 d         -10.177  47.002   2.192  0.00  0.00    -0.013 A 
ATOM     38  C10 N44 d         -10.284  45.614   2.283  0.00  0.00    -0.071 A 
ATOM     39  C11 N44 d         -11.478  44.960   2.004  0.00  0.00    -0.047 A 
ATOM     40  H10 N44 d          -9.418  45.033   2.579  0.00  0.00     0.084 H 
ATOM     41  C17 N44 d         -12.541  45.749   1.630  0.00  0.00     0.106 A 
ATOM     42  H11 N44 d         -11.566  43.882   2.078  0.00  0.00     0.087 H 
ATOM     43  C18 N44 d         -12.447  47.115   1.535  0.00  0.00     0.122 A 
ATOM     44  O33 N44 d         -13.790  45.275   1.312  0.00  0.00    -0.323 OA
ATOM     45  C13 N44 d         -11.265  47.790   1.807  0.00  0.00     0.085 A 
ATOM     46  O34 N44 d         -13.656  47.683   1.131  0.00  0.00    -0.322 OA
ATOM     47  C23 N44 d         -14.478  46.508   1.005  0.00  0.00     0.115 A 
ATOM     48  H15 N44 d         -15.332  46.608   1.692  0.00  0.00     0.118 H 
ATOM     49  H16 N44 d         -14.845  46.452  -0.031  0.00  0.00     0.118 H 
BRANCH  45  50
ATOM     50  C22 N44 d         -11.182  49.294   1.719  0.00  0.00     0.212 C 
ATOM     51  O30 N44 d         -11.449  49.933   2.774  0.00  0.00    -0.644 OA
ATOM     52  O32 N44 d         -10.818  49.855   0.642  0.00  0.00    -0.644 OA
ENDBRANCH  45  50
ENDBRANCH  34  37
ENDBRANCH  32  34
BRANCH  32  53
ATOM     53  C27 N44 d          -7.654  48.429   0.407  0.00  0.00     0.099 C 
ATOM     54  H23 N44 d          -8.643  48.783   0.083  0.00  0.00     0.082 H 
ATOM     55  H24 N44 d          -7.114  49.250   0.902  0.00  0.00     0.082 H 
BRANCH  53  56
ATOM     56  C20 N44 d          -6.882  48.028  -0.803  0.00  0.00    -0.087 C 
ATOM     57  C19 N44 d          -5.600  48.374  -0.972  0.00  0.00    -0.123 C 
ATOM     58  H12 N44 d          -5.066  48.064  -1.869  0.00  0.00     0.066 H 
ATOM     59  H13 N44 d          -5.092  48.965  -0.212  0.00  0.00     0.066 H 
ATOM     60  H14 N44 d          -7.376  47.438  -1.573  0.00  0.00     0.078 H 
ENDBRANCH  53  56
ENDBRANCH  32  53
ENDBRANCH   1  32
TORSDOF 10
ENDMDL
MODEL 4
REMARK VINA RESULT:      -6.8      1.950      5.374
REMARK  10 active torsions:
REMARK  status: ('A' for Active; 'I' for Inactive)
REMARK    1  A    between atoms: C12_12  and  C21_21 
REMARK    2  A    between atoms: C13_13  and  C22_22 
REMARK    3  A    between atoms: C24_24  and  C14_14 
REMARK    4  A    between atoms: C25_25  and  C15_15 
REMARK    5  A    between atoms: C26_26  and  C16_16 
REMARK    6  A    between atoms: C27_27  and  C20_20 
REMARK       I    between atoms: C21_21  and  N28_28 
REMARK    7  A    between atoms: N28_28  and  C24_24 
REMARK    8  A    between atoms: N29_29  and  C25_25 
REMARK    9  A    between atoms: N29_29  and  C26_26 
REMARK   10  A    between atoms: C27_27  and  N29_29 
ROOT
ATOM      1  C25 N44 d          -9.071  48.532   1.582  0.00  0.00     0.109 C 
ATOM      2  H19 N44 d          -9.543  49.466   1.922  0.00  0.00     0.083 H 
ATOM      3  H20 N44 d          -8.536  48.065   2.422  0.00  0.00     0.083 H 
ENDROOT
BRANCH   1   4
ATOM      4  C15 N44 d          -8.072  48.877   0.534  0.00  0.00    -0.017 A 
ATOM      5  C9  N44 d          -8.227  50.077  -0.132  0.00  0.00    -0.074 A 
ATOM      6  C5  N44 d          -7.343  50.468  -1.122  0.00  0.00    -0.082 A 
ATOM      7  H9  N44 d          -9.057  50.725   0.126  0.00  0.00     0.084 H 
ATOM      8  C2  N44 d          -6.299  49.635  -1.441  0.00  0.00    -0.082 A 
ATOM      9  H5  N44 d          -7.471  51.413  -1.636  0.00  0.00     0.083 H 
ATOM     10  C6  N44 d          -6.132  48.432  -0.781  0.00  0.00    -0.067 A 
ATOM     11  H2  N44 d          -5.599  49.923  -2.216  0.00  0.00     0.083 H 
ATOM     12  C12 N44 d          -7.011  48.040   0.213  0.00  0.00     0.040 A 
ATOM     13  H6  N44 d          -5.301  47.787  -1.046  0.00  0.00     0.085 H 
BRANCH  12  14
ATOM     14  C21 N44 d          -6.802  46.729   0.897  0.00  0.00     0.252 C 
ATOM     15  N28 N44 d          -7.292  45.581   0.290  0.00  0.00    -0.353 N 
ATOM     16  H25 N44 d          -7.766  45.646  -0.588  0.00  0.00     0.163 HD
ATOM     17  O31 N44 d          -6.217  46.705   1.969  0.00  0.00    -0.268 OA
BRANCH  15  18
ATOM     18  C24 N44 d          -7.120  44.289   0.923  0.00  0.00     0.019 C 
ATOM     19  H17 N44 d          -6.081  43.958   0.788  0.00  0.00     0.071 H 
ATOM     20  H18 N44 d          -7.339  44.383   1.997  0.00  0.00     0.071 H 
BRANCH  18  21
ATOM     21  C14 N44 d          -8.039  43.272   0.323  0.00  0.00    -0.041 A 
ATOM     22  C7  N44 d          -8.737  43.556  -0.831  0.00  0.00    -0.075 A 
ATOM     23  C3  N44 d          -9.569  42.618  -1.397  0.00  0.00    -0.082 A 
ATOM     24  H7  N44 d          -8.630  44.528  -1.297  0.00  0.00     0.084 H 
ATOM     25  C1  N44 d          -9.717  41.380  -0.809  0.00  0.00    -0.083 A 
ATOM     26  H3  N44 d         -10.109  42.853  -2.307  0.00  0.00     0.083 H 
ATOM     27  C4  N44 d          -9.038  41.094   0.355  0.00  0.00    -0.082 A 
ATOM     28  H1  N44 d         -10.363  40.635  -1.260  0.00  0.00     0.083 H 
ATOM     29  C8  N44 d          -8.198  42.034   0.915  0.00  0.00    -0.075 A 
ATOM     30  H4  N44 d          -9.164  40.129   0.831  0.00  0.00     0.083 H 
ATOM     31  H8  N44 d          -7.660  41.800   1.827  0.00  0.00     0.084 H 
ENDBRANCH  18  21
ENDBRANCH  15  18
ENDBRANCH  12  14
ENDBRANCH   1   4
BRANCH   1  32
ATOM     32  N29 N44 d         -10.149  47.603   1.151  0.00  0.00    -0.060 N 
ATOM     33  H26 N44 d          -9.678  46.942   0.554  0.00  0.00     0.281 HD
BRANCH  32  34
ATOM     34  C26 N44 d         -11.209  48.187   0.254  0.00  0.00     0.109 C 
ATOM     35  H21 N44 d         -11.962  48.699   0.870  0.00  0.00     0.083 H 
ATOM     36  H22 N44 d         -10.744  48.910  -0.432  0.00  0.00     0.083 H 
BRANCH  34  37
ATOM     37  C16 N44 d         -11.876  47.104  -0.545  0.00  0.00    -0.013 A 
ATOM     38  C10 N44 d         -11.124  46.478  -1.540  0.00  0.00    -0.071 A 
ATOM     39  C11 N44 d         -11.664  45.471  -2.329  0.00  0.00    -0.047 A 
ATOM     40  H10 N44 d         -10.097  46.785  -1.700  0.00  0.00     0.084 H 
ATOM     41  C17 N44 d         -12.974  45.128  -2.083  0.00  0.00     0.106 A 
ATOM     42  H11 N44 d         -11.082  44.979  -3.101  0.00  0.00     0.087 H 
ATOM     43  C18 N44 d         -13.723  45.737  -1.109  0.00  0.00     0.122 A 
ATOM     44  O33 N44 d         -13.669  44.162  -2.768  0.00  0.00    -0.323 OA
ATOM     45  C13 N44 d         -13.207  46.748  -0.309  0.00  0.00     0.085 A 
ATOM     46  O34 N44 d         -15.019  45.220  -1.062  0.00  0.00    -0.322 OA
ATOM     47  C23 N44 d         -14.953  44.232  -2.107  0.00  0.00     0.115 A 
ATOM     48  H15 N44 d         -15.170  43.247  -1.667  0.00  0.00     0.118 H 
ATOM     49  H16 N44 d         -15.717  44.474  -2.861  0.00  0.00     0.118 H 
BRANCH  45  50
ATOM     50  C22 N44 d         -14.036  47.394   0.772  0.00  0.00     0.212 C 
ATOM     51  O30 N44 d         -14.324  46.672   1.767  0.00  0.00    -0.644 OA
ATOM     52  O32 N44 d         -14.375  48.612   0.681  0.00  0.00    -0.644 OA
ENDBRANCH  45  50
ENDBRANCH  34  37
ENDBRANCH  32  34
BRANCH  32  53
ATOM     53  C27 N44 d         -10.651  46.772   2.297  0.00  0.00     0.099 C 
ATOM     54  H23 N44 d         -10.192  47.151   3.222  0.00  0.00     0.082 H 
ATOM     55  H24 N44 d         -11.743  46.889   2.353  0.00  0.00     0.082 H 
BRANCH  53  56
ATOM     56  C20 N44 d         -10.343  45.318   2.187  0.00  0.00    -0.087 C 
ATOM     57  C19 N44 d         -11.270  44.425   1.818  0.00  0.00    -0.123 C 
ATOM     58  H12 N44 d         -11.011  43.370   1.748  0.00  0.00     0.066 H 
ATOM     59  H13 N44 d         -12.282  44.754   1.590  0.00  0.00     0.066 H 
ATOM     60  H14 N44 d          -9.336  44.972   2.412  0.00  0.00     0.078 H 
ENDBRANCH  53  56
ENDBRANCH  32  53
ENDBRANCH   1  32
TORSDOF 10
ENDMDL
MODEL 5
REMARK VINA RESULT:      -6.6      1.833      3.170
REMARK  10 active torsions:
REMARK  status: ('A' for Active; 'I' for Inactive)
REMARK    1  A    between atoms: C12_12  and  C21_21 
REMARK    2  A    between atoms: C13_13  and  C22_22 
REMARK    3  A    between atoms: C24_24  and  C14_14 
REMARK    4  A    between atoms: C25_25  and  C15_15 
REMARK    5  A    between atoms: C26_26  and  C16_16 
REMARK    6  A    between atoms: C27_27  and  C20_20 
REMARK       I    between atoms: C21_21  and  N28_28 
REMARK    7  A    between atoms: N28_28  and  C24_24 
REMARK    8  A    between atoms: N29_29  and  C25_25 
REMARK    9  A    between atoms: N29_29  and  C26_26 
REMARK   10  A    between atoms: C27_27  and  N29_29 
ROOT
ATOM      1  C25 N44 d          -8.801  45.705   0.276  0.00  0.00     0.109 C 
ATOM      2  H19 N44 d          -9.103  45.379  -0.731  0.00  0.00     0.083 H 
ATOM      3  H20 N44 d          -8.135  46.576   0.195  0.00  0.00     0.083 H 
ENDROOT
BRANCH   1   4
ATOM      4  C15 N44 d          -8.034  44.596   0.907  0.00  0.00    -0.017 A 
ATOM      5  C9  N44 d          -8.030  43.372   0.266  0.00  0.00    -0.074 A 
ATOM      6  C5  N44 d          -7.344  42.290   0.791  0.00  0.00    -0.082 A 
ATOM      7  H9  N44 d          -8.573  43.256  -0.664  0.00  0.00     0.084 H 
ATOM      8  C2  N44 d          -6.663  42.450   1.972  0.00  0.00    -0.082 A 
ATOM      9  H5  N44 d          -7.344  41.335   0.279  0.00  0.00     0.083 H 
ATOM     10  C6  N44 d          -6.659  43.670   2.623  0.00  0.00    -0.067 A 
ATOM     11  H2  N44 d          -6.124  41.613   2.400  0.00  0.00     0.083 H 
ATOM     12  C12 N44 d          -7.340  44.755   2.099  0.00  0.00     0.040 A 
ATOM     13  H6  N44 d          -6.116  43.778   3.555  0.00  0.00     0.085 H 
BRANCH  12  14
ATOM     14  C21 N44 d          -7.318  46.055   2.835  0.00  0.00     0.252 C 
ATOM     15  N28 N44 d          -8.224  46.243   3.870  0.00  0.00    -0.353 N 
ATOM     16  H25 N44 d          -8.864  45.513   4.109  0.00  0.00     0.163 HD
ATOM     17  O31 N44 d          -6.516  46.914   2.502  0.00  0.00    -0.268 OA
BRANCH  15  18
ATOM     18  C24 N44 d          -8.245  47.491   4.605  0.00  0.00     0.019 C 
ATOM     19  H17 N44 d          -8.431  47.280   5.668  0.00  0.00     0.071 H 
ATOM     20  H18 N44 d          -7.270  47.990   4.495  0.00  0.00     0.071 H 
BRANCH  18  21
ATOM     21  C14 N44 d          -9.320  48.397   4.091  0.00  0.00    -0.041 A 
ATOM     22  C7  N44 d          -8.996  49.545   3.402  0.00  0.00    -0.075 A 
ATOM     23  C3  N44 d          -9.979  50.372   2.912  0.00  0.00    -0.082 A 
ATOM     24  H7  N44 d          -7.954  49.800   3.245  0.00  0.00     0.084 H 
ATOM     25  C1  N44 d         -11.307  50.059   3.110  0.00  0.00    -0.083 A 
ATOM     26  H3  N44 d          -9.710  51.270   2.368  0.00  0.00     0.083 H 
ATOM     27  C4  N44 d         -11.641  48.923   3.814  0.00  0.00    -0.082 A 
ATOM     28  H1  N44 d         -12.085  50.702   2.714  0.00  0.00     0.083 H 
ATOM     29  C8  N44 d         -10.652  48.092   4.297  0.00  0.00    -0.075 A 
ATOM     30  H4  N44 d         -12.683  48.681   3.988  0.00  0.00     0.083 H 
ATOM     31  H8  N44 d         -10.921  47.194   4.842  0.00  0.00     0.084 H 
ENDBRANCH  18  21
ENDBRANCH  15  18
ENDBRANCH  12  14
ENDBRANCH   1   4
BRANCH   1  32
ATOM     32  N29 N44 d         -10.024  46.128   1.008  0.00  0.00    -0.060 N 
ATOM     33  H26 N44 d          -9.705  46.276   1.953  0.00  0.00     0.281 HD
BRANCH  32  34
ATOM     34  C26 N44 d         -11.099  45.085   1.164  0.00  0.00     0.109 C 
ATOM     35  H21 N44 d         -10.630  44.100   1.300  0.00  0.00     0.083 H 
ATOM     36  H22 N44 d         -11.711  45.324   2.046  0.00  0.00     0.083 H 
BRANCH  34  37
ATOM     37  C16 N44 d         -11.978  45.050  -0.054  0.00  0.00    -0.013 A 
ATOM     38  C10 N44 d         -11.432  44.537  -1.231  0.00  0.00    -0.071 A 
ATOM     39  C11 N44 d         -12.172  44.473  -2.405  0.00  0.00    -0.047 A 
ATOM     40  H10 N44 d         -10.408  44.182  -1.230  0.00  0.00     0.084 H 
ATOM     41  C17 N44 d         -13.464  44.942  -2.347  0.00  0.00     0.106 A 
ATOM     42  H11 N44 d         -11.753  44.072  -3.321  0.00  0.00     0.087 H 
ATOM     43  C18 N44 d         -14.012  45.450  -1.195  0.00  0.00     0.122 A 
ATOM     44  O33 N44 d         -14.336  44.962  -3.408  0.00  0.00    -0.323 OA
ATOM     45  C13 N44 d         -13.291  45.527  -0.011  0.00  0.00     0.085 A 
ATOM     46  O34 N44 d         -15.329  45.866  -1.396  0.00  0.00    -0.322 OA
ATOM     47  C23 N44 d         -15.505  45.542  -2.787  0.00  0.00     0.115 A 
ATOM     48  H15 N44 d         -16.335  44.825  -2.874  0.00  0.00     0.118 H 
ATOM     49  H16 N44 d         -15.761  46.466  -3.328  0.00  0.00     0.118 H 
BRANCH  45  50
ATOM     50  C22 N44 d         -13.913  46.068   1.252  0.00  0.00     0.212 C 
ATOM     51  O30 N44 d         -13.743  47.298   1.480  0.00  0.00    -0.644 OA
ATOM     52  O32 N44 d         -14.601  45.314   2.004  0.00  0.00    -0.644 OA
ENDBRANCH  45  50
ENDBRANCH  34  37
ENDBRANCH  32  34
BRANCH  32  53
ATOM     53  C27 N44 d         -10.492  47.483   0.561  0.00  0.00     0.099 C 
ATOM     54  H23 N44 d         -11.552  47.405   0.281  0.00  0.00     0.082 H 
ATOM     55  H24 N44 d         -10.386  48.179   1.407  0.00  0.00     0.082 H 
BRANCH  53  56
ATOM     56  C20 N44 d          -9.743  48.044  -0.599  0.00  0.00    -0.087 C 
ATOM     57  C19 N44 d          -9.255  49.290  -0.590  0.00  0.00    -0.123 C 
ATOM     58  H12 N44 d          -8.712  49.668  -1.455  0.00  0.00     0.066 H 
ATOM     59  H13 N44 d          -9.401  49.926   0.281  0.00  0.00     0.066 H 
ATOM     60  H14 N44 d          -9.588  47.422  -1.479  0.00  0.00     0.078 H 
ENDBRANCH  53  56
ENDBRANCH  32  53
ENDBRANCH   1  32
TORSDOF 10
ENDMDL
MODEL 6
REMARK VINA RESULT:      -6.6      1.461      4.327
REMARK  10 active torsions:
REMARK  status: ('A' for Active; 'I' for Inactive)
REMARK    1  A    between atoms: C12_12  and  C21_21 
REMARK    2  A    between atoms: C13_13  and  C22_22 
REMARK    3  A    between atoms: C24_24  and  C14_14 
REMARK    4  A    between atoms: C25_25  and  C15_15 
REMARK    5  A    between atoms: C26_26  and  C16_16 
REMARK    6  A    between atoms: C27_27  and  C20_20 
REMARK       I    between atoms: C21_21  and  N28_28 
REMARK    7  A    between atoms: N28_28  and  C24_24 
REMARK    8  A    between atoms: N29_29  and  C25_25 
REMARK    9  A    between atoms: N29_29  and  C26_26 
REMARK   10  A    between atoms: C27_27  and  N29_29 
ROOT
ATOM      1  C25 N44 d          -9.318  45.086   1.694  0.00  0.00     0.109 C 
ATOM      2  H19 N44 d         -10.231  44.582   2.046  0.00  0.00     0.083 H 
ATOM      3  H20 N44 d          -9.377  45.230   0.605  0.00  0.00     0.083 H 
ENDROOT
BRANCH   1   4
ATOM      4  C15 N44 d          -8.161  44.193   1.979  0.00  0.00    -0.017 A 
ATOM      5  C9  N44 d          -7.497  44.364   3.179  0.00  0.00    -0.074 A 
ATOM      6  C5  N44 d          -6.410  43.577   3.516  0.00  0.00    -0.082 A 
ATOM      7  H9  N44 d          -7.834  45.129   3.868  0.00  0.00     0.084 H 
ATOM      8  C2  N44 d          -5.993  42.615   2.630  0.00  0.00    -0.082 A 
ATOM      9  H5  N44 d          -5.898  43.717   4.460  0.00  0.00     0.083 H 
ATOM     10  C6  N44 d          -6.649  42.432   1.427  0.00  0.00    -0.067 A 
ATOM     11  H2  N44 d          -5.141  41.992   2.875  0.00  0.00     0.083 H 
ATOM     12  C12 N44 d          -7.740  43.214   1.088  0.00  0.00     0.040 A 
ATOM     13  H6  N44 d          -6.305  41.667   0.740  0.00  0.00     0.085 H 
BRANCH  12  14
ATOM     14  C21 N44 d          -8.418  42.992  -0.223  0.00  0.00     0.252 C 
ATOM     15  N28 N44 d          -9.650  42.353  -0.230  0.00  0.00    -0.353 N 
ATOM     16  H25 N44 d         -10.064  42.061   0.632  0.00  0.00     0.163 HD
ATOM     17  O31 N44 d          -7.869  43.368  -1.248  0.00  0.00    -0.268 OA
BRANCH  15  18
ATOM     18  C24 N44 d         -10.340  42.108  -1.480  0.00  0.00     0.019 C 
ATOM     19  H17 N44 d          -9.608  42.114  -2.301  0.00  0.00     0.071 H 
ATOM     20  H18 N44 d         -10.831  41.124  -1.433  0.00  0.00     0.071 H 
BRANCH  18  21
ATOM     21  C14 N44 d         -11.373  43.159  -1.737  0.00  0.00    -0.041 A 
ATOM     22  C7  N44 d         -10.998  44.432  -2.105  0.00  0.00    -0.075 A 
ATOM     23  C3  N44 d         -11.943  45.398  -2.361  0.00  0.00    -0.082 A 
ATOM     24  H7  N44 d          -9.945  44.676  -2.194  0.00  0.00     0.084 H 
ATOM     25  C1  N44 d         -13.284  45.099  -2.246  0.00  0.00    -0.083 A 
ATOM     26  H3  N44 d         -11.634  46.395  -2.653  0.00  0.00     0.083 H 
ATOM     27  C4  N44 d         -13.669  43.834  -1.859  0.00  0.00    -0.082 A 
ATOM     28  H1  N44 d         -14.032  45.855  -2.458  0.00  0.00     0.083 H 
ATOM     29  C8  N44 d         -12.718  42.866  -1.612  0.00  0.00    -0.075 A 
ATOM     30  H4  N44 d         -14.721  43.599  -1.750  0.00  0.00     0.083 H 
ATOM     31  H8  N44 d         -13.027  41.870  -1.318  0.00  0.00     0.084 H 
ENDBRANCH  18  21
ENDBRANCH  15  18
ENDBRANCH  12  14
ENDBRANCH   1   4
BRANCH   1  32
ATOM     32  N29 N44 d          -9.258  46.426   2.333  0.00  0.00    -0.060 N 
ATOM     33  H26 N44 d          -8.538  46.333   3.032  0.00  0.00     0.281 HD
BRANCH  32  34
ATOM     34  C26 N44 d         -10.467  46.836   3.132  0.00  0.00     0.109 C 
ATOM     35  H21 N44 d         -11.103  45.955   3.303  0.00  0.00     0.083 H 
ATOM     36  H22 N44 d         -10.140  47.245   4.099  0.00  0.00     0.083 H 
BRANCH  34  37
ATOM     37  C16 N44 d         -11.256  47.880   2.395  0.00  0.00    -0.013 A 
ATOM     38  C10 N44 d         -10.803  49.198   2.459  0.00  0.00    -0.071 A 
ATOM     39  C11 N44 d         -11.475  50.227   1.812  0.00  0.00    -0.047 A 
ATOM     40  H10 N44 d          -9.908  49.424   3.027  0.00  0.00     0.084 H 
ATOM     41  C17 N44 d         -12.607  49.881   1.111  0.00  0.00     0.106 A 
ATOM     42  H11 N44 d         -11.124  51.252   1.856  0.00  0.00     0.087 H 
ATOM     43  C18 N44 d         -13.063  48.588   1.042  0.00  0.00     0.122 A 
ATOM     44  O33 N44 d         -13.397  50.766   0.419  0.00  0.00    -0.323 OA
ATOM     45  C13 N44 d         -12.411  47.544   1.682  0.00  0.00     0.085 A 
ATOM     46  O34 N44 d         -14.230  48.499   0.281  0.00  0.00    -0.322 OA
ATOM     47  C23 N44 d         -14.410  49.875  -0.101  0.00  0.00     0.115 A 
ATOM     48  H15 N44 d         -14.394  49.935  -1.199  0.00  0.00     0.118 H 
ATOM     49  H16 N44 d         -15.390  50.212   0.271  0.00  0.00     0.118 H 
BRANCH  45  50
ATOM     50  C22 N44 d         -12.912  46.125   1.580  0.00  0.00     0.212 C 
ATOM     51  O30 N44 d         -12.148  45.300   1.007  0.00  0.00    -0.644 OA
ATOM     52  O32 N44 d         -14.025  45.798   2.090  0.00  0.00    -0.644 OA
ENDBRANCH  45  50
ENDBRANCH  34  37
ENDBRANCH  32  34
BRANCH  32  53
ATOM     53  C27 N44 d          -8.721  47.463   1.388  0.00  0.00     0.099 C 
ATOM     54  H23 N44 d          -9.234  48.413   1.593  0.00  0.00     0.082 H 
ATOM     55  H24 N44 d          -7.644  47.578   1.580  0.00  0.00     0.082 H 
BRANCH  53  56
ATOM     56  C20 N44 d          -8.903  47.137  -0.055  0.00  0.00    -0.087 C 
ATOM     57  C19 N44 d          -9.674  47.882  -0.856  0.00  0.00    -0.123 C 
ATOM     58  H12 N44 d          -9.785  47.615  -1.906  0.00  0.00     0.066 H 
ATOM     59  H13 N44 d         -10.190  48.754  -0.458  0.00  0.00     0.066 H 
ATOM     60  H14 N44 d          -8.395  46.268  -0.469  0.00  0.00     0.078 H 
ENDBRANCH  53  56
ENDBRANCH  32  53
ENDBRANCH   1  32
TORSDOF 10
ENDMDL
MODEL 7
REMARK VINA RESULT:      -6.5      1.683      5.518
REMARK  10 active torsions:
REMARK  status: ('A' for Active; 'I' for Inactive)
REMARK    1  A    between atoms: C12_12  and  C21_21 
REMARK    2  A    between atoms: C13_13  and  C22_22 
REMARK    3  A    between atoms: C24_24  and  C14_14 
REMARK    4  A    between atoms: C25_25  and  C15_15 
REMARK    5  A    between atoms: C26_26  and  C16_16 
REMARK    6  A    between atoms: C27_27  and  C20_20 
REMARK       I    between atoms: C21_21  and  N28_28 
REMARK    7  A    between atoms: N28_28  and  C24_24 
REMARK    8  A    between atoms: N29_29  and  C25_25 
REMARK    9  A    between atoms: N29_29  and  C26_26 
REMARK   10  A    between atoms: C27_27  and  N29_29 
ROOT
ATOM      1  C25 N44 d          -9.705  48.896   0.232  0.00  0.00     0.109 C 
ATOM      2  H19 N44 d          -9.366  48.200  -0.549  0.00  0.00     0.083 H 
ATOM      3  H20 N44 d          -9.794  49.907  -0.192  0.00  0.00     0.083 H 
ENDROOT
BRANCH   1   4
ATOM      4  C15 N44 d          -8.667  48.933   1.299  0.00  0.00    -0.017 A 
ATOM      5  C9  N44 d          -8.865  49.797   2.359  0.00  0.00    -0.074 A 
ATOM      6  C5  N44 d          -7.944  49.893   3.388  0.00  0.00    -0.082 A 
ATOM      7  H9  N44 d          -9.758  50.411   2.385  0.00  0.00     0.084 H 
ATOM      8  C2  N44 d          -6.816  49.111   3.338  0.00  0.00    -0.082 A 
ATOM      9  H5  N44 d          -8.110  50.571   4.216  0.00  0.00     0.083 H 
ATOM     10  C6  N44 d          -6.607  48.243   2.283  0.00  0.00    -0.067 A 
ATOM     11  H2  N44 d          -6.082  49.176   4.133  0.00  0.00     0.083 H 
ATOM     12  C12 N44 d          -7.528  48.141   1.255  0.00  0.00     0.040 A 
ATOM     13  H6  N44 d          -5.710  47.634   2.262  0.00  0.00     0.085 H 
BRANCH  12  14
ATOM     14  C21 N44 d          -7.263  47.196   0.130  0.00  0.00     0.252 C 
ATOM     15  N28 N44 d          -7.749  45.899   0.227  0.00  0.00    -0.353 N 
ATOM     16  H25 N44 d          -8.269  45.622   1.035  0.00  0.00     0.163 HD
ATOM     17  O31 N44 d          -6.621  47.584  -0.835  0.00  0.00    -0.268 OA
BRANCH  15  18
ATOM     18  C24 N44 d          -7.507  44.946  -0.836  0.00  0.00     0.019 C 
ATOM     19  H17 N44 d          -8.015  45.289  -1.750  0.00  0.00     0.071 H 
ATOM     20  H18 N44 d          -6.424  44.880  -1.021  0.00  0.00     0.071 H 
BRANCH  18  21
ATOM     21  C14 N44 d          -8.025  43.591  -0.469  0.00  0.00    -0.041 A 
ATOM     22  C7  N44 d          -7.432  42.866   0.541  0.00  0.00    -0.075 A 
ATOM     23  C3  N44 d          -7.914  41.628   0.895  0.00  0.00    -0.082 A 
ATOM     24  H7  N44 d          -6.574  43.276   1.062  0.00  0.00     0.084 H 
ATOM     25  C1  N44 d          -9.001  41.096   0.235  0.00  0.00    -0.083 A 
ATOM     26  H3  N44 d          -7.440  41.070   1.694  0.00  0.00     0.083 H 
ATOM     27  C4  N44 d          -9.589  41.804  -0.789  0.00  0.00    -0.082 A 
ATOM     28  H1  N44 d          -9.391  40.125   0.520  0.00  0.00     0.083 H 
ATOM     29  C8  N44 d          -9.107  43.049  -1.136  0.00  0.00    -0.075 A 
ATOM     30  H4  N44 d         -10.432  41.383  -1.324  0.00  0.00     0.083 H 
ATOM     31  H8  N44 d          -9.581  43.606  -1.937  0.00  0.00     0.084 H 
ENDBRANCH  18  21
ENDBRANCH  15  18
ENDBRANCH  12  14
ENDBRANCH   1   4
BRANCH   1  32
ATOM     32  N29 N44 d         -11.057  48.465   0.676  0.00  0.00    -0.060 N 
ATOM     33  H26 N44 d         -11.176  48.915   1.570  0.00  0.00     0.281 HD
BRANCH  32  34
ATOM     34  C26 N44 d         -11.213  47.002   1.002  0.00  0.00     0.109 C 
ATOM     35  H21 N44 d         -10.218  46.548   1.112  0.00  0.00     0.083 H 
ATOM     36  H22 N44 d         -11.770  46.898   1.944  0.00  0.00     0.083 H 
BRANCH  34  37
ATOM     37  C16 N44 d         -11.960  46.297  -0.094  0.00  0.00    -0.013 A 
ATOM     38  C10 N44 d         -11.264  46.008  -1.269  0.00  0.00    -0.071 A 
ATOM     39  C11 N44 d         -11.878  45.363  -2.335  0.00  0.00    -0.047 A 
ATOM     40  H10 N44 d         -10.222  46.294  -1.352  0.00  0.00     0.084 H 
ATOM     41  C17 N44 d         -13.203  45.029  -2.174  0.00  0.00     0.106 A 
ATOM     42  H11 N44 d         -11.340  45.134  -3.248  0.00  0.00     0.087 H 
ATOM     43  C18 N44 d         -13.898  45.309  -1.024  0.00  0.00     0.122 A 
ATOM     44  O33 N44 d         -13.969  44.396  -3.122  0.00  0.00    -0.323 OA
ATOM     45  C13 N44 d         -13.307  45.955   0.054  0.00  0.00     0.085 A 
ATOM     46  O34 N44 d         -15.223  44.878  -1.111  0.00  0.00    -0.322 OA
ATOM     47  C23 N44 d         -15.236  44.306  -2.431  0.00  0.00     0.115 A 
ATOM     48  H15 N44 d         -15.509  43.243  -2.345  0.00  0.00     0.118 H 
ATOM     49  H16 N44 d         -15.994  44.832  -3.030  0.00  0.00     0.118 H 
BRANCH  45  50
ATOM     50  C22 N44 d         -14.077  46.237   1.319  0.00  0.00     0.212 C 
ATOM     51  O30 N44 d         -14.514  47.413   1.460  0.00  0.00    -0.644 OA
ATOM     52  O32 N44 d         -14.297  45.312   2.157  0.00  0.00    -0.644 OA
ENDBRANCH  45  50
ENDBRANCH  34  37
ENDBRANCH  32  34
BRANCH  32  53
ATOM     53  C27 N44 d         -12.135  49.059  -0.183  0.00  0.00     0.099 C 
ATOM     54  H23 N44 d         -11.707  49.271  -1.173  0.00  0.00     0.082 H 
ATOM     55  H24 N44 d         -12.942  48.319  -0.282  0.00  0.00     0.082 H 
BRANCH  53  56
ATOM     56  C20 N44 d         -12.724  50.321   0.350  0.00  0.00    -0.087 C 
ATOM     57  C19 N44 d         -12.373  50.817   1.542  0.00  0.00    -0.123 C 
ATOM     58  H12 N44 d         -12.823  51.741   1.901  0.00  0.00     0.066 H 
ATOM     59  H13 N44 d         -11.638  50.296   2.153  0.00  0.00     0.066 H 
ATOM     60  H14 N44 d         -13.460  50.854  -0.249  0.00  0.00     0.078 H 
ENDBRANCH  53  56
ENDBRANCH  32  53
ENDBRANCH   1  32
TORSDOF 10
ENDMDL
MODEL 8
REMARK VINA RESULT:      -6.5      2.105      5.200
REMARK  10 active torsions:
REMARK  status: ('A' for Active; 'I' for Inactive)
REMARK    1  A    between atoms: C12_12  and  C21_21 
REMARK    2  A    between atoms: C13_13  and  C22_22 
REMARK    3  A    between atoms: C24_24  and  C14_14 
REMARK    4  A    between atoms: C25_25  and  C15_15 
REMARK    5  A    between atoms: C26_26  and  C16_16 
REMARK    6  A    between atoms: C27_27  and  C20_20 
REMARK       I    between atoms: C21_21  and  N28_28 
REMARK    7  A    between atoms: N28_28  and  C24_24 
REMARK    8  A    between atoms: N29_29  and  C25_25 
REMARK    9  A    between atoms: N29_29  and  C26_26 
REMARK   10  A    between atoms: C27_27  and  N29_29 
ROOT
ATOM      1  C25 N44 d          -7.483  45.904   0.123  0.00  0.00     0.109 C 
ATOM      2  H19 N44 d          -7.939  45.418  -0.753  0.00  0.00     0.083 H 
ATOM      3  H20 N44 d          -6.570  46.434  -0.186  0.00  0.00     0.083 H 
ENDROOT
BRANCH   1   4
ATOM      4  C15 N44 d          -7.094  44.840   1.089  0.00  0.00    -0.017 A 
ATOM      5  C9  N44 d          -6.305  45.205   2.163  0.00  0.00    -0.074 A 
ATOM      6  C5  N44 d          -5.897  44.274   3.103  0.00  0.00    -0.082 A 
ATOM      7  H9  N44 d          -5.999  46.239   2.272  0.00  0.00     0.084 H 
ATOM      8  C2  N44 d          -6.288  42.967   2.949  0.00  0.00    -0.082 A 
ATOM      9  H5  N44 d          -5.281  44.571   3.943  0.00  0.00     0.083 H 
ATOM     10  C6  N44 d          -7.078  42.589   1.879  0.00  0.00    -0.067 A 
ATOM     11  H2  N44 d          -5.975  42.224   3.673  0.00  0.00     0.083 H 
ATOM     12  C12 N44 d          -7.492  43.519   0.940  0.00  0.00     0.040 A 
ATOM     13  H6  N44 d          -7.377  41.553   1.775  0.00  0.00     0.085 H 
BRANCH  12  14
ATOM     14  C21 N44 d          -8.339  43.071  -0.205  0.00  0.00     0.252 C 
ATOM     15  N28 N44 d          -9.649  42.689   0.051  0.00  0.00    -0.353 N 
ATOM     16  H25 N44 d         -10.003  42.725   0.985  0.00  0.00     0.163 HD
ATOM     17  O31 N44 d          -7.856  43.044  -1.327  0.00  0.00    -0.268 OA
BRANCH  15  18
ATOM     18  C24 N44 d         -10.503  42.238  -1.028  0.00  0.00     0.019 C 
ATOM     19  H17 N44 d          -9.882  41.997  -1.903  0.00  0.00     0.071 H 
ATOM     20  H18 N44 d         -11.046  41.337  -0.705  0.00  0.00     0.071 H 
BRANCH  18  21
ATOM     21  C14 N44 d         -11.491  43.296  -1.406  0.00  0.00    -0.041 A 
ATOM     22  C7  N44 d         -12.814  42.973  -1.619  0.00  0.00    -0.075 A 
ATOM     23  C3  N44 d         -13.730  43.944  -1.949  0.00  0.00    -0.082 A 
ATOM     24  H7  N44 d         -13.135  41.942  -1.526  0.00  0.00     0.084 H 
ATOM     25  C1  N44 d         -13.330  45.257  -2.075  0.00  0.00    -0.083 A 
ATOM     26  H3  N44 d         -14.768  43.676  -2.111  0.00  0.00     0.083 H 
ATOM     27  C4  N44 d         -12.007  45.587  -1.883  0.00  0.00    -0.082 A 
ATOM     28  H1  N44 d         -14.053  46.026  -2.323  0.00  0.00     0.083 H 
ATOM     29  C8  N44 d         -11.092  44.611  -1.544  0.00  0.00    -0.075 A 
ATOM     30  H4  N44 d         -11.683  46.614  -1.998  0.00  0.00     0.083 H 
ATOM     31  H8  N44 d         -10.054  44.879  -1.385  0.00  0.00     0.084 H 
ENDBRANCH  18  21
ENDBRANCH  15  18
ENDBRANCH  12  14
ENDBRANCH   1   4
BRANCH   1  32
ATOM     32  N29 N44 d          -8.445  46.912   0.642  0.00  0.00    -0.060 N 
ATOM     33  H26 N44 d          -7.943  47.370   1.386  0.00  0.00     0.281 HD
BRANCH  32  34
ATOM     34  C26 N44 d          -9.668  46.367   1.332  0.00  0.00     0.109 C 
ATOM     35  H21 N44 d         -10.547  46.527   0.692  0.00  0.00     0.083 H 
ATOM     36  H22 N44 d          -9.535  45.290   1.509  0.00  0.00     0.083 H 
BRANCH  34  37
ATOM     37  C16 N44 d          -9.882  47.061   2.648  0.00  0.00    -0.013 A 
ATOM     38  C10 N44 d          -8.827  47.054   3.561  0.00  0.00    -0.071 A 
ATOM     39  C11 N44 d          -8.940  47.667   4.802  0.00  0.00    -0.047 A 
ATOM     40  H10 N44 d          -7.899  46.561   3.296  0.00  0.00     0.084 H 
ATOM     41  C17 N44 d         -10.142  48.273   5.085  0.00  0.00     0.106 A 
ATOM     42  H11 N44 d          -8.121  47.668   5.513  0.00  0.00     0.087 H 
ATOM     43  C18 N44 d         -11.187  48.285   4.195  0.00  0.00     0.122 A 
ATOM     44  O33 N44 d         -10.433  48.919   6.261  0.00  0.00    -0.323 OA
ATOM     45  C13 N44 d         -11.099  47.677   2.950  0.00  0.00     0.085 A 
ATOM     46  O34 N44 d         -12.295  48.953   4.718  0.00  0.00    -0.322 OA
ATOM     47  C23 N44 d         -11.791  49.344   6.009  0.00  0.00     0.115 A 
ATOM     48  H15 N44 d         -11.829  50.442   6.077  0.00  0.00     0.118 H 
ATOM     49  H16 N44 d         -12.440  48.905   6.781  0.00  0.00     0.118 H 
BRANCH  45  50
ATOM     50  C22 N44 d         -12.249  47.716   1.975  0.00  0.00     0.212 C 
ATOM     51  O30 N44 d         -13.111  46.800   2.086  0.00  0.00    -0.644 OA
ATOM     52  O32 N44 d         -12.342  48.654   1.128  0.00  0.00    -0.644 OA
ENDBRANCH  45  50
ENDBRANCH  34  37
ENDBRANCH  32  34
BRANCH  32  53
ATOM     53  C27 N44 d          -8.694  48.002  -0.360  0.00  0.00     0.099 C 
ATOM     54  H23 N44 d          -8.323  47.662  -1.337  0.00  0.00     0.082 H 
ATOM     55  H24 N44 d          -9.779  48.173  -0.418  0.00  0.00     0.082 H 
BRANCH  53  56
ATOM     56  C20 N44 d          -8.036  49.299  -0.037  0.00  0.00    -0.087 C 
ATOM     57  C19 N44 d          -7.445  49.518   1.144  0.00  0.00    -0.123 C 
ATOM     58  H12 N44 d          -6.972  50.478   1.347  0.00  0.00     0.066 H 
ATOM     59  H13 N44 d          -7.436  48.736   1.901  0.00  0.00     0.066 H 
ATOM     60  H14 N44 d          -8.035  50.092  -0.783  0.00  0.00     0.078 H 
ENDBRANCH  53  56
ENDBRANCH  32  53
ENDBRANCH   1  32
TORSDOF 10
ENDMDL
MODEL 9
REMARK VINA RESULT:      -6.3      2.909      5.319
REMARK  10 active torsions:
REMARK  status: ('A' for Active; 'I' for Inactive)
REMARK    1  A    between atoms: C12_12  and  C21_21 
REMARK    2  A    between atoms: C13_13  and  C22_22 
REMARK    3  A    between atoms: C24_24  and  C14_14 
REMARK    4  A    between atoms: C25_25  and  C15_15 
REMARK    5  A    between atoms: C26_26  and  C16_16 
REMARK    6  A    between atoms: C27_27  and  C20_20 
REMARK       I    between atoms: C21_21  and  N28_28 
REMARK    7  A    between atoms: N28_28  and  C24_24 
REMARK    8  A    between atoms: N29_29  and  C25_25 
REMARK    9  A    between atoms: N29_29  and  C26_26 
REMARK   10  A    between atoms: C27_27  and  N29_29 
ROOT
ATOM      1  C25 N44 d          -9.844  45.535  -0.858  0.00  0.00     0.109 C 
ATOM      2  H19 N44 d          -9.798  46.069  -1.819  0.00  0.00     0.083 H 
ATOM      3  H20 N44 d          -8.824  45.378  -0.477  0.00  0.00     0.083 H 
ENDROOT
BRANCH   1   4
ATOM      4  C15 N44 d         -10.455  44.199  -1.104  0.00  0.00    -0.017 A 
ATOM      5  C9  N44 d         -11.735  44.164  -1.622  0.00  0.00    -0.074 A 
ATOM      6  C5  N44 d         -12.374  42.962  -1.875  0.00  0.00    -0.082 A 
ATOM      7  H9  N44 d         -12.250  45.094  -1.833  0.00  0.00     0.084 H 
ATOM      8  C2  N44 d         -11.711  41.792  -1.597  0.00  0.00    -0.082 A 
ATOM      9  H5  N44 d         -13.377  42.945  -2.284  0.00  0.00     0.083 H 
ATOM     10  C6  N44 d         -10.429  41.814  -1.080  0.00  0.00    -0.067 A 
ATOM     11  H2  N44 d         -12.197  40.842  -1.785  0.00  0.00     0.083 H 
ATOM     12  C12 N44 d          -9.786  43.014  -0.830  0.00  0.00     0.040 A 
ATOM     13  H6  N44 d          -9.922  40.880  -0.868  0.00  0.00     0.085 H 
BRANCH  12  14
ATOM     14  C21 N44 d          -8.404  42.997  -0.265  0.00  0.00     0.252 C 
ATOM     15  N28 N44 d          -8.236  42.604   1.056  0.00  0.00    -0.353 N 
ATOM     16  H25 N44 d          -9.030  42.335   1.600  0.00  0.00     0.163 HD
ATOM     17  O31 N44 d          -7.467  43.336  -0.972  0.00  0.00    -0.268 OA
BRANCH  15  18
ATOM     18  C24 N44 d          -6.914  42.582   1.649  0.00  0.00     0.019 C 
ATOM     19  H17 N44 d          -6.683  41.557   1.974  0.00  0.00     0.071 H 
ATOM     20  H18 N44 d          -6.177  42.904   0.898  0.00  0.00     0.071 H 
BRANCH  18  21
ATOM     21  C14 N44 d          -6.842  43.497   2.830  0.00  0.00    -0.041 A 
ATOM     22  C7  N44 d          -6.446  43.021   4.061  0.00  0.00    -0.075 A 
ATOM     23  C3  N44 d          -6.360  43.862   5.146  0.00  0.00    -0.082 A 
ATOM     24  H7  N44 d          -6.199  41.972   4.175  0.00  0.00     0.084 H 
ATOM     25  C1  N44 d          -6.677  45.197   5.012  0.00  0.00    -0.083 A 
ATOM     26  H3  N44 d          -6.043  43.474   6.107  0.00  0.00     0.083 H 
ATOM     27  C4  N44 d          -7.093  45.678   3.791  0.00  0.00    -0.082 A 
ATOM     28  H1  N44 d          -6.599  45.864   5.863  0.00  0.00     0.083 H 
ATOM     29  C8  N44 d          -7.169  44.834   2.703  0.00  0.00    -0.075 A 
ATOM     30  H4  N44 d          -7.360  46.723   3.684  0.00  0.00     0.083 H 
ATOM     31  H8  N44 d          -7.488  45.221   1.742  0.00  0.00     0.084 H 
ENDBRANCH  18  21
ENDBRANCH  15  18
ENDBRANCH  12  14
ENDBRANCH   1   4
BRANCH   1  32
ATOM     32  N29 N44 d         -10.570  46.396   0.112  0.00  0.00    -0.060 N 
ATOM     33  H26 N44 d         -11.537  46.311  -0.160  0.00  0.00     0.281 HD
BRANCH  32  34
ATOM     34  C26 N44 d         -10.309  47.876   0.010  0.00  0.00     0.109 C 
ATOM     35  H21 N44 d          -9.821  48.092  -0.951  0.00  0.00     0.083 H 
ATOM     36  H22 N44 d         -11.266  48.417   0.064  0.00  0.00     0.083 H 
BRANCH  34  37
ATOM     37  C16 N44 d          -9.419  48.332   1.131  0.00  0.00    -0.013 A 
ATOM     38  C10 N44 d         -10.025  48.668   2.342  0.00  0.00    -0.071 A 
ATOM     39  C11 N44 d          -9.279  49.104   3.429  0.00  0.00    -0.047 A 
ATOM     40  H10 N44 d         -11.102  48.587   2.437  0.00  0.00     0.084 H 
ATOM     41  C17 N44 d          -7.918  49.191   3.249  0.00  0.00     0.106 A 
ATOM     42  H11 N44 d          -9.746  49.362   4.373  0.00  0.00     0.087 H 
ATOM     43  C18 N44 d          -7.310  48.865   2.062  0.00  0.00     0.122 A 
ATOM     44  O33 N44 d          -7.029  49.608   4.208  0.00  0.00    -0.323 OA
ATOM     45  C13 N44 d          -8.035  48.429   0.961  0.00  0.00     0.085 A 
ATOM     46  O34 N44 d          -5.928  49.045   2.130  0.00  0.00    -0.322 OA
ATOM     47  C23 N44 d          -5.781  49.504   3.486  0.00  0.00     0.115 A 
ATOM     48  H15 N44 d          -5.128  48.798   4.021  0.00  0.00     0.118 H 
ATOM     49  H16 N44 d          -5.309  50.498   3.466  0.00  0.00     0.118 H 
BRANCH  45  50
ATOM     50  C22 N44 d          -7.352  48.054  -0.330  0.00  0.00     0.212 C 
ATOM     51  O30 N44 d          -7.313  48.945  -1.224  0.00  0.00    -0.644 OA
ATOM     52  O32 N44 d          -6.816  46.914  -0.466  0.00  0.00    -0.644 OA
ENDBRANCH  45  50
ENDBRANCH  34  37
ENDBRANCH  32  34
BRANCH  32  53
ATOM     53  C27 N44 d         -10.526  45.822   1.499  0.00  0.00     0.099 C 
ATOM     54  H23 N44 d          -9.792  45.003   1.508  0.00  0.00     0.082 H 
ATOM     55  H24 N44 d         -10.201  46.614   2.189  0.00  0.00     0.082 H 
BRANCH  53  56
ATOM     56  C20 N44 d         -11.828  45.285   1.987  0.00  0.00    -0.087 C 
ATOM     57  C19 N44 d         -12.987  45.598   1.395  0.00  0.00    -0.123 C 
ATOM     58  H12 N44 d         -13.921  45.188   1.778  0.00  0.00     0.066 H 
ATOM     59  H13 N44 d         -12.997  46.261   0.532  0.00  0.00     0.066 H 
ATOM     60  H14 N44 d         -11.836  44.621   2.849  0.00  0.00     0.078 H 
ENDBRANCH  53  56
ENDBRANCH  32  53
ENDBRANCH   1  32
TORSDOF 10
ENDMDL
MODEL 10
REMARK VINA RESULT:      -6.2      2.418      4.629
REMARK  10 active torsions:
REMARK  status: ('A' for Active; 'I' for Inactive)
REMARK    1  A    between atoms: C12_12  and  C21_21 
REMARK    2  A    between atoms: C13_13  and  C22_22 
REMARK    3  A    between atoms: C24_24  and  C14_14 
REMARK    4  A    between atoms: C25_25  and  C15_15 
REMARK    5  A    between atoms: C26_26  and  C16_16 
REMARK    6  A    between atoms: C27_27  and  C20_20 
REMARK       I    between atoms: C21_21  and  N28_28 
REMARK    7  A    between atoms: N28_28  and  C24_24 
REMARK    8  A    between atoms: N29_29  and  C25_25 
REMARK    9  A    between atoms: N29_29  and  C26_26 
REMARK   10  A    between atoms: C27_27  and  N29_29 
ROOT
ATOM      1  C25 N44 d         -10.188  45.280  -0.218  0.00  0.00     0.109 C 
ATOM      2  H19 N44 d          -9.721  45.812  -1.061  0.00  0.00     0.083 H 
ATOM      3  H20 N44 d          -9.450  45.151   0.587  0.00  0.00     0.083 H 
ENDROOT
BRANCH   1   4
ATOM      4  C15 N44 d         -10.591  43.928  -0.694  0.00  0.00    -0.017 A 
ATOM      5  C9  N44 d         -11.877  43.773  -1.175  0.00  0.00    -0.074 A 
ATOM      6  C5  N44 d         -12.330  42.548  -1.631  0.00  0.00    -0.082 A 
ATOM      7  H9  N44 d         -12.545  44.627  -1.194  0.00  0.00     0.084 H 
ATOM      8  C2  N44 d         -11.474  41.474  -1.597  0.00  0.00    -0.082 A 
ATOM      9  H5  N44 d         -13.339  42.437  -2.009  0.00  0.00     0.083 H 
ATOM     10  C6  N44 d         -10.185  41.616  -1.120  0.00  0.00    -0.067 A 
ATOM     11  H2  N44 d         -11.813  40.506  -1.947  0.00  0.00     0.083 H 
ATOM     12  C12 N44 d          -9.727  42.842  -0.667  0.00  0.00     0.040 A 
ATOM     13  H6  N44 d          -9.524  40.757  -1.100  0.00  0.00     0.085 H 
BRANCH  12  14
ATOM     14  C21 N44 d          -8.330  42.954  -0.152  0.00  0.00     0.252 C 
ATOM     15  N28 N44 d          -8.065  42.520   1.140  0.00  0.00    -0.353 N 
ATOM     16  H25 N44 d          -8.802  42.138   1.697  0.00  0.00     0.163 HD
ATOM     17  O31 N44 d          -7.466  43.429  -0.873  0.00  0.00    -0.268 OA
BRANCH  15  18
ATOM     18  C24 N44 d          -6.726  42.619   1.684  0.00  0.00     0.019 C 
ATOM     19  H17 N44 d          -6.370  41.613   1.948  0.00  0.00     0.071 H 
ATOM     20  H18 N44 d          -6.061  43.056   0.925  0.00  0.00     0.071 H 
BRANCH  18  21
ATOM     21  C14 N44 d          -6.708  43.481   2.907  0.00  0.00    -0.041 A 
ATOM     22  C7  N44 d          -7.082  44.805   2.835  0.00  0.00    -0.075 A 
ATOM     23  C3  N44 d          -7.084  45.597   3.959  0.00  0.00    -0.082 A 
ATOM     24  H7  N44 d          -7.378  45.227   1.882  0.00  0.00     0.084 H 
ATOM     25  C1  N44 d          -6.705  45.071   5.176  0.00  0.00    -0.083 A 
ATOM     26  H3  N44 d          -7.385  46.636   3.889  0.00  0.00     0.083 H 
ATOM     27  C4  N44 d          -6.310  43.754   5.254  0.00  0.00    -0.082 A 
ATOM     28  H1  N44 d          -6.717  45.691   6.065  0.00  0.00     0.083 H 
ATOM     29  C8  N44 d          -6.317  42.961   4.126  0.00  0.00    -0.075 A 
ATOM     30  H4  N44 d          -5.993  43.341   6.204  0.00  0.00     0.083 H 
ATOM     31  H8  N44 d          -6.015  41.922   4.197  0.00  0.00     0.084 H 
ENDBRANCH  18  21
ENDBRANCH  15  18
ENDBRANCH  12  14
ENDBRANCH   1   4
BRANCH   1  32
ATOM     32  N29 N44 d         -11.293  46.126   0.303  0.00  0.00    -0.060 N 
ATOM     33  H26 N44 d         -12.062  45.937  -0.321  0.00  0.00     0.281 HD
BRANCH  32  34
ATOM     34  C26 N44 d         -11.105  47.615   0.179  0.00  0.00     0.109 C 
ATOM     35  H21 N44 d         -10.922  47.870  -0.874  0.00  0.00     0.083 H 
ATOM     36  H22 N44 d         -12.015  48.125   0.527  0.00  0.00     0.083 H 
BRANCH  34  37
ATOM     37  C16 N44 d          -9.936  48.068   1.008  0.00  0.00    -0.013 A 
ATOM     38  C10 N44 d          -8.656  47.779   0.533  0.00  0.00    -0.071 A 
ATOM     39  C11 N44 d          -7.520  48.155   1.238  0.00  0.00    -0.047 A 
ATOM     40  H10 N44 d          -8.546  47.249  -0.406  0.00  0.00     0.084 H 
ATOM     41  C17 N44 d          -7.722  48.821   2.425  0.00  0.00     0.106 A 
ATOM     42  H11 N44 d          -6.524  47.936   0.871  0.00  0.00     0.087 H 
ATOM     43  C18 N44 d          -8.976  49.110   2.903  0.00  0.00     0.122 A 
ATOM     44  O33 N44 d          -6.719  49.261   3.253  0.00  0.00    -0.323 OA
ATOM     45  C13 N44 d         -10.126  48.741   2.218  0.00  0.00     0.085 A 
ATOM     46  O34 N44 d          -8.914  49.781   4.125  0.00  0.00    -0.322 OA
ATOM     47  C23 N44 d          -7.490  49.867   4.316  0.00  0.00     0.115 A 
ATOM     48  H15 N44 d          -7.213  50.929   4.382  0.00  0.00     0.118 H 
ATOM     49  H16 N44 d          -7.236  49.361   5.259  0.00  0.00     0.118 H 
BRANCH  45  50
ATOM     50  C22 N44 d         -11.497  49.083   2.745  0.00  0.00     0.212 C 
ATOM     51  O30 N44 d         -11.966  48.315   3.630  0.00  0.00    -0.644 OA
ATOM     52  O32 N44 d         -12.104  50.118   2.335  0.00  0.00    -0.644 OA
ENDBRANCH  45  50
ENDBRANCH  34  37
ENDBRANCH  32  34
BRANCH  32  53
ATOM     53  C27 N44 d         -11.776  45.639   1.639  0.00  0.00     0.099 C 
ATOM     54  H23 N44 d         -11.379  44.626   1.799  0.00  0.00     0.082 H 
ATOM     55  H24 N44 d         -11.383  46.315   2.413  0.00  0.00     0.082 H 
BRANCH  53  56
ATOM     56  C20 N44 d         -13.259  45.586   1.778  0.00  0.00    -0.087 C 
ATOM     57  C19 N44 d         -14.076  45.960   0.786  0.00  0.00    -0.123 C 
ATOM     58  H12 N44 d         -15.155  45.908   0.921  0.00  0.00     0.066 H 
ATOM     59  H13 N44 d         -13.662  46.317  -0.155  0.00  0.00     0.066 H 
ATOM     60  H14 N44 d         -13.690  45.232   2.713  0.00  0.00     0.078 H 
ENDBRANCH  53  56
ENDBRANCH  32  53
ENDBRANCH   1  32
TORSDOF 10
ENDMDL
