MODEL 1
REMARK VINA RESULT:      -7.5      0.000      0.000
REMARK  9 active torsions:
REMARK  status: ('A' for Active; 'I' for Inactive)
REMARK    1  A    between atoms: C20_6  and  C17_7 
REMARK    2  A    between atoms: C4_11  and  C1_12 
REMARK    3  A    between atoms: N12_24  and  C19_25 
REMARK    4  A    between atoms: C19_25  and  C21_26 
REMARK    5  A    between atoms: C21_26  and  C23_27 
REMARK    6  A    between atoms: C23_27  and  N29_28 
REMARK    7  A    between atoms: N29_28  and  C32_29 
REMARK    8  A    between atoms: N29_28  and  C31_30 
REMARK    9  A    between atoms: N29_28  and  C30_31 
ROOT
ATOM      1  C1  Y5H d          -2.102  12.700  22.379  0.00  0.00     0.160 C 
ATOM      2  N3  Y5H d          -3.103  13.696  21.913  0.00  0.00    -0.055 N 
ATOM      3  C7  Y5H d          -2.799  13.833  20.478  0.00  0.00     0.117 C 
ATOM      4  C14 Y5H d          -1.590  14.783  20.412  0.00  0.00    -0.036 C 
ATOM      5  C15 Y5H d          -1.777  15.681  21.647  0.00  0.00    -0.040 C 
ATOM      6  C8  Y5H d          -2.900  15.048  22.492  0.00  0.00     0.085 C 
ATOM      7  C5  Y5H d          -2.521  12.428  19.956  0.00  0.00     0.066 A 
ATOM      8  C2  Y5H d          -2.133  11.634  21.232  0.00  0.00     0.071 A 
ATOM      9  C6  Y5H d          -3.229  10.581  21.316  0.00  0.00     0.234 A 
ATOM     10  O13 Y5H d          -3.351   9.683  22.133  0.00  0.00    -0.272 OA
ATOM     11  C11 Y5H d          -3.781  11.787  19.433  0.00  0.00     0.233 A 
ATOM     12  O18 Y5H d          -4.437  12.060  18.427  0.00  0.00    -0.272 OA
ATOM     13  N12 Y5H d          -4.185  10.754  20.301  0.00  0.00    -0.288 N 
ATOM     14  H4  Y5H d          -1.107  13.164  22.459  0.00  0.00     0.096 H 
ATOM     15  H5  Y5H d          -4.043  13.373  22.084  0.00  0.00     0.281 HD
ATOM     16  H6  Y5H d          -3.646  14.269  19.929  0.00  0.00     0.086 H 
ATOM     17  H7  Y5H d          -1.607  15.378  19.487  0.00  0.00     0.036 H 
ATOM     18  H8  Y5H d          -0.645  14.224  20.472  0.00  0.00     0.036 H 
ATOM     19  H9  Y5H d          -2.064  16.697  21.337  0.00  0.00     0.035 H 
ATOM     20  H10 Y5H d          -0.845  15.724  22.228  0.00  0.00     0.035 H 
ATOM     21  H11 Y5H d          -2.596  14.975  23.546  0.00  0.00     0.076 H 
ATOM     22  H12 Y5H d          -3.822  15.643  22.417  0.00  0.00     0.076 H 
ATOM     23  H13 Y5H d          -1.727  12.425  19.195  0.00  0.00     0.059 H 
ATOM     24  H14 Y5H d          -1.148  11.151  21.146  0.00  0.00     0.059 H 
ENDROOT
BRANCH  13  25
ATOM     25  C19 Y5H d          -5.365   9.891  20.133  0.00  0.00     0.007 C 
ATOM     26  H15 Y5H d          -6.201  10.492  19.747  0.00  0.00     0.065 H 
ATOM     27  H16 Y5H d          -5.641   9.462  21.108  0.00  0.00     0.065 H 
BRANCH  25  28
ATOM     28  C21 Y5H d          -5.062   8.754  19.148  0.00  0.00    -0.027 C 
ATOM     29  H17 Y5H d          -4.347   8.040  19.585  0.00  0.00     0.037 H 
ATOM     30  H18 Y5H d          -4.654   9.152  18.208  0.00  0.00     0.037 H 
BRANCH  28  31
ATOM     31  C23 Y5H d          -6.426   8.078  18.906  0.00  0.00     0.086 C 
ATOM     32  H19 Y5H d          -7.150   8.853  18.615  0.00  0.00     0.076 H 
ATOM     33  H20 Y5H d          -6.750   7.606  19.845  0.00  0.00     0.076 H 
BRANCH  31  34
ATOM     34  N29 Y5H d          -6.400   7.017  17.823  0.00  0.00    -0.079 N 
BRANCH  34  35
ATOM     35  C32 Y5H d          -5.807   7.584  16.565  0.00  0.00     0.067 C 
ATOM     36  H21 Y5H d          -5.792   6.809  15.784  0.00  0.00     0.068 H 
ATOM     37  H22 Y5H d          -4.779   7.923  16.765  0.00  0.00     0.068 H 
ATOM     38  H23 Y5H d          -6.415   8.435  16.225  0.00  0.00     0.068 H 
ENDBRANCH  34  35
BRANCH  34  39
ATOM     39  C31 Y5H d          -7.845   6.692  17.523  0.00  0.00     0.067 C 
ATOM     40  H24 Y5H d          -8.321   6.272  18.421  0.00  0.00     0.068 H 
ATOM     41  H25 Y5H d          -7.894   5.959  16.705  0.00  0.00     0.068 H 
ATOM     42  H26 Y5H d          -8.372   7.610  17.223  0.00  0.00     0.068 H 
ENDBRANCH  34  39
BRANCH  34  43
ATOM     43  C30 Y5H d          -5.649   5.792  18.220  0.00  0.00     0.067 C 
ATOM     44  H27 Y5H d          -4.602   6.056  18.433  0.00  0.00     0.068 H 
ATOM     45  H28 Y5H d          -5.683   5.059  17.401  0.00  0.00     0.068 H 
ATOM     46  H29 Y5H d          -6.107   5.356  19.120  0.00  0.00     0.068 H 
ENDBRANCH  34  43
ENDBRANCH  31  34
ENDBRANCH  28  31
ENDBRANCH  25  28
ENDBRANCH  13  25
BRANCH   1  47
ATOM     47  C4  Y5H d          -2.453  12.072  23.704  0.00  0.00     0.091 A 
ATOM     48  N16 Y5H d          -1.732  11.050  24.279  0.00  0.00    -0.224 NA
ATOM     49  C17 Y5H d          -2.345  10.822  25.423  0.00  0.00     0.186 A 
ATOM     50  O10 Y5H d          -3.480  11.544  25.600  0.00  0.00    -0.301 OA
ATOM     51  C9  Y5H d          -3.496  12.365  24.484  0.00  0.00     0.047 A 
ATOM     52  H3  Y5H d          -4.243  13.130  24.276  0.00  0.00     0.126 H 
BRANCH  49  53
ATOM     53  C20 Y5H d          -2.084   9.754  26.377  0.00  0.00     0.059 A 
ATOM     54  C22 Y5H d          -2.844   9.411  27.489  0.00  0.00    -0.060 A 
ATOM     55  C24 Y5H d          -2.399   8.233  28.131  0.00  0.00    -0.054 A 
ATOM     56  H2  Y5H d          -3.698   9.993  27.832  0.00  0.00     0.085 H 
ATOM     57  C25 Y5H d          -1.352   7.670  27.449  0.00  0.00     0.075 A 
ATOM     58  H1  Y5H d          -2.830   7.827  29.045  0.00  0.00     0.086 H 
ATOM     59 CL1  Y5H d          -0.503   6.186  27.827  0.00  0.00    -0.076 Cl
ATOM     60  S1  Y5H d          -0.818   8.606  26.082  0.00  0.00    -0.074 SA
ENDBRANCH  49  53
ENDBRANCH   1  47
TORSDOF 9
ENDMDL
