MODEL 1
REMARK VINA RESULT:      -7.7      0.000      0.000
REMARK  9 active torsions:
REMARK  status: ('A' for Active; 'I' for Inactive)
REMARK    1  A    between atoms: C20_6  and  C17_7 
REMARK    2  A    between atoms: C4_11  and  C1_12 
REMARK    3  A    between atoms: N12_24  and  C19_25 
REMARK    4  A    between atoms: C19_25  and  C21_26 
REMARK    5  A    between atoms: C21_26  and  C23_27 
REMARK    6  A    between atoms: C23_27  and  N29_28 
REMARK    7  A    between atoms: N29_28  and  C32_29 
REMARK    8  A    between atoms: N29_28  and  C31_30 
REMARK    9  A    between atoms: N29_28  and  C30_31 
ROOT
ATOM      1  C1  Y5H d          -3.347  13.139  23.266  0.00  0.00     0.160 C 
ATOM      2  N3  Y5H d          -4.729  13.163  23.813  0.00  0.00    -0.055 N 
ATOM      3  C7  Y5H d          -5.493  13.869  22.770  0.00  0.00     0.117 C 
ATOM      4  C14 Y5H d          -5.207  15.363  23.004  0.00  0.00    -0.036 C 
ATOM      5  C15 Y5H d          -4.971  15.444  24.521  0.00  0.00    -0.040 C 
ATOM      6  C8  Y5H d          -4.864  13.996  25.035  0.00  0.00     0.085 C 
ATOM      7  C5  Y5H d          -4.994  13.337  21.430  0.00  0.00     0.066 A 
ATOM      8  C2  Y5H d          -3.589  12.768  21.764  0.00  0.00     0.071 A 
ATOM      9  C6  Y5H d          -3.745  11.287  21.449  0.00  0.00     0.234 A 
ATOM     10  O13 Y5H d          -2.901  10.410  21.513  0.00  0.00    -0.272 OA
ATOM     11  C11 Y5H d          -5.822  12.163  20.974  0.00  0.00     0.233 A 
ATOM     12  O18 Y5H d          -6.988  12.136  20.580  0.00  0.00    -0.272 OA
ATOM     13  N12 Y5H d          -5.061  10.982  21.064  0.00  0.00    -0.288 N 
ATOM     14  H4  Y5H d          -2.881  14.132  23.357  0.00  0.00     0.096 H 
ATOM     15  H5  Y5H d          -5.070  12.228  23.980  0.00  0.00     0.281 HD
ATOM     16  H6  Y5H d          -6.572  13.677  22.863  0.00  0.00     0.086 H 
ATOM     17  H7  Y5H d          -6.067  15.980  22.706  0.00  0.00     0.036 H 
ATOM     18  H8  Y5H d          -4.313  15.685  22.449  0.00  0.00     0.036 H 
ATOM     19  H9  Y5H d          -5.813  15.958  25.009  0.00  0.00     0.035 H 
ATOM     20  H10 Y5H d          -4.039  15.990  24.730  0.00  0.00     0.035 H 
ATOM     21  H11 Y5H d          -3.983  13.879  25.681  0.00  0.00     0.076 H 
ATOM     22  H12 Y5H d          -5.769  13.717  25.595  0.00  0.00     0.076 H 
ATOM     23  H13 Y5H d          -4.964  14.126  20.665  0.00  0.00     0.059 H 
ATOM     24  H14 Y5H d          -2.796  13.208  21.140  0.00  0.00     0.059 H 
ENDROOT
BRANCH  13  25
ATOM     25  C19 Y5H d          -5.515   9.628  20.706  0.00  0.00     0.007 C 
ATOM     26  H15 Y5H d          -6.565   9.506  21.010  0.00  0.00     0.065 H 
ATOM     27  H16 Y5H d          -4.893   8.888  21.230  0.00  0.00     0.065 H 
BRANCH  25  28
ATOM     28  C21 Y5H d          -5.398   9.406  19.192  0.00  0.00    -0.027 C 
ATOM     29  H17 Y5H d          -4.613  10.047  18.764  0.00  0.00     0.037 H 
ATOM     30  H18 Y5H d          -6.355   9.616  18.693  0.00  0.00     0.037 H 
BRANCH  28  31
ATOM     31  C23 Y5H d          -5.024   7.918  19.046  0.00  0.00     0.086 C 
ATOM     32  H19 Y5H d          -5.001   7.467  20.050  0.00  0.00     0.076 H 
ATOM     33  H20 Y5H d          -4.023   7.855  18.593  0.00  0.00     0.076 H 
BRANCH  31  34
ATOM     34  N29 Y5H d          -5.989   7.125  18.188  0.00  0.00    -0.079 N 
BRANCH  34  35
ATOM     35  C32 Y5H d          -7.364   7.167  18.791  0.00  0.00     0.067 C 
ATOM     36  H21 Y5H d          -7.459   8.059  19.427  0.00  0.00     0.068 H 
ATOM     37  H22 Y5H d          -7.525   6.264  19.400  0.00  0.00     0.068 H 
ATOM     38  H23 Y5H d          -8.115   7.207  17.989  0.00  0.00     0.068 H 
ENDBRANCH  34  35
BRANCH  34  39
ATOM     39  C31 Y5H d          -5.522   5.689  18.253  0.00  0.00     0.067 C 
ATOM     40  H24 Y5H d          -4.422   5.660  18.227  0.00  0.00     0.068 H 
ATOM     41  H25 Y5H d          -5.923   5.133  17.393  0.00  0.00     0.068 H 
ATOM     42  H26 Y5H d          -5.879   5.229  19.185  0.00  0.00     0.068 H 
ENDBRANCH  34  39
BRANCH  34  43
ATOM     43  C30 Y5H d          -6.049   7.603  16.777  0.00  0.00     0.067 C 
ATOM     44  H27 Y5H d          -5.336   8.431  16.640  0.00  0.00     0.068 H 
ATOM     45  H28 Y5H d          -7.066   7.955  16.552  0.00  0.00     0.068 H 
ATOM     46  H29 Y5H d          -5.786   6.779  16.099  0.00  0.00     0.068 H 
ENDBRANCH  34  43
ENDBRANCH  31  34
ENDBRANCH  28  31
ENDBRANCH  25  28
ENDBRANCH  13  25
BRANCH   1  47
ATOM     47  C4  Y5H d          -2.456  12.122  23.932  0.00  0.00     0.091 A 
ATOM     48  N16 Y5H d          -2.903  11.202  24.853  0.00  0.00    -0.224 NA
ATOM     49  C17 Y5H d          -1.833  10.496  25.156  0.00  0.00     0.186 A 
ATOM     50  O10 Y5H d          -0.688  10.948  24.585  0.00  0.00    -0.301 OA
ATOM     51  C9  Y5H d          -1.138  11.978  23.774  0.00  0.00     0.047 A 
ATOM     52  H3  Y5H d          -0.515  12.575  23.110  0.00  0.00     0.126 H 
BRANCH  49  53
ATOM     53  C20 Y5H d          -1.701   9.471  26.181  0.00  0.00     0.059 A 
ATOM     54  C22 Y5H d          -2.572   9.213  27.233  0.00  0.00    -0.060 A 
ATOM     55  C24 Y5H d          -2.233   8.055  27.971  0.00  0.00    -0.054 A 
ATOM     56  H2  Y5H d          -3.430   9.840  27.467  0.00  0.00     0.085 H 
ATOM     57  C25 Y5H d          -1.150   7.422  27.417  0.00  0.00     0.075 A 
ATOM     58  H1  Y5H d          -2.760   7.712  28.860  0.00  0.00     0.086 H 
ATOM     59 CL1  Y5H d          -0.398   5.932  27.944  0.00  0.00    -0.076 Cl
ATOM     60  S1  Y5H d          -0.459   8.266  26.061  0.00  0.00    -0.074 SA
ENDBRANCH  49  53
ENDBRANCH   1  47
TORSDOF 9
ENDMDL
MODEL 2
REMARK VINA RESULT:      -6.7      4.416      7.848
REMARK  9 active torsions:
REMARK  status: ('A' for Active; 'I' for Inactive)
REMARK    1  A    between atoms: C20_6  and  C17_7 
REMARK    2  A    between atoms: C4_11  and  C1_12 
REMARK    3  A    between atoms: N12_24  and  C19_25 
REMARK    4  A    between atoms: C19_25  and  C21_26 
REMARK    5  A    between atoms: C21_26  and  C23_27 
REMARK    6  A    between atoms: C23_27  and  N29_28 
REMARK    7  A    between atoms: N29_28  and  C32_29 
REMARK    8  A    between atoms: N29_28  and  C31_30 
REMARK    9  A    between atoms: N29_28  and  C30_31 
ROOT
ATOM      1  C1  Y5H d          -4.297  13.050  17.583  0.00  0.00     0.160 C 
ATOM      2  N3  Y5H d          -3.053  12.763  16.822  0.00  0.00    -0.055 N 
ATOM      3  C7  Y5H d          -2.255  13.987  17.005  0.00  0.00     0.117 C 
ATOM      4  C14 Y5H d          -2.829  14.996  15.994  0.00  0.00    -0.036 C 
ATOM      5  C15 Y5H d          -3.330  14.101  14.847  0.00  0.00    -0.040 C 
ATOM      6  C8  Y5H d          -3.273  12.649  15.357  0.00  0.00     0.085 C 
ATOM      7  C5  Y5H d          -2.420  14.400  18.464  0.00  0.00     0.066 A 
ATOM      8  C2  Y5H d          -3.743  13.709  18.891  0.00  0.00     0.071 A 
ATOM      9  C6  Y5H d          -3.284  12.758  19.987  0.00  0.00     0.234 A 
ATOM     10  O13 Y5H d          -3.964  12.011  20.671  0.00  0.00    -0.272 OA
ATOM     11  C11 Y5H d          -1.338  13.795  19.321  0.00  0.00     0.233 A 
ATOM     12  O18 Y5H d          -0.134  14.053  19.357  0.00  0.00    -0.272 OA
ATOM     13  N12 Y5H d          -1.889  12.797  20.149  0.00  0.00    -0.288 N 
ATOM     14  H4  Y5H d          -4.934  13.753  17.027  0.00  0.00     0.096 H 
ATOM     15  H5  Y5H d          -2.591  11.940  17.177  0.00  0.00     0.281 HD
ATOM     16  H6  Y5H d          -1.191  13.809  16.791  0.00  0.00     0.086 H 
ATOM     17  H7  Y5H d          -2.049  15.687  15.641  0.00  0.00     0.036 H 
ATOM     18  H8  Y5H d          -3.656  15.570  16.435  0.00  0.00     0.036 H 
ATOM     19  H9  Y5H d          -2.684  14.218  13.965  0.00  0.00     0.035 H 
ATOM     20  H10 Y5H d          -4.364  14.369  14.583  0.00  0.00     0.035 H 
ATOM     21  H11 Y5H d          -4.218  12.128  15.148  0.00  0.00     0.076 H 
ATOM     22  H12 Y5H d          -2.442  12.105  14.883  0.00  0.00     0.076 H 
ATOM     23  H13 Y5H d          -2.454  15.493  18.577  0.00  0.00     0.059 H 
ATOM     24  H14 Y5H d          -4.481  14.421  19.290  0.00  0.00     0.059 H 
ENDROOT
BRANCH  13  25
ATOM     25  C19 Y5H d          -1.156  11.981  21.129  0.00  0.00     0.007 C 
ATOM     26  H15 Y5H d          -0.122  11.839  20.781  0.00  0.00     0.065 H 
ATOM     27  H16 Y5H d          -1.648  11.002  21.224  0.00  0.00     0.065 H 
BRANCH  25  28
ATOM     28  C21 Y5H d          -1.138  12.674  22.499  0.00  0.00    -0.027 C 
ATOM     29  H17 Y5H d          -2.066  13.242  22.659  0.00  0.00     0.037 H 
ATOM     30  H18 Y5H d          -0.275  13.350  22.580  0.00  0.00     0.037 H 
BRANCH  28  31
ATOM     31  C23 Y5H d          -1.025  11.521  23.515  0.00  0.00     0.086 C 
ATOM     32  H19 Y5H d          -0.241  11.776  24.243  0.00  0.00     0.076 H 
ATOM     33  H20 Y5H d          -0.737  10.608  22.972  0.00  0.00     0.076 H 
BRANCH  31  34
ATOM     34  N29 Y5H d          -2.308  11.243  24.272  0.00  0.00    -0.079 N 
BRANCH  34  35
ATOM     35  C32 Y5H d          -3.219  10.387  23.438  0.00  0.00     0.067 C 
ATOM     36  H21 Y5H d          -2.647   9.937  22.613  0.00  0.00     0.068 H 
ATOM     37  H22 Y5H d          -4.029  11.007  23.026  0.00  0.00     0.068 H 
ATOM     38  H23 Y5H d          -3.648   9.590  24.064  0.00  0.00     0.068 H 
ENDBRANCH  34  35
BRANCH  34  39
ATOM     39  C31 Y5H d          -2.991  12.580  24.440  0.00  0.00     0.067 C 
ATOM     40  H24 Y5H d          -4.052  12.487  24.165  0.00  0.00     0.068 H 
ATOM     41  H25 Y5H d          -2.507  13.324  23.790  0.00  0.00     0.068 H 
ATOM     42  H26 Y5H d          -2.911  12.903  25.488  0.00  0.00     0.068 H 
ENDBRANCH  34  39
BRANCH  34  43
ATOM     43  C30 Y5H d          -2.080  10.589  25.592  0.00  0.00     0.067 C 
ATOM     44  H27 Y5H d          -1.235  11.075  26.101  0.00  0.00     0.068 H 
ATOM     45  H28 Y5H d          -1.853   9.524  25.440  0.00  0.00     0.068 H 
ATOM     46  H29 Y5H d          -2.985  10.686  26.210  0.00  0.00     0.068 H 
ENDBRANCH  34  43
ENDBRANCH  31  34
ENDBRANCH  28  31
ENDBRANCH  25  28
ENDBRANCH  13  25
BRANCH   1  47
ATOM     47  C4  Y5H d          -5.101  11.816  17.905  0.00  0.00     0.091 A 
ATOM     48  N16 Y5H d          -4.648  10.533  17.695  0.00  0.00    -0.224 NA
ATOM     49  C17 Y5H d          -5.625   9.765  18.132  0.00  0.00     0.186 A 
ATOM     50  O10 Y5H d          -6.736  10.444  18.518  0.00  0.00    -0.301 OA
ATOM     51  C9  Y5H d          -6.344  11.767  18.390  0.00  0.00     0.047 A 
ATOM     52  H3  Y5H d          -6.954  12.632  18.645  0.00  0.00     0.126 H 
BRANCH  49  53
ATOM     53  C20 Y5H d          -5.736   8.318  18.030  0.00  0.00     0.059 A 
ATOM     54  C22 Y5H d          -4.993   7.364  18.716  0.00  0.00    -0.060 A 
ATOM     55  C24 Y5H d          -5.442   6.040  18.500  0.00  0.00    -0.054 A 
ATOM     56  H2  Y5H d          -4.147   7.611  19.356  0.00  0.00     0.085 H 
ATOM     57  C25 Y5H d          -6.562   6.028  17.708  0.00  0.00     0.075 A 
ATOM     58  H1  Y5H d          -4.964   5.151  18.907  0.00  0.00     0.086 H 
ATOM     59 CL1  Y5H d          -7.502   4.638  17.209  0.00  0.00    -0.076 Cl
ATOM     60  S1  Y5H d          -7.031   7.599  17.126  0.00  0.00    -0.074 SA
ENDBRANCH  49  53
ENDBRANCH   1  47
TORSDOF 9
ENDMDL
MODEL 3
REMARK VINA RESULT:      -6.5      4.333      7.156
REMARK  9 active torsions:
REMARK  status: ('A' for Active; 'I' for Inactive)
REMARK    1  A    between atoms: C20_6  and  C17_7 
REMARK    2  A    between atoms: C4_11  and  C1_12 
REMARK    3  A    between atoms: N12_24  and  C19_25 
REMARK    4  A    between atoms: C19_25  and  C21_26 
REMARK    5  A    between atoms: C21_26  and  C23_27 
REMARK    6  A    between atoms: C23_27  and  N29_28 
REMARK    7  A    between atoms: N29_28  and  C32_29 
REMARK    8  A    between atoms: N29_28  and  C31_30 
REMARK    9  A    between atoms: N29_28  and  C30_31 
ROOT
ATOM      1  C1  Y5H d          -2.754  10.545  22.342  0.00  0.00     0.160 C 
ATOM      2  N3  Y5H d          -2.703  11.560  23.427  0.00  0.00    -0.055 N 
ATOM      3  C7  Y5H d          -1.258  11.742  23.651  0.00  0.00     0.117 C 
ATOM      4  C14 Y5H d          -0.836  10.551  24.530  0.00  0.00    -0.036 C 
ATOM      5  C15 Y5H d          -2.104  10.244  25.344  0.00  0.00    -0.040 C 
ATOM      6  C8  Y5H d          -3.246  11.068  24.718  0.00  0.00     0.085 C 
ATOM      7  C5  Y5H d          -0.604  11.768  22.274  0.00  0.00     0.066 A 
ATOM      8  C2  Y5H d          -1.633  11.043  21.367  0.00  0.00     0.071 A 
ATOM      9  C6  Y5H d          -2.030  12.130  20.378  0.00  0.00     0.234 A 
ATOM     10  O13 Y5H d          -2.794  12.045  19.431  0.00  0.00    -0.272 OA
ATOM     11  C11 Y5H d          -0.506  13.178  21.750  0.00  0.00     0.233 A 
ATOM     12  O18 Y5H d           0.206  14.106  22.135  0.00  0.00    -0.272 OA
ATOM     13  N12 Y5H d          -1.407  13.351  20.682  0.00  0.00    -0.288 N 
ATOM     14  H4  Y5H d          -2.517   9.547  22.738  0.00  0.00     0.096 H 
ATOM     15  H5  Y5H d          -3.164  12.413  23.149  0.00  0.00     0.281 HD
ATOM     16  H6  Y5H d          -1.049  12.685  24.176  0.00  0.00     0.086 H 
ATOM     17  H7  Y5H d          -0.001  10.827  25.192  0.00  0.00     0.036 H 
ATOM     18  H8  Y5H d          -0.545   9.689  23.913  0.00  0.00     0.036 H 
ATOM     19  H9  Y5H d          -1.960  10.534  26.395  0.00  0.00     0.035 H 
ATOM     20  H10 Y5H d          -2.338   9.170  25.288  0.00  0.00     0.035 H 
ATOM     21  H11 Y5H d          -4.130  10.437  24.550  0.00  0.00     0.076 H 
ATOM     22  H12 Y5H d          -3.516  11.911  25.370  0.00  0.00     0.076 H 
ATOM     23  H13 Y5H d           0.380  11.276  22.281  0.00  0.00     0.059 H 
ATOM     24  H14 Y5H d          -1.196  10.185  20.834  0.00  0.00     0.059 H 
ENDROOT
BRANCH  13  25
ATOM     25  C19 Y5H d          -1.604  14.585  19.905  0.00  0.00     0.007 C 
ATOM     26  H15 Y5H d          -1.518  15.453  20.576  0.00  0.00     0.065 H 
ATOM     27  H16 Y5H d          -2.606  14.571  19.451  0.00  0.00     0.065 H 
BRANCH  25  28
ATOM     28  C21 Y5H d          -0.548  14.697  18.796  0.00  0.00    -0.027 C 
ATOM     29  H17 Y5H d          -0.053  13.728  18.632  0.00  0.00     0.037 H 
ATOM     30  H18 Y5H d           0.206  15.455  19.053  0.00  0.00     0.037 H 
BRANCH  28  31
ATOM     31  C23 Y5H d          -1.342  15.121  17.546  0.00  0.00     0.086 C 
ATOM     32  H19 Y5H d          -1.044  16.145  17.277  0.00  0.00     0.076 H 
ATOM     33  H20 Y5H d          -2.414  15.104  17.794  0.00  0.00     0.076 H 
BRANCH  31  34
ATOM     34  N29 Y5H d          -1.116  14.226  16.344  0.00  0.00    -0.079 N 
BRANCH  34  35
ATOM     35  C32 Y5H d          -2.376  13.474  16.021  0.00  0.00     0.067 C 
ATOM     36  H21 Y5H d          -2.506  13.427  14.930  0.00  0.00     0.068 H 
ATOM     37  H22 Y5H d          -3.237  13.991  16.471  0.00  0.00     0.068 H 
ATOM     38  H23 Y5H d          -2.308  12.454  16.426  0.00  0.00     0.068 H 
ENDBRANCH  34  35
BRANCH  34  39
ATOM     39  C31 Y5H d          -0.089  13.204  16.772  0.00  0.00     0.067 C 
ATOM     40  H24 Y5H d          -0.300  12.881  17.802  0.00  0.00     0.068 H 
ATOM     41  H25 Y5H d           0.915  13.651  16.726  0.00  0.00     0.068 H 
ATOM     42  H26 Y5H d          -0.134  12.335  16.099  0.00  0.00     0.068 H 
ENDBRANCH  34  39
BRANCH  34  43
ATOM     43  C30 Y5H d          -0.657  14.971  15.136  0.00  0.00     0.067 C 
ATOM     44  H27 Y5H d          -0.533  14.269  14.298  0.00  0.00     0.068 H 
ATOM     45  H28 Y5H d           0.304  15.460  15.350  0.00  0.00     0.068 H 
ATOM     46  H29 Y5H d          -1.405  15.732  14.869  0.00  0.00     0.068 H 
ENDBRANCH  34  43
ENDBRANCH  31  34
ENDBRANCH  28  31
ENDBRANCH  25  28
ENDBRANCH  13  25
BRANCH   1  47
ATOM     47  C4  Y5H d          -4.086  10.485  21.640  0.00  0.00     0.091 A 
ATOM     48  N16 Y5H d          -4.486   9.432  20.848  0.00  0.00    -0.224 NA
ATOM     49  C17 Y5H d          -5.702   9.757  20.461  0.00  0.00     0.186 A 
ATOM     50  O10 Y5H d          -6.098  10.995  20.850  0.00  0.00    -0.301 OA
ATOM     51  C9  Y5H d          -5.041  11.419  21.639  0.00  0.00     0.047 A 
ATOM     52  H3  Y5H d          -4.995  12.366  22.175  0.00  0.00     0.126 H 
BRANCH  49  53
ATOM     53  C20 Y5H d          -6.548   9.063  19.501  0.00  0.00     0.059 A 
ATOM     54  C22 Y5H d          -7.384   9.630  18.547  0.00  0.00    -0.060 A 
ATOM     55  C24 Y5H d          -7.962   8.682  17.671  0.00  0.00    -0.054 A 
ATOM     56  H2  Y5H d          -7.575  10.700  18.480  0.00  0.00     0.085 H 
ATOM     57  C25 Y5H d          -7.494   7.421  17.939  0.00  0.00     0.075 A 
ATOM     58  H1  Y5H d          -8.681   8.921  16.890  0.00  0.00     0.086 H 
ATOM     59 CL1  Y5H d          -7.880   5.937  17.095  0.00  0.00    -0.076 Cl
ATOM     60  S1  Y5H d          -6.433   7.342  19.316  0.00  0.00    -0.074 SA
ENDBRANCH  49  53
ENDBRANCH   1  47
TORSDOF 9
ENDMDL
MODEL 4
REMARK VINA RESULT:      -6.5      4.256      6.695
REMARK  9 active torsions:
REMARK  status: ('A' for Active; 'I' for Inactive)
REMARK    1  A    between atoms: C20_6  and  C17_7 
REMARK    2  A    between atoms: C4_11  and  C1_12 
REMARK    3  A    between atoms: N12_24  and  C19_25 
REMARK    4  A    between atoms: C19_25  and  C21_26 
REMARK    5  A    between atoms: C21_26  and  C23_27 
REMARK    6  A    between atoms: C23_27  and  N29_28 
REMARK    7  A    between atoms: N29_28  and  C32_29 
REMARK    8  A    between atoms: N29_28  and  C31_30 
REMARK    9  A    between atoms: N29_28  and  C30_31 
ROOT
ATOM      1  C1  Y5H d          -4.450  11.777  22.490  0.00  0.00     0.160 C 
ATOM      2  N3  Y5H d          -4.697  13.242  22.540  0.00  0.00    -0.055 N 
ATOM      3  C7  Y5H d          -3.657  13.728  23.463  0.00  0.00     0.117 C 
ATOM      4  C14 Y5H d          -4.199  13.429  24.872  0.00  0.00    -0.036 C 
ATOM      5  C15 Y5H d          -5.724  13.524  24.693  0.00  0.00    -0.040 C 
ATOM      6  C8  Y5H d          -5.990  13.599  23.177  0.00  0.00     0.085 C 
ATOM      7  C5  Y5H d          -2.377  12.977  23.111  0.00  0.00     0.066 A 
ATOM      8  C2  Y5H d          -2.889  11.705  22.383  0.00  0.00     0.071 A 
ATOM      9  C6  Y5H d          -2.298  11.859  20.988  0.00  0.00     0.234 A 
ATOM     10  O13 Y5H d          -2.383  11.091  20.045  0.00  0.00    -0.272 OA
ATOM     11  C11 Y5H d          -1.565  13.740  22.097  0.00  0.00     0.233 A 
ATOM     12  O18 Y5H d          -0.941  14.794  22.229  0.00  0.00    -0.272 OA
ATOM     13  N12 Y5H d          -1.605  13.073  20.857  0.00  0.00    -0.288 N 
ATOM     14  H4  Y5H d          -4.804  11.296  23.413  0.00  0.00     0.096 H 
ATOM     15  H5  Y5H d          -4.627  13.654  21.623  0.00  0.00     0.281 HD
ATOM     16  H6  Y5H d          -3.492  14.809  23.349  0.00  0.00     0.086 H 
ATOM     17  H7  Y5H d          -3.842  14.175  25.598  0.00  0.00     0.036 H 
ATOM     18  H8  Y5H d          -3.903  12.423  25.203  0.00  0.00     0.036 H 
ATOM     19  H9  Y5H d          -6.108  14.426  25.190  0.00  0.00     0.035 H 
ATOM     20  H10 Y5H d          -6.210  12.634  25.119  0.00  0.00     0.035 H 
ATOM     21  H11 Y5H d          -6.774  12.884  22.887  0.00  0.00     0.076 H 
ATOM     22  H12 Y5H d          -6.296  14.615  22.889  0.00  0.00     0.076 H 
ATOM     23  H13 Y5H d          -1.782  12.744  24.006  0.00  0.00     0.059 H 
ATOM     24  H14 Y5H d          -2.527  10.777  22.849  0.00  0.00     0.059 H 
ENDROOT
BRANCH  13  25
ATOM     25  C19 Y5H d          -0.933  13.502  19.620  0.00  0.00     0.007 C 
ATOM     26  H15 Y5H d          -0.718  12.619  19.000  0.00  0.00     0.065 H 
ATOM     27  H16 Y5H d           0.009  14.009  19.877  0.00  0.00     0.065 H 
BRANCH  25  28
ATOM     28  C21 Y5H d          -1.828  14.468  18.830  0.00  0.00    -0.027 C 
ATOM     29  H17 Y5H d          -1.257  15.350  18.505  0.00  0.00     0.037 H 
ATOM     30  H18 Y5H d          -2.684  14.790  19.440  0.00  0.00     0.037 H 
BRANCH  28  31
ATOM     31  C23 Y5H d          -2.302  13.649  17.614  0.00  0.00     0.086 C 
ATOM     32  H19 Y5H d          -3.400  13.588  17.644  0.00  0.00     0.076 H 
ATOM     33  H20 Y5H d          -1.877  12.637  17.690  0.00  0.00     0.076 H 
BRANCH  31  34
ATOM     34  N29 Y5H d          -1.894  14.241  16.280  0.00  0.00    -0.079 N 
BRANCH  34  35
ATOM     35  C32 Y5H d          -2.957  13.972  15.253  0.00  0.00     0.067 C 
ATOM     36  H21 Y5H d          -2.578  13.253  14.512  0.00  0.00     0.068 H 
ATOM     37  H22 Y5H d          -3.225  14.912  14.748  0.00  0.00     0.068 H 
ATOM     38  H23 Y5H d          -3.846  13.553  15.747  0.00  0.00     0.068 H 
ENDBRANCH  34  35
BRANCH  34  39
ATOM     39  C31 Y5H d          -0.660  13.483  15.847  0.00  0.00     0.067 C 
ATOM     40  H24 Y5H d          -0.579  13.510  14.751  0.00  0.00     0.068 H 
ATOM     41  H25 Y5H d          -0.734  12.439  16.184  0.00  0.00     0.068 H 
ATOM     42  H26 Y5H d           0.231  13.948  16.292  0.00  0.00     0.068 H 
ENDBRANCH  34  39
BRANCH  34  43
ATOM     43  C30 Y5H d          -1.625  15.706  16.346  0.00  0.00     0.067 C 
ATOM     44  H27 Y5H d          -1.971  16.099  17.314  0.00  0.00     0.068 H 
ATOM     45  H28 Y5H d          -2.160  16.214  15.531  0.00  0.00     0.068 H 
ATOM     46  H29 Y5H d          -0.544  15.885  16.243  0.00  0.00     0.068 H 
ENDBRANCH  34  43
ENDBRANCH  31  34
ENDBRANCH  28  31
ENDBRANCH  25  28
ENDBRANCH  13  25
BRANCH   1  47
ATOM     47  C4  Y5H d          -5.099  11.100  21.310  0.00  0.00     0.091 A 
ATOM     48  N16 Y5H d          -4.985   9.754  21.043  0.00  0.00    -0.224 NA
ATOM     49  C17 Y5H d          -5.716   9.572  19.962  0.00  0.00     0.186 A 
ATOM     50  O10 Y5H d          -6.220  10.715  19.432  0.00  0.00    -0.301 OA
ATOM     51  C9  Y5H d          -5.829  11.676  20.351  0.00  0.00     0.047 A 
ATOM     52  H3  Y5H d          -6.078  12.734  20.299  0.00  0.00     0.126 H 
BRANCH  49  53
ATOM     53  C20 Y5H d          -5.844   8.360  19.167  0.00  0.00     0.059 A 
ATOM     54  C22 Y5H d          -4.885   7.374  18.969  0.00  0.00    -0.060 A 
ATOM     55  C24 Y5H d          -5.371   6.252  18.259  0.00  0.00    -0.054 A 
ATOM     56  H2  Y5H d          -3.859   7.458  19.325  0.00  0.00     0.085 H 
ATOM     57  C25 Y5H d          -6.710   6.383  17.995  0.00  0.00     0.075 A 
ATOM     58  H1  Y5H d          -4.763   5.399  17.962  0.00  0.00     0.086 H 
ATOM     59 CL1  Y5H d          -7.757   5.236  17.188  0.00  0.00    -0.076 Cl
ATOM     60  S1  Y5H d          -7.382   7.905  18.505  0.00  0.00    -0.074 SA
ENDBRANCH  49  53
ENDBRANCH   1  47
TORSDOF 9
ENDMDL
MODEL 5
REMARK VINA RESULT:      -6.4      1.589      2.095
REMARK  9 active torsions:
REMARK  status: ('A' for Active; 'I' for Inactive)
REMARK    1  A    between atoms: C20_6  and  C17_7 
REMARK    2  A    between atoms: C4_11  and  C1_12 
REMARK    3  A    between atoms: N12_24  and  C19_25 
REMARK    4  A    between atoms: C19_25  and  C21_26 
REMARK    5  A    between atoms: C21_26  and  C23_27 
REMARK    6  A    between atoms: C23_27  and  N29_28 
REMARK    7  A    between atoms: N29_28  and  C32_29 
REMARK    8  A    between atoms: N29_28  and  C31_30 
REMARK    9  A    between atoms: N29_28  and  C30_31 
ROOT
ATOM      1  C1  Y5H d          -4.038  14.008  21.920  0.00  0.00     0.160 C 
ATOM      2  N3  Y5H d          -5.407  13.538  22.256  0.00  0.00    -0.055 N 
ATOM      3  C7  Y5H d          -6.246  14.177  21.228  0.00  0.00     0.117 C 
ATOM      4  C14 Y5H d          -6.452  15.621  21.717  0.00  0.00    -0.036 C 
ATOM      5  C15 Y5H d          -6.398  15.487  23.248  0.00  0.00    -0.040 C 
ATOM      6  C8  Y5H d          -5.906  14.060  23.554  0.00  0.00     0.085 C 
ATOM      7  C5  Y5H d          -5.482  14.064  19.912  0.00  0.00     0.066 A 
ATOM      8  C2  Y5H d          -4.010  13.866  20.361  0.00  0.00     0.071 A 
ATOM      9  C6  Y5H d          -3.676  12.485  19.813  0.00  0.00     0.234 A 
ATOM     10  O13 Y5H d          -2.615  11.887  19.871  0.00  0.00    -0.272 OA
ATOM     11  C11 Y5H d          -5.866  12.807  19.173  0.00  0.00     0.233 A 
ATOM     12  O18 Y5H d          -6.925  12.523  18.613  0.00  0.00    -0.272 OA
ATOM     13  N12 Y5H d          -4.794  11.894  19.199  0.00  0.00    -0.288 N 
ATOM     14  H4  Y5H d          -3.907  15.058  22.222  0.00  0.00     0.096 H 
ATOM     15  H5  Y5H d          -5.461  12.531  22.234  0.00  0.00     0.281 HD
ATOM     16  H6  Y5H d          -7.219  13.673  21.133  0.00  0.00     0.086 H 
ATOM     17  H7  Y5H d          -7.426  16.013  21.390  0.00  0.00     0.036 H 
ATOM     18  H8  Y5H d          -5.650  16.280  21.352  0.00  0.00     0.036 H 
ATOM     19  H9  Y5H d          -7.400  15.642  23.677  0.00  0.00     0.035 H 
ATOM     20  H10 Y5H d          -5.701  16.227  23.669  0.00  0.00     0.035 H 
ATOM     21  H11 Y5H d          -5.097  14.081  24.298  0.00  0.00     0.076 H 
ATOM     22  H12 Y5H d          -6.732  13.438  23.929  0.00  0.00     0.076 H 
ATOM     23  H13 Y5H d          -5.620  14.955  19.283  0.00  0.00     0.059 H 
ATOM     24  H14 Y5H d          -3.332  14.619  19.930  0.00  0.00     0.059 H 
ENDROOT
BRANCH  13  25
ATOM     25  C19 Y5H d          -4.777  10.557  18.585  0.00  0.00     0.007 C 
ATOM     26  H15 Y5H d          -3.739  10.279  18.352  0.00  0.00     0.065 H 
ATOM     27  H16 Y5H d          -5.368  10.579  17.657  0.00  0.00     0.065 H 
BRANCH  25  28
ATOM     28  C21 Y5H d          -5.377   9.519  19.542  0.00  0.00    -0.027 C 
ATOM     29  H17 Y5H d          -5.694   9.994  20.483  0.00  0.00     0.037 H 
ATOM     30  H18 Y5H d          -4.649   8.725  19.761  0.00  0.00     0.037 H 
BRANCH  28  31
ATOM     31  C23 Y5H d          -6.593   8.949  18.785  0.00  0.00     0.086 C 
ATOM     32  H19 Y5H d          -6.876   9.664  17.997  0.00  0.00     0.076 H 
ATOM     33  H20 Y5H d          -7.424   8.840  19.496  0.00  0.00     0.076 H 
BRANCH  31  34
ATOM     34  N29 Y5H d          -6.335   7.603  18.138  0.00  0.00    -0.079 N 
BRANCH  34  35
ATOM     35  C32 Y5H d          -6.222   7.764  16.649  0.00  0.00     0.067 C 
ATOM     36  H21 Y5H d          -5.329   8.360  16.411  0.00  0.00     0.068 H 
ATOM     37  H22 Y5H d          -7.117   8.276  16.266  0.00  0.00     0.068 H 
ATOM     38  H23 Y5H d          -6.136   6.773  16.179  0.00  0.00     0.068 H 
ENDBRANCH  34  35
BRANCH  34  39
ATOM     39  C31 Y5H d          -7.570   6.772  18.399  0.00  0.00     0.067 C 
ATOM     40  H24 Y5H d          -7.288   5.856  18.939  0.00  0.00     0.068 H 
ATOM     41  H25 Y5H d          -8.041   6.503  17.442  0.00  0.00     0.068 H 
ATOM     42  H26 Y5H d          -8.281   7.351  19.007  0.00  0.00     0.068 H 
ENDBRANCH  34  39
BRANCH  34  43
ATOM     43  C30 Y5H d          -5.115   6.925  18.661  0.00  0.00     0.067 C 
ATOM     44  H27 Y5H d          -4.734   6.222  17.905  0.00  0.00     0.068 H 
ATOM     45  H28 Y5H d          -5.365   6.375  19.579  0.00  0.00     0.068 H 
ATOM     46  H29 Y5H d          -4.344   7.677  18.882  0.00  0.00     0.068 H 
ENDBRANCH  34  43
ENDBRANCH  31  34
ENDBRANCH  28  31
ENDBRANCH  25  28
ENDBRANCH  13  25
BRANCH   1  47
ATOM     47  C4  Y5H d          -2.948  13.182  22.553  0.00  0.00     0.091 A 
ATOM     48  N16 Y5H d          -3.182  12.035  23.277  0.00  0.00    -0.224 NA
ATOM     49  C17 Y5H d          -1.981  11.613  23.618  0.00  0.00     0.186 A 
ATOM     50  O10 Y5H d          -0.975  12.452  23.265  0.00  0.00    -0.301 OA
ATOM     51  C9  Y5H d          -1.637  13.436  22.548  0.00  0.00     0.047 A 
ATOM     52  H3  Y5H d          -1.162  14.284  22.056  0.00  0.00     0.126 H 
BRANCH  49  53
ATOM     53  C20 Y5H d          -1.642  10.509  24.505  0.00  0.00     0.059 A 
ATOM     54  C22 Y5H d          -0.520   9.692  24.445  0.00  0.00    -0.060 A 
ATOM     55  C24 Y5H d          -0.413   8.803  25.539  0.00  0.00    -0.054 A 
ATOM     56  H2  Y5H d           0.206   9.731  23.634  0.00  0.00     0.085 H 
ATOM     57  C25 Y5H d          -1.423   9.016  26.442  0.00  0.00     0.075 A 
ATOM     58  H1  Y5H d           0.366   8.050  25.650  0.00  0.00     0.086 H 
ATOM     59 CL1  Y5H d          -1.682   8.200  27.969  0.00  0.00    -0.076 Cl
ATOM     60  S1  Y5H d          -2.576  10.218  25.937  0.00  0.00    -0.074 SA
ENDBRANCH  49  53
ENDBRANCH   1  47
TORSDOF 9
ENDMDL
MODEL 6
REMARK VINA RESULT:      -6.1      4.072      7.130
REMARK  9 active torsions:
REMARK  status: ('A' for Active; 'I' for Inactive)
REMARK    1  A    between atoms: C20_6  and  C17_7 
REMARK    2  A    between atoms: C4_11  and  C1_12 
REMARK    3  A    between atoms: N12_24  and  C19_25 
REMARK    4  A    between atoms: C19_25  and  C21_26 
REMARK    5  A    between atoms: C21_26  and  C23_27 
REMARK    6  A    between atoms: C23_27  and  N29_28 
REMARK    7  A    between atoms: N29_28  and  C32_29 
REMARK    8  A    between atoms: N29_28  and  C31_30 
REMARK    9  A    between atoms: N29_28  and  C30_31 
ROOT
ATOM      1  C1  Y5H d          -2.831  10.453  22.584  0.00  0.00     0.160 C 
ATOM      2  N3  Y5H d          -2.820  11.538  23.601  0.00  0.00    -0.055 N 
ATOM      3  C7  Y5H d          -1.390  11.682  23.924  0.00  0.00     0.117 C 
ATOM      4  C14 Y5H d          -1.084  10.541  24.910  0.00  0.00    -0.036 C 
ATOM      5  C15 Y5H d          -2.421  10.336  25.641  0.00  0.00    -0.040 C 
ATOM      6  C8  Y5H d          -3.478  11.155  24.876  0.00  0.00     0.085 C 
ATOM      7  C5  Y5H d          -0.634  11.590  22.603  0.00  0.00     0.066 A 
ATOM      8  C2  Y5H d          -1.621  10.842  21.669  0.00  0.00     0.071 A 
ATOM      9  C6  Y5H d          -1.898  11.872  20.582  0.00  0.00     0.234 A 
ATOM     10  O13 Y5H d          -2.591  11.749  19.587  0.00  0.00    -0.272 OA
ATOM     11  C11 Y5H d          -0.439  12.956  21.997  0.00  0.00     0.233 A 
ATOM     12  O18 Y5H d           0.280  13.883  22.373  0.00  0.00    -0.272 OA
ATOM     13  N12 Y5H d          -1.249  13.088  20.852  0.00  0.00    -0.288 N 
ATOM     14  H4  Y5H d          -2.666   9.477  23.062  0.00  0.00     0.096 H 
ATOM     15  H5  Y5H d          -3.224  12.385  23.233  0.00  0.00     0.281 HD
ATOM     16  H6  Y5H d          -1.182  12.652  24.400  0.00  0.00     0.086 H 
ATOM     17  H7  Y5H d          -0.291  10.831  25.615  0.00  0.00     0.036 H 
ATOM     18  H8  Y5H d          -0.784   9.628  24.375  0.00  0.00     0.036 H 
ATOM     19  H9  Y5H d          -2.344  10.692  26.679  0.00  0.00     0.035 H 
ATOM     20  H10 Y5H d          -2.694   9.270  25.638  0.00  0.00     0.035 H 
ATOM     21  H11 Y5H d          -4.373  10.547  24.681  0.00  0.00     0.076 H 
ATOM     22  H12 Y5H d          -3.761  12.051  25.448  0.00  0.00     0.076 H 
ATOM     23  H13 Y5H d           0.325  11.064  22.719  0.00  0.00     0.059 H 
ATOM     24  H14 Y5H d          -1.181   9.934  21.229  0.00  0.00     0.059 H 
ENDROOT
BRANCH  13  25
ATOM     25  C19 Y5H d          -1.337  14.272  19.983  0.00  0.00     0.007 C 
ATOM     26  H15 Y5H d          -1.241  13.958  18.933  0.00  0.00     0.065 H 
ATOM     27  H16 Y5H d          -0.521  14.966  20.235  0.00  0.00     0.065 H 
BRANCH  25  28
ATOM     28  C21 Y5H d          -2.683  14.982  20.178  0.00  0.00    -0.027 C 
ATOM     29  H17 Y5H d          -2.619  15.724  20.988  0.00  0.00     0.037 H 
ATOM     30  H18 Y5H d          -3.476  14.256  20.408  0.00  0.00     0.037 H 
BRANCH  28  31
ATOM     31  C23 Y5H d          -2.955  15.675  18.828  0.00  0.00     0.086 C 
ATOM     32  H19 Y5H d          -2.072  15.539  18.185  0.00  0.00     0.076 H 
ATOM     33  H20 Y5H d          -3.112  16.747  19.014  0.00  0.00     0.076 H 
BRANCH  31  34
ATOM     34  N29 Y5H d          -4.167  15.134  18.095  0.00  0.00    -0.079 N 
BRANCH  34  35
ATOM     35  C32 Y5H d          -4.947  14.223  18.999  0.00  0.00     0.067 C 
ATOM     36  H21 Y5H d          -4.814  14.541  20.044  0.00  0.00     0.068 H 
ATOM     37  H22 Y5H d          -4.585  13.191  18.881  0.00  0.00     0.068 H 
ATOM     38  H23 Y5H d          -6.014  14.271  18.735  0.00  0.00     0.068 H 
ENDBRANCH  34  35
BRANCH  34  39
ATOM     39  C31 Y5H d          -3.628  14.283  16.968  0.00  0.00     0.067 C 
ATOM     40  H24 Y5H d          -3.477  14.909  16.076  0.00  0.00     0.068 H 
ATOM     41  H25 Y5H d          -4.346  13.483  16.737  0.00  0.00     0.068 H 
ATOM     42  H26 Y5H d          -2.669  13.838  17.271  0.00  0.00     0.068 H 
ENDBRANCH  34  39
BRANCH  34  43
ATOM     43  C30 Y5H d          -5.063  16.206  17.573  0.00  0.00     0.067 C 
ATOM     44  H27 Y5H d          -4.472  16.925  16.987  0.00  0.00     0.068 H 
ATOM     45  H28 Y5H d          -5.541  16.726  18.416  0.00  0.00     0.068 H 
ATOM     46  H29 Y5H d          -5.836  15.758  16.932  0.00  0.00     0.068 H 
ENDBRANCH  34  43
ENDBRANCH  31  34
ENDBRANCH  28  31
ENDBRANCH  25  28
ENDBRANCH  13  25
BRANCH   1  47
ATOM     47  C4  Y5H d          -4.109  10.393  21.786  0.00  0.00     0.091 A 
ATOM     48  N16 Y5H d          -4.385   9.413  20.860  0.00  0.00    -0.224 NA
ATOM     49  C17 Y5H d          -5.593   9.707  20.424  0.00  0.00     0.186 A 
ATOM     50  O10 Y5H d          -6.096  10.868  20.915  0.00  0.00    -0.301 OA
ATOM     51  C9  Y5H d          -5.122  11.263  21.819  0.00  0.00     0.047 A 
ATOM     52  H3  Y5H d          -5.174  12.144  22.456  0.00  0.00     0.126 H 
BRANCH  49  53
ATOM     53  C20 Y5H d          -6.327   9.076  19.337  0.00  0.00     0.059 A 
ATOM     54  C22 Y5H d          -7.363   8.155  19.440  0.00  0.00    -0.060 A 
ATOM     55  C24 Y5H d          -7.961   7.842  18.197  0.00  0.00    -0.054 A 
ATOM     56  H2  Y5H d          -7.684   7.718  20.384  0.00  0.00     0.085 H 
ATOM     57  C25 Y5H d          -7.409   8.586  17.187  0.00  0.00     0.075 A 
ATOM     58  H1  Y5H d          -8.754   7.108  18.061  0.00  0.00     0.086 H 
ATOM     59 CL1  Y5H d          -7.850   8.585  15.494  0.00  0.00    -0.076 Cl
ATOM     60  S1  Y5H d          -6.089   9.599  17.700  0.00  0.00    -0.074 SA
ENDBRANCH  49  53
ENDBRANCH   1  47
TORSDOF 9
ENDMDL
MODEL 7
REMARK VINA RESULT:      -5.9      4.746      8.234
REMARK  9 active torsions:
REMARK  status: ('A' for Active; 'I' for Inactive)
REMARK    1  A    between atoms: C20_6  and  C17_7 
REMARK    2  A    between atoms: C4_11  and  C1_12 
REMARK    3  A    between atoms: N12_24  and  C19_25 
REMARK    4  A    between atoms: C19_25  and  C21_26 
REMARK    5  A    between atoms: C21_26  and  C23_27 
REMARK    6  A    between atoms: C23_27  and  N29_28 
REMARK    7  A    between atoms: N29_28  and  C32_29 
REMARK    8  A    between atoms: N29_28  and  C31_30 
REMARK    9  A    between atoms: N29_28  and  C30_31 
ROOT
ATOM      1  C1  Y5H d          -2.784  14.011  16.628  0.00  0.00     0.160 C 
ATOM      2  N3  Y5H d          -1.467  13.351  16.827  0.00  0.00    -0.055 N 
ATOM      3  C7  Y5H d          -0.589  14.464  17.227  0.00  0.00     0.117 C 
ATOM      4  C14 Y5H d          -0.212  15.171  15.912  0.00  0.00    -0.036 C 
ATOM      5  C15 Y5H d          -0.242  14.034  14.877  0.00  0.00    -0.040 C 
ATOM      6  C8  Y5H d          -0.882  12.816  15.571  0.00  0.00     0.085 C 
ATOM      7  C5  Y5H d          -1.392  15.326  18.195  0.00  0.00     0.066 A 
ATOM      8  C2  Y5H d          -2.866  14.971  17.863  0.00  0.00     0.071 A 
ATOM      9  C6  Y5H d          -3.363  14.358  19.164  0.00  0.00     0.234 A 
ATOM     10  O13 Y5H d          -4.482  13.950  19.427  0.00  0.00    -0.272 OA
ATOM     11  C11 Y5H d          -1.168  14.888  19.620  0.00  0.00     0.233 A 
ATOM     12  O18 Y5H d          -0.161  14.994  20.320  0.00  0.00    -0.272 OA
ATOM     13  N12 Y5H d          -2.334  14.273  20.116  0.00  0.00    -0.288 N 
ATOM     14  H4  Y5H d          -2.790  14.579  15.686  0.00  0.00     0.096 H 
ATOM     15  H5  Y5H d          -1.525  12.628  17.528  0.00  0.00     0.281 HD
ATOM     16  H6  Y5H d           0.320  14.098  17.726  0.00  0.00     0.086 H 
ATOM     17  H7  Y5H d           0.791  15.616  15.978  0.00  0.00     0.036 H 
ATOM     18  H8  Y5H d          -0.945  15.951  15.661  0.00  0.00     0.036 H 
ATOM     19  H9  Y5H d           0.780  13.790  14.552  0.00  0.00     0.035 H 
ATOM     20  H10 Y5H d          -0.843  14.332  14.005  0.00  0.00     0.035 H 
ATOM     21  H11 Y5H d          -1.665  12.377  14.936  0.00  0.00     0.076 H 
ATOM     22  H12 Y5H d          -0.121  12.054  15.794  0.00  0.00     0.076 H 
ATOM     23  H13 Y5H d          -1.172  16.395  18.067  0.00  0.00     0.059 H 
ATOM     24  H14 Y5H d          -3.466  15.856  17.606  0.00  0.00     0.059 H 
ENDROOT
BRANCH  13  25
ATOM     25  C19 Y5H d          -2.513  13.717  21.467  0.00  0.00     0.007 C 
ATOM     26  H15 Y5H d          -3.588  13.599  21.670  0.00  0.00     0.065 H 
ATOM     27  H16 Y5H d          -2.074  14.407  22.203  0.00  0.00     0.065 H 
BRANCH  25  28
ATOM     28  C21 Y5H d          -1.824  12.350  21.581  0.00  0.00    -0.027 C 
ATOM     29  H17 Y5H d          -0.922  12.315  20.952  0.00  0.00     0.037 H 
ATOM     30  H18 Y5H d          -2.509  11.543  21.284  0.00  0.00     0.037 H 
BRANCH  28  31
ATOM     31  C23 Y5H d          -1.451  12.227  23.071  0.00  0.00     0.086 C 
ATOM     32  H19 Y5H d          -1.891  13.079  23.610  0.00  0.00     0.076 H 
ATOM     33  H20 Y5H d          -0.355  12.265  23.159  0.00  0.00     0.076 H 
BRANCH  31  34
ATOM     34  N29 Y5H d          -1.939  10.948  23.721  0.00  0.00    -0.079 N 
BRANCH  34  35
ATOM     35  C32 Y5H d          -3.045  10.347  22.901  0.00  0.00     0.067 C 
ATOM     36  H21 Y5H d          -3.932  10.996  22.949  0.00  0.00     0.068 H 
ATOM     37  H22 Y5H d          -3.298   9.352  23.299  0.00  0.00     0.068 H 
ATOM     38  H23 Y5H d          -2.717  10.252  21.856  0.00  0.00     0.068 H 
ENDBRANCH  34  35
BRANCH  34  39
ATOM     39  C31 Y5H d          -2.542  11.355  25.045  0.00  0.00     0.067 C 
ATOM     40  H24 Y5H d          -1.739  11.518  25.779  0.00  0.00     0.068 H 
ATOM     41  H25 Y5H d          -3.211  10.560  25.404  0.00  0.00     0.068 H 
ATOM     42  H26 Y5H d          -3.115  12.285  24.917  0.00  0.00     0.068 H 
ENDBRANCH  34  39
BRANCH  34  43
ATOM     43  C30 Y5H d          -0.858   9.939  23.914  0.00  0.00     0.067 C 
ATOM     44  H27 Y5H d          -1.221   8.948  23.603  0.00  0.00     0.068 H 
ATOM     45  H28 Y5H d          -0.571   9.907  24.975  0.00  0.00     0.068 H 
ATOM     46  H29 Y5H d           0.016  10.217  23.307  0.00  0.00     0.068 H 
ENDBRANCH  34  43
ENDBRANCH  31  34
ENDBRANCH  28  31
ENDBRANCH  25  28
ENDBRANCH  13  25
BRANCH   1  47
ATOM     47  C4  Y5H d          -3.943  13.047  16.620  0.00  0.00     0.091 A 
ATOM     48  N16 Y5H d          -3.831  11.716  16.952  0.00  0.00    -0.224 NA
ATOM     49  C17 Y5H d          -5.059  11.249  16.850  0.00  0.00     0.186 A 
ATOM     50  O10 Y5H d          -5.958  12.147  16.373  0.00  0.00    -0.301 OA
ATOM     51  C9  Y5H d          -5.205  13.306  16.271  0.00  0.00     0.047 A 
ATOM     52  H3  Y5H d          -5.584  14.277  15.955  0.00  0.00     0.126 H 
BRANCH  49  53
ATOM     53  C20 Y5H d          -5.499   9.866  16.960  0.00  0.00     0.059 A 
ATOM     54  C22 Y5H d          -5.952   9.040  15.938  0.00  0.00    -0.060 A 
ATOM     55  C24 Y5H d          -6.168   7.705  16.350  0.00  0.00    -0.054 A 
ATOM     56  H2  Y5H d          -6.123   9.387  14.920  0.00  0.00     0.085 H 
ATOM     57  C25 Y5H d          -5.807   7.533  17.661  0.00  0.00     0.075 A 
ATOM     58  H1  Y5H d          -6.568   6.918  15.711  0.00  0.00     0.086 H 
ATOM     59 CL1  Y5H d          -5.848   6.054  18.596  0.00  0.00    -0.076 Cl
ATOM     60  S1  Y5H d          -5.300   9.000  18.450  0.00  0.00    -0.074 SA
ENDBRANCH  49  53
ENDBRANCH   1  47
TORSDOF 9
ENDMDL
MODEL 8
REMARK VINA RESULT:      -5.8      3.085      5.050
REMARK  9 active torsions:
REMARK  status: ('A' for Active; 'I' for Inactive)
REMARK    1  A    between atoms: C20_6  and  C17_7 
REMARK    2  A    between atoms: C4_11  and  C1_12 
REMARK    3  A    between atoms: N12_24  and  C19_25 
REMARK    4  A    between atoms: C19_25  and  C21_26 
REMARK    5  A    between atoms: C21_26  and  C23_27 
REMARK    6  A    between atoms: C23_27  and  N29_28 
REMARK    7  A    between atoms: N29_28  and  C32_29 
REMARK    8  A    between atoms: N29_28  and  C31_30 
REMARK    9  A    between atoms: N29_28  and  C30_31 
ROOT
ATOM      1  C1  Y5H d          -1.983  13.309  20.152  0.00  0.00     0.160 C 
ATOM      2  N3  Y5H d          -2.220  14.616  20.820  0.00  0.00    -0.055 N 
ATOM      3  C7  Y5H d          -2.818  15.437  19.753  0.00  0.00     0.117 C 
ATOM      4  C14 Y5H d          -1.629  15.911  18.898  0.00  0.00    -0.036 C 
ATOM      5  C15 Y5H d          -0.474  15.990  19.909  0.00  0.00    -0.040 C 
ATOM      6  C8  Y5H d          -0.967  15.316  21.204  0.00  0.00     0.085 C 
ATOM      7  C5  Y5H d          -3.804  14.538  19.014  0.00  0.00     0.066 A 
ATOM      8  C2  Y5H d          -3.307  13.105  19.341  0.00  0.00     0.071 A 
ATOM      9  C6  Y5H d          -4.483  12.509  20.102  0.00  0.00     0.234 A 
ATOM     10  O13 Y5H d          -4.599  11.380  20.546  0.00  0.00    -0.272 OA
ATOM     11  C11 Y5H d          -5.184  14.648  19.610  0.00  0.00     0.233 A 
ATOM     12  O18 Y5H d          -5.977  15.590  19.576  0.00  0.00    -0.272 OA
ATOM     13  N12 Y5H d          -5.505  13.455  20.287  0.00  0.00    -0.288 N 
ATOM     14  H4  Y5H d          -1.115  13.373  19.480  0.00  0.00     0.096 H 
ATOM     15  H5  Y5H d          -2.827  14.511  21.618  0.00  0.00     0.281 HD
ATOM     16  H6  Y5H d          -3.350  16.306  20.166  0.00  0.00     0.086 H 
ATOM     17  H7  Y5H d          -1.832  16.897  18.454  0.00  0.00     0.036 H 
ATOM     18  H8  Y5H d          -1.405  15.188  18.100  0.00  0.00     0.036 H 
ATOM     19  H9  Y5H d          -0.213  17.040  20.106  0.00  0.00     0.035 H 
ATOM     20  H10 Y5H d           0.408  15.461  19.519  0.00  0.00     0.035 H 
ATOM     21  H11 Y5H d          -0.222  14.597  21.574  0.00  0.00     0.076 H 
ATOM     22  H12 Y5H d          -1.167  16.068  21.980  0.00  0.00     0.076 H 
ATOM     23  H13 Y5H d          -3.817  14.749  17.935  0.00  0.00     0.059 H 
ATOM     24  H14 Y5H d          -3.101  12.512  18.437  0.00  0.00     0.059 H 
ENDROOT
BRANCH  13  25
ATOM     25  C19 Y5H d          -6.764  13.172  20.995  0.00  0.00     0.007 C 
ATOM     26  H15 Y5H d          -6.764  12.123  21.326  0.00  0.00     0.065 H 
ATOM     27  H16 Y5H d          -7.609  13.341  20.311  0.00  0.00     0.065 H 
BRANCH  25  28
ATOM     28  C21 Y5H d          -6.910  14.088  22.217  0.00  0.00    -0.027 C 
ATOM     29  H17 Y5H d          -7.971  14.231  22.471  0.00  0.00     0.037 H 
ATOM     30  H18 Y5H d          -6.444  15.066  22.028  0.00  0.00     0.037 H 
BRANCH  28  31
ATOM     31  C23 Y5H d          -6.176  13.345  23.350  0.00  0.00     0.086 C 
ATOM     32  H19 Y5H d          -5.431  12.673  22.897  0.00  0.00     0.076 H 
ATOM     33  H20 Y5H d          -6.913  12.751  23.909  0.00  0.00     0.076 H 
BRANCH  31  34
ATOM     34  N29 Y5H d          -5.463  14.262  24.323  0.00  0.00    -0.079 N 
BRANCH  34  35
ATOM     35  C32 Y5H d          -5.320  13.582  25.656  0.00  0.00     0.067 C 
ATOM     36  H21 Y5H d          -4.935  12.563  25.508  0.00  0.00     0.068 H 
ATOM     37  H22 Y5H d          -6.302  13.535  26.150  0.00  0.00     0.068 H 
ATOM     38  H23 Y5H d          -4.619  14.152  26.284  0.00  0.00     0.068 H 
ENDBRANCH  34  35
BRANCH  34  39
ATOM     39  C31 Y5H d          -6.378  15.447  24.528  0.00  0.00     0.067 C 
ATOM     40  H24 Y5H d          -6.032  16.033  25.391  0.00  0.00     0.068 H 
ATOM     41  H25 Y5H d          -7.402  15.091  24.713  0.00  0.00     0.068 H 
ATOM     42  H26 Y5H d          -6.367  16.078  23.628  0.00  0.00     0.068 H 
ENDBRANCH  34  39
BRANCH  34  43
ATOM     43  C30 Y5H d          -4.121  14.700  23.841  0.00  0.00     0.067 C 
ATOM     44  H27 Y5H d          -4.019  14.459  22.773  0.00  0.00     0.068 H 
ATOM     45  H28 Y5H d          -3.339  14.179  24.411  0.00  0.00     0.068 H 
ATOM     46  H29 Y5H d          -4.018  15.786  23.983  0.00  0.00     0.068 H 
ENDBRANCH  34  43
ENDBRANCH  31  34
ENDBRANCH  28  31
ENDBRANCH  25  28
ENDBRANCH  13  25
BRANCH   1  47
ATOM     47  C4  Y5H d          -1.767  12.172  21.119  0.00  0.00     0.091 A 
ATOM     48  N16 Y5H d          -2.091  12.234  22.455  0.00  0.00    -0.224 NA
ATOM     49  C17 Y5H d          -1.777  11.043  22.923  0.00  0.00     0.186 A 
ATOM     50  O10 Y5H d          -1.170  10.232  22.019  0.00  0.00    -0.301 OA
ATOM     51  C9  Y5H d          -1.214  10.985  20.857  0.00  0.00     0.047 A 
ATOM     52  H3  Y5H d          -0.854  10.660  19.882  0.00  0.00     0.126 H 
BRANCH  49  53
ATOM     53  C20 Y5H d          -1.791  10.597  24.308  0.00  0.00     0.059 A 
ATOM     54  C22 Y5H d          -2.761  10.857  25.269  0.00  0.00    -0.060 A 
ATOM     55  C24 Y5H d          -2.551  10.159  26.482  0.00  0.00    -0.054 A 
ATOM     56  H2  Y5H d          -3.600  11.531  25.106  0.00  0.00     0.085 H 
ATOM     57  C25 Y5H d          -1.462   9.331  26.387  0.00  0.00     0.075 A 
ATOM     58  H1  Y5H d          -3.170  10.266  27.371  0.00  0.00     0.086 H 
ATOM     59 CL1  Y5H d          -0.841   8.238  27.605  0.00  0.00    -0.076 Cl
ATOM     60  S1  Y5H d          -0.612   9.456  24.873  0.00  0.00    -0.074 SA
ENDBRANCH  49  53
ENDBRANCH   1  47
TORSDOF 9
ENDMDL
MODEL 9
REMARK VINA RESULT:      -5.8      4.092      7.239
REMARK  9 active torsions:
REMARK  status: ('A' for Active; 'I' for Inactive)
REMARK    1  A    between atoms: C20_6  and  C17_7 
REMARK    2  A    between atoms: C4_11  and  C1_12 
REMARK    3  A    between atoms: N12_24  and  C19_25 
REMARK    4  A    between atoms: C19_25  and  C21_26 
REMARK    5  A    between atoms: C21_26  and  C23_27 
REMARK    6  A    between atoms: C23_27  and  N29_28 
REMARK    7  A    between atoms: N29_28  and  C32_29 
REMARK    8  A    between atoms: N29_28  and  C31_30 
REMARK    9  A    between atoms: N29_28  and  C30_31 
ROOT
ATOM      1  C1  Y5H d          -6.590   9.601  18.804  0.00  0.00     0.160 C 
ATOM      2  N3  Y5H d          -5.250   9.034  18.499  0.00  0.00    -0.055 N 
ATOM      3  C7  Y5H d          -5.372   8.619  17.091  0.00  0.00     0.117 C 
ATOM      4  C14 Y5H d          -6.107   7.268  17.133  0.00  0.00    -0.036 C 
ATOM      5  C15 Y5H d          -5.676   6.671  18.483  0.00  0.00    -0.040 C 
ATOM      6  C8  Y5H d          -4.952   7.791  19.255  0.00  0.00     0.085 C 
ATOM      7  C5  Y5H d          -6.136   9.727  16.375  0.00  0.00     0.066 A 
ATOM      8  C2  Y5H d          -6.894  10.448  17.522  0.00  0.00     0.071 A 
ATOM      9  C6  Y5H d          -6.303  11.851  17.481  0.00  0.00     0.234 A 
ATOM     10  O13 Y5H d          -6.599  12.814  18.169  0.00  0.00    -0.272 OA
ATOM     11  C11 Y5H d          -5.190  10.746  15.794  0.00  0.00     0.233 A 
ATOM     12  O18 Y5H d          -4.410  10.637  14.847  0.00  0.00    -0.272 OA
ATOM     13  N12 Y5H d          -5.285  11.950  16.519  0.00  0.00    -0.288 N 
ATOM     14  H4  Y5H d          -7.329   8.796  18.928  0.00  0.00     0.096 H 
ATOM     15  H5  Y5H d          -4.525   9.720  18.642  0.00  0.00     0.281 HD
ATOM     16  H6  Y5H d          -4.384   8.491  16.624  0.00  0.00     0.086 H 
ATOM     17  H7  Y5H d          -5.794   6.622  16.300  0.00  0.00     0.036 H 
ATOM     18  H8  Y5H d          -7.197   7.411  17.097  0.00  0.00     0.036 H 
ATOM     19  H9  Y5H d          -4.995   5.822  18.322  0.00  0.00     0.035 H 
ATOM     20  H10 Y5H d          -6.557   6.332  19.047  0.00  0.00     0.035 H 
ATOM     21  H11 Y5H d          -5.336   7.863  20.283  0.00  0.00     0.076 H 
ATOM     22  H12 Y5H d          -3.868   7.606  19.280  0.00  0.00     0.076 H 
ATOM     23  H13 Y5H d          -6.811   9.325  15.606  0.00  0.00     0.059 H 
ATOM     24  H14 Y5H d          -7.980  10.489  17.351  0.00  0.00     0.059 H 
ENDROOT
BRANCH  13  25
ATOM     25  C19 Y5H d          -4.525  13.183  16.256  0.00  0.00     0.007 C 
ATOM     26  H15 Y5H d          -5.152  14.053  16.500  0.00  0.00     0.065 H 
ATOM     27  H16 Y5H d          -4.247  13.217  15.192  0.00  0.00     0.065 H 
BRANCH  25  28
ATOM     28  C21 Y5H d          -3.252  13.221  17.113  0.00  0.00    -0.027 C 
ATOM     29  H17 Y5H d          -3.176  12.319  17.738  0.00  0.00     0.037 H 
ATOM     30  H18 Y5H d          -3.242  14.114  17.755  0.00  0.00     0.037 H 
BRANCH  28  31
ATOM     31  C23 Y5H d          -2.099  13.271  16.091  0.00  0.00     0.086 C 
ATOM     32  H19 Y5H d          -2.380  13.967  15.287  0.00  0.00     0.076 H 
ATOM     33  H20 Y5H d          -1.962  12.263  15.674  0.00  0.00     0.076 H 
BRANCH  31  34
ATOM     34  N29 Y5H d          -0.779  13.729  16.680  0.00  0.00    -0.079 N 
BRANCH  34  35
ATOM     35  C32 Y5H d          -0.504  15.150  16.276  0.00  0.00     0.067 C 
ATOM     36  H21 Y5H d          -1.449  15.643  16.003  0.00  0.00     0.068 H 
ATOM     37  H22 Y5H d           0.178  15.161  15.413  0.00  0.00     0.068 H 
ATOM     38  H23 Y5H d          -0.041  15.687  17.118  0.00  0.00     0.068 H 
ENDBRANCH  34  35
BRANCH  34  39
ATOM     39  C31 Y5H d           0.285  12.873  16.033  0.00  0.00     0.067 C 
ATOM     40  H24 Y5H d          -0.005  12.650  14.996  0.00  0.00     0.068 H 
ATOM     41  H25 Y5H d           0.392  11.934  16.594  0.00  0.00     0.068 H 
ATOM     42  H26 Y5H d           1.243  13.413  16.037  0.00  0.00     0.068 H 
ENDBRANCH  34  39
BRANCH  34  43
ATOM     43  C30 Y5H d          -0.727  13.614  18.165  0.00  0.00     0.067 C 
ATOM     44  H27 Y5H d          -0.483  12.578  18.444  0.00  0.00     0.068 H 
ATOM     45  H28 Y5H d          -1.705  13.887  18.588  0.00  0.00     0.068 H 
ATOM     46  H29 Y5H d           0.045  14.291  18.559  0.00  0.00     0.068 H 
ENDBRANCH  34  43
ENDBRANCH  31  34
ENDBRANCH  28  31
ENDBRANCH  25  28
ENDBRANCH  13  25
BRANCH   1  47
ATOM     47  C4  Y5H d          -6.608  10.470  20.036  0.00  0.00     0.091 A 
ATOM     48  N16 Y5H d          -5.473  10.966  20.637  0.00  0.00    -0.224 NA
ATOM     49  C17 Y5H d          -5.925  11.687  21.643  0.00  0.00     0.186 A 
ATOM     50  O10 Y5H d          -7.269  11.620  21.817  0.00  0.00    -0.301 OA
ATOM     51  C9  Y5H d          -7.678  10.852  20.738  0.00  0.00     0.047 A 
ATOM     52  H3  Y5H d          -8.710  10.601  20.499  0.00  0.00     0.126 H 
BRANCH  49  53
ATOM     53  C20 Y5H d          -5.153  12.333  22.694  0.00  0.00     0.059 A 
ATOM     54  C22 Y5H d          -3.792  12.619  22.688  0.00  0.00    -0.060 A 
ATOM     55  C24 Y5H d          -3.374  13.383  23.803  0.00  0.00    -0.054 A 
ATOM     56  H2  Y5H d          -3.115  12.286  21.904  0.00  0.00     0.085 H 
ATOM     57  C25 Y5H d          -4.443  13.719  24.593  0.00  0.00     0.075 A 
ATOM     58  H1  Y5H d          -2.343  13.665  24.006  0.00  0.00     0.086 H 
ATOM     59 CL1  Y5H d          -4.432  14.693  26.047  0.00  0.00    -0.076 Cl
ATOM     60  S1  Y5H d          -5.953  13.033  24.065  0.00  0.00    -0.074 SA
ENDBRANCH  49  53
ENDBRANCH   1  47
TORSDOF 9
ENDMDL
MODEL 10
REMARK VINA RESULT:      -5.6      3.895      7.065
REMARK  9 active torsions:
REMARK  status: ('A' for Active; 'I' for Inactive)
REMARK    1  A    between atoms: C20_6  and  C17_7 
REMARK    2  A    between atoms: C4_11  and  C1_12 
REMARK    3  A    between atoms: N12_24  and  C19_25 
REMARK    4  A    between atoms: C19_25  and  C21_26 
REMARK    5  A    between atoms: C21_26  and  C23_27 
REMARK    6  A    between atoms: C23_27  and  N29_28 
REMARK    7  A    between atoms: N29_28  and  C32_29 
REMARK    8  A    between atoms: N29_28  and  C31_30 
REMARK    9  A    between atoms: N29_28  and  C30_31 
ROOT
ATOM      1  C1  Y5H d          -6.471   8.752  19.231  0.00  0.00     0.160 C 
ATOM      2  N3  Y5H d          -5.834   8.019  18.105  0.00  0.00    -0.055 N 
ATOM      3  C7  Y5H d          -6.978   7.647  17.255  0.00  0.00     0.117 C 
ATOM      4  C14 Y5H d          -7.589   6.403  17.926  0.00  0.00    -0.036 C 
ATOM      5  C15 Y5H d          -6.379   5.733  18.597  0.00  0.00    -0.040 C 
ATOM      6  C8  Y5H d          -5.212   6.735  18.516  0.00  0.00     0.085 C 
ATOM      7  C5  Y5H d          -7.905   8.858  17.218  0.00  0.00     0.066 A 
ATOM      8  C2  Y5H d          -7.518   9.652  18.494  0.00  0.00     0.071 A 
ATOM      9  C6  Y5H d          -7.000  10.966  17.924  0.00  0.00     0.234 A 
ATOM     10  O13 Y5H d          -6.607  11.947  18.531  0.00  0.00    -0.272 OA
ATOM     11  C11 Y5H d          -7.575   9.753  16.052  0.00  0.00     0.233 A 
ATOM     12  O18 Y5H d          -7.737   9.559  14.847  0.00  0.00    -0.272 OA
ATOM     13  N12 Y5H d          -6.991  10.947  16.520  0.00  0.00    -0.288 N 
ATOM     14  H4  Y5H d          -6.968   8.048  19.915  0.00  0.00     0.096 H 
ATOM     15  H5  Y5H d          -5.165   8.601  17.625  0.00  0.00     0.281 HD
ATOM     16  H6  Y5H d          -6.655   7.399  16.234  0.00  0.00     0.086 H 
ATOM     17  H7  Y5H d          -8.044   5.736  17.179  0.00  0.00     0.036 H 
ATOM     18  H8  Y5H d          -8.345   6.689  18.672  0.00  0.00     0.036 H 
ATOM     19  H9  Y5H d          -6.118   4.805  18.067  0.00  0.00     0.035 H 
ATOM     20  H10 Y5H d          -6.608   5.503  19.648  0.00  0.00     0.035 H 
ATOM     21  H11 Y5H d          -4.723   6.839  19.495  0.00  0.00     0.076 H 
ATOM     22  H12 Y5H d          -4.472   6.408  17.770  0.00  0.00     0.076 H 
ATOM     23  H13 Y5H d          -8.964   8.560  17.205  0.00  0.00     0.059 H 
ATOM     24  H14 Y5H d          -8.379   9.838  19.153  0.00  0.00     0.059 H 
ENDROOT
BRANCH  13  25
ATOM     25  C19 Y5H d          -6.535  12.073  15.690  0.00  0.00     0.007 C 
ATOM     26  H15 Y5H d          -6.754  13.018  16.210  0.00  0.00     0.065 H 
ATOM     27  H16 Y5H d          -7.069  12.052  14.727  0.00  0.00     0.065 H 
BRANCH  25  28
ATOM     28  C21 Y5H d          -5.025  11.975  15.433  0.00  0.00    -0.027 C 
ATOM     29  H17 Y5H d          -4.826  11.522  14.451  0.00  0.00     0.037 H 
ATOM     30  H18 Y5H d          -4.536  11.378  16.217  0.00  0.00     0.037 H 
BRANCH  28  31
ATOM     31  C23 Y5H d          -4.530  13.433  15.470  0.00  0.00     0.086 C 
ATOM     32  H19 Y5H d          -5.325  14.058  15.904  0.00  0.00     0.076 H 
ATOM     33  H20 Y5H d          -4.331  13.758  14.438  0.00  0.00     0.076 H 
BRANCH  31  34
ATOM     34  N29 Y5H d          -3.268  13.632  16.286  0.00  0.00    -0.079 N 
BRANCH  34  35
ATOM     35  C32 Y5H d          -2.845  15.072  16.232  0.00  0.00     0.067 C 
ATOM     36  H21 Y5H d          -3.300  15.556  15.356  0.00  0.00     0.068 H 
ATOM     37  H22 Y5H d          -1.749  15.130  16.155  0.00  0.00     0.068 H 
ATOM     38  H23 Y5H d          -3.176  15.585  17.147  0.00  0.00     0.068 H 
ENDBRANCH  34  35
BRANCH  34  39
ATOM     39  C31 Y5H d          -2.192  12.830  15.591  0.00  0.00     0.067 C 
ATOM     40  H24 Y5H d          -2.574  11.824  15.363  0.00  0.00     0.068 H 
ATOM     41  H25 Y5H d          -1.313  12.748  16.248  0.00  0.00     0.068 H 
ATOM     42  H26 Y5H d          -1.904  13.333  14.657  0.00  0.00     0.068 H 
ENDBRANCH  34  39
BRANCH  34  43
ATOM     43  C30 Y5H d          -3.416  13.208  17.707  0.00  0.00     0.067 C 
ATOM     44  H27 Y5H d          -3.550  14.096  18.343  0.00  0.00     0.068 H 
ATOM     45  H28 Y5H d          -2.514  12.664  18.024  0.00  0.00     0.068 H 
ATOM     46  H29 Y5H d          -4.293  12.552  17.805  0.00  0.00     0.068 H 
ENDBRANCH  34  43
ENDBRANCH  31  34
ENDBRANCH  28  31
ENDBRANCH  25  28
ENDBRANCH  13  25
BRANCH   1  47
ATOM     47  C4  Y5H d          -5.503   9.594  20.022  0.00  0.00     0.091 A 
ATOM     48  N16 Y5H d          -5.837  10.259  21.179  0.00  0.00    -0.224 NA
ATOM     49  C17 Y5H d          -4.716  10.837  21.561  0.00  0.00     0.186 A 
ATOM     50  O10 Y5H d          -3.689  10.691  20.686  0.00  0.00    -0.301 OA
ATOM     51  C9  Y5H d          -4.227   9.852  19.722  0.00  0.00     0.047 A 
ATOM     52  H3  Y5H d          -3.693   9.464  18.856  0.00  0.00     0.126 H 
BRANCH  49  53
ATOM     53  C20 Y5H d          -4.525  11.777  22.655  0.00  0.00     0.059 A 
ATOM     54  C22 Y5H d          -3.341  12.062  23.326  0.00  0.00    -0.060 A 
ATOM     55  C24 Y5H d          -3.461  13.130  24.246  0.00  0.00    -0.054 A 
ATOM     56  H2  Y5H d          -2.413  11.518  23.160  0.00  0.00     0.085 H 
ATOM     57  C25 Y5H d          -4.718  13.675  24.201  0.00  0.00     0.075 A 
ATOM     58  H1  Y5H d          -2.662  13.472  24.902  0.00  0.00     0.086 H 
ATOM     59 CL1  Y5H d          -5.324  15.040  25.114  0.00  0.00    -0.076 Cl
ATOM     60  S1  Y5H d          -5.807  12.846  23.126  0.00  0.00    -0.074 SA
ENDBRANCH  49  53
ENDBRANCH   1  47
TORSDOF 9
ENDMDL
