MODEL 1
REMARK VINA RESULT:      -6.0      0.000      0.000
REMARK  4 active torsions:
REMARK  status: ('A' for Active; 'I' for Inactive)
REMARK    1  A    between atoms: C14_6  and  N2_7 
REMARK    2  A    between atoms: C9_8  and  C8_9 
REMARK       I    between atoms: C8_9  and  N1_11 
REMARK    3  A    between atoms: C4_13  and  C5_14 
REMARK    4  A    between atoms: C2_17  and  C1_18 
ROOT
ATOM      1  C8  SX3 d         -24.367   8.358 -16.696  0.00  0.00     0.256 C 
ATOM      2  O1  SX3 d         -25.114   7.591 -17.303  0.00  0.00    -0.267 OA
ATOM      3  N1  SX3 d         -22.980   8.281 -16.903  0.00  0.00    -0.347 N 
ATOM      4  C6  SX3 d         -22.078   9.050 -16.036  0.00  0.00     0.001 C 
ATOM      5  C4  SX3 d         -21.057   8.187 -15.307  0.00  0.00    -0.042 C 
ATOM      6  C3  SX3 d         -20.292   7.320 -16.297  0.00  0.00    -0.056 C 
ATOM      7  C7  SX3 d         -22.341   7.253 -17.750  0.00  0.00     0.001 C 
ATOM      8  C2  SX3 d         -21.244   6.439 -17.094  0.00  0.00    -0.042 C 
ATOM      9  H6  SX3 d         -22.684   9.580 -15.287  0.00  0.00     0.065 H 
ATOM     10  H7  SX3 d         -21.538   9.781 -16.656  0.00  0.00     0.065 H 
ATOM     11  H8  SX3 d         -21.584   7.527 -14.604  0.00  0.00     0.042 H 
ATOM     12  H12 SX3 d         -19.586   6.681 -15.746  0.00  0.00     0.034 H 
ATOM     13  H13 SX3 d         -19.735   7.969 -16.990  0.00  0.00     0.034 H 
ATOM     14  H14 SX3 d         -21.907   7.760 -18.624  0.00  0.00     0.065 H 
ATOM     15  H15 SX3 d         -23.124   6.556 -18.082  0.00  0.00     0.065 H 
ATOM     16  H16 SX3 d         -21.711   5.718 -16.407  0.00  0.00     0.042 H 
ENDROOT
BRANCH   1  17
ATOM     17  C9  SX3 d         -25.060   9.332 -15.817  0.00  0.00     0.059 A 
ATOM     18  C10 SX3 d         -25.437  10.543 -16.413  0.00  0.00    -0.049 A 
ATOM     19  C11 SX3 d         -26.061  11.531 -15.644  0.00  0.00     0.012 A 
ATOM     20  H1  SX3 d         -25.245  10.713 -17.466  0.00  0.00     0.087 H 
ATOM     21 BR1  SX3 d         -26.561  13.138 -16.512  0.00  0.00    -0.051 Br
ATOM     22  C12 SX3 d         -26.322  11.342 -14.282  0.00  0.00    -0.064 A 
ATOM     23  C13 SX3 d         -25.948  10.120 -13.692  0.00  0.00    -0.055 A 
ATOM     24  H2  SX3 d         -26.801  12.119 -13.696  0.00  0.00     0.085 H 
ATOM     25  C14 SX3 d         -25.305   9.105 -14.435  0.00  0.00     0.041 A 
ATOM     26  H3  SX3 d         -26.158   9.954 -12.642  0.00  0.00     0.087 H 
BRANCH  25  27
ATOM     27  N2  SX3 d         -24.939   7.918 -13.780  0.00  0.00    -0.398 N 
ATOM     28  H4  SX3 d         -24.688   7.938 -12.780  0.00  0.00     0.156 HD
ATOM     29  H5  SX3 d         -24.921   7.028 -14.298  0.00  0.00     0.156 HD
ENDBRANCH  25  27
ENDBRANCH   1  17
BRANCH   5  30
ATOM     30  C5  SX3 d         -20.126   9.088 -14.523  0.00  0.00    -0.071 C 
ATOM     31  H9  SX3 d         -19.473   9.634 -15.220  0.00  0.00     0.028 H 
ATOM     32  H10 SX3 d         -19.511   8.478 -13.845  0.00  0.00     0.028 H 
ATOM     33  H11 SX3 d         -20.719   9.805 -13.936  0.00  0.00     0.028 H 
ENDBRANCH   5  30
BRANCH   8  34
ATOM     34  C1  SX3 d         -20.455   5.670 -18.152  0.00  0.00    -0.071 C 
ATOM     35  H17 SX3 d         -21.089   4.881 -18.582  0.00  0.00     0.028 H 
ATOM     36  H18 SX3 d         -19.567   5.215 -17.689  0.00  0.00     0.028 H 
ATOM     37  H19 SX3 d         -20.140   6.361 -18.948  0.00  0.00     0.028 H 
ENDBRANCH   8  34
TORSDOF 4
ENDMDL
MODEL 2
REMARK VINA RESULT:      -5.9      2.611      6.103
REMARK  4 active torsions:
REMARK  status: ('A' for Active; 'I' for Inactive)
REMARK    1  A    between atoms: C14_6  and  N2_7 
REMARK    2  A    between atoms: C9_8  and  C8_9 
REMARK       I    between atoms: C8_9  and  N1_11 
REMARK    3  A    between atoms: C4_13  and  C5_14 
REMARK    4  A    between atoms: C2_17  and  C1_18 
ROOT
ATOM      1  C8  SX3 d         -24.616  10.395 -16.407  0.00  0.00     0.256 C 
ATOM      2  O1  SX3 d         -24.245  11.252 -17.210  0.00  0.00    -0.267 OA
ATOM      3  N1  SX3 d         -25.857  10.538 -15.766  0.00  0.00    -0.347 N 
ATOM      4  C6  SX3 d         -26.208   9.631 -14.667  0.00  0.00     0.001 C 
ATOM      5  C4  SX3 d         -26.525  10.353 -13.364  0.00  0.00    -0.042 C 
ATOM      6  C3  SX3 d         -27.594  11.412 -13.590  0.00  0.00    -0.056 C 
ATOM      7  C7  SX3 d         -26.721  11.725 -15.925  0.00  0.00     0.001 C 
ATOM      8  C2  SX3 d         -27.147  12.415 -14.646  0.00  0.00    -0.042 C 
ATOM      9  H6  SX3 d         -25.361   8.951 -14.491  0.00  0.00     0.065 H 
ATOM     10  H7  SX3 d         -27.091   9.047 -14.965  0.00  0.00     0.065 H 
ATOM     11  H8  SX3 d         -25.614  10.850 -13.001  0.00  0.00     0.042 H 
ATOM     12  H12 SX3 d         -27.781  11.943 -12.645  0.00  0.00     0.034 H 
ATOM     13  H13 SX3 d         -28.521  10.923 -13.926  0.00  0.00     0.034 H 
ATOM     14  H14 SX3 d         -27.632  11.409 -16.456  0.00  0.00     0.065 H 
ATOM     15  H15 SX3 d         -26.177  12.458 -16.537  0.00  0.00     0.065 H 
ATOM     16  H16 SX3 d         -26.288  12.977 -14.252  0.00  0.00     0.042 H 
ENDROOT
BRANCH   1  17
ATOM     17  C9  SX3 d         -23.681   9.254 -16.245  0.00  0.00     0.059 A 
ATOM     18  C10 SX3 d         -22.547   9.493 -15.457  0.00  0.00    -0.049 A 
ATOM     19  C11 SX3 d         -21.595   8.482 -15.284  0.00  0.00     0.012 A 
ATOM     20  H1  SX3 d         -22.407  10.457 -14.984  0.00  0.00     0.087 H 
ATOM     21 BR1  SX3 d         -20.094   8.861 -14.196  0.00  0.00    -0.051 Br
ATOM     22  C12 SX3 d         -21.746   7.225 -15.882  0.00  0.00    -0.064 A 
ATOM     23  C13 SX3 d         -22.893   6.990 -16.666  0.00  0.00    -0.055 A 
ATOM     24  H2  SX3 d         -20.999   6.452 -15.746  0.00  0.00     0.085 H 
ATOM     25  C14 SX3 d         -23.867   7.992 -16.872  0.00  0.00     0.041 A 
ATOM     26  H3  SX3 d         -23.030   6.017 -17.122  0.00  0.00     0.087 H 
BRANCH  25  27
ATOM     27  N2  SX3 d         -24.976   7.698 -17.682  0.00  0.00    -0.398 N 
ATOM     28  H4  SX3 d         -25.396   8.436 -18.266  0.00  0.00     0.156 HD
ATOM     29  H5  SX3 d         -25.369   6.746 -17.692  0.00  0.00     0.156 HD
ENDBRANCH  25  27
ENDBRANCH   1  17
BRANCH   5  30
ATOM     30  C5  SX3 d         -26.964   9.333 -12.334  0.00  0.00    -0.071 C 
ATOM     31  H9  SX3 d         -26.984   9.802 -11.339  0.00  0.00     0.028 H 
ATOM     32  H10 SX3 d         -26.256   8.491 -12.328  0.00  0.00     0.028 H 
ATOM     33  H11 SX3 d         -27.970   8.966 -12.587  0.00  0.00     0.028 H 
ENDBRANCH   5  30
BRANCH   8  34
ATOM     34  C1  SX3 d         -28.287  13.392 -14.928  0.00  0.00    -0.071 C 
ATOM     35  H17 SX3 d         -28.149  14.301 -14.324  0.00  0.00     0.028 H 
ATOM     36  H18 SX3 d         -29.247  12.921 -14.667  0.00  0.00     0.028 H 
ATOM     37  H19 SX3 d         -28.286  13.658 -15.995  0.00  0.00     0.028 H 
ENDBRANCH   8  34
TORSDOF 4
ENDMDL
MODEL 3
REMARK VINA RESULT:      -5.6      2.062      3.139
REMARK  4 active torsions:
REMARK  status: ('A' for Active; 'I' for Inactive)
REMARK    1  A    between atoms: C14_6  and  N2_7 
REMARK    2  A    between atoms: C9_8  and  C8_9 
REMARK       I    between atoms: C8_9  and  N1_11 
REMARK    3  A    between atoms: C4_13  and  C5_14 
REMARK    4  A    between atoms: C2_17  and  C1_18 
ROOT
ATOM      1  C8  SX3 d         -24.155  10.459 -16.523  0.00  0.00     0.256 C 
ATOM      2  O1  SX3 d         -23.473  11.176 -17.256  0.00  0.00    -0.267 OA
ATOM      3  N1  SX3 d         -23.520   9.581 -15.630  0.00  0.00    -0.347 N 
ATOM      4  C6  SX3 d         -24.321   8.586 -14.907  0.00  0.00     0.001 C 
ATOM      5  C4  SX3 d         -23.869   7.152 -15.147  0.00  0.00    -0.042 C 
ATOM      6  C3  SX3 d         -22.383   7.008 -14.853  0.00  0.00    -0.056 C 
ATOM      7  C7  SX3 d         -22.056   9.391 -15.580  0.00  0.00     0.001 C 
ATOM      8  C2  SX3 d         -21.565   7.963 -15.712  0.00  0.00    -0.042 C 
ATOM      9  H6  SX3 d         -25.369   8.680 -15.230  0.00  0.00     0.065 H 
ATOM     10  H7  SX3 d         -24.250   8.798 -13.829  0.00  0.00     0.065 H 
ATOM     11  H8  SX3 d         -24.040   6.896 -16.202  0.00  0.00     0.042 H 
ATOM     12  H12 SX3 d         -22.072   5.974 -15.067  0.00  0.00     0.034 H 
ATOM     13  H13 SX3 d         -22.202   7.233 -13.791  0.00  0.00     0.034 H 
ATOM     14  H14 SX3 d         -21.699   9.782 -14.616  0.00  0.00     0.065 H 
ATOM     15  H15 SX3 d         -21.613   9.975 -16.400  0.00  0.00     0.065 H 
ATOM     16  H16 SX3 d         -21.664   7.658 -16.764  0.00  0.00     0.042 H 
ENDROOT
BRANCH   1  17
ATOM     17  C9  SX3 d         -25.620  10.652 -16.657  0.00  0.00     0.059 A 
ATOM     18  C10 SX3 d         -26.188  11.645 -15.847  0.00  0.00    -0.049 A 
ATOM     19  C11 SX3 d         -27.569  11.866 -15.883  0.00  0.00     0.012 A 
ATOM     20  H1  SX3 d         -25.559  12.240 -15.195  0.00  0.00     0.087 H 
ATOM     21 BR1  SX3 d         -28.273  13.232 -14.779  0.00  0.00    -0.051 Br
ATOM     22  C12 SX3 d         -28.408  11.114 -16.714  0.00  0.00    -0.064 A 
ATOM     23  C13 SX3 d         -27.829  10.123 -17.530  0.00  0.00    -0.055 A 
ATOM     24  H2  SX3 d         -29.478  11.290 -16.728  0.00  0.00     0.085 H 
ATOM     25  C14 SX3 d         -26.441   9.866 -17.510  0.00  0.00     0.041 A 
ATOM     26  H3  SX3 d         -28.464   9.544 -18.190  0.00  0.00     0.087 H 
BRANCH  25  27
ATOM     27  N2  SX3 d         -25.931   8.849 -18.334  0.00  0.00    -0.398 N 
ATOM     28  H4  SX3 d         -25.019   8.421 -18.118  0.00  0.00     0.156 HD
ATOM     29  H5  SX3 d         -26.469   8.531 -19.153  0.00  0.00     0.156 HD
ENDBRANCH  25  27
ENDBRANCH   1  17
BRANCH   5  30
ATOM     30  C5  SX3 d         -24.698   6.226 -14.282  0.00  0.00    -0.071 C 
ATOM     31  H9  SX3 d         -24.674   6.578 -13.240  0.00  0.00     0.028 H 
ATOM     32  H10 SX3 d         -24.286   5.208 -14.336  0.00  0.00     0.028 H 
ATOM     33  H11 SX3 d         -25.738   6.221 -14.643  0.00  0.00     0.028 H 
ENDBRANCH   5  30
BRANCH   8  34
ATOM     34  C1  SX3 d         -20.095   7.872 -15.309  0.00  0.00    -0.071 C 
ATOM     35  H17 SX3 d         -20.019   7.483 -14.283  0.00  0.00     0.028 H 
ATOM     36  H18 SX3 d         -19.639   8.872 -15.356  0.00  0.00     0.028 H 
ATOM     37  H19 SX3 d         -19.567   7.196 -15.997  0.00  0.00     0.028 H 
ENDBRANCH   8  34
TORSDOF 4
ENDMDL
MODEL 4
REMARK VINA RESULT:      -5.5      2.402      5.775
REMARK  4 active torsions:
REMARK  status: ('A' for Active; 'I' for Inactive)
REMARK    1  A    between atoms: C14_6  and  N2_7 
REMARK    2  A    between atoms: C9_8  and  C8_9 
REMARK       I    between atoms: C8_9  and  N1_11 
REMARK    3  A    between atoms: C4_13  and  C5_14 
REMARK    4  A    between atoms: C2_17  and  C1_18 
ROOT
ATOM      1  C8  SX3 d         -24.705   8.880 -16.974  0.00  0.00     0.256 C 
ATOM      2  O1  SX3 d         -24.763   9.426 -18.076  0.00  0.00    -0.267 OA
ATOM      3  N1  SX3 d         -25.828   8.901 -16.132  0.00  0.00    -0.347 N 
ATOM      4  C6  SX3 d         -25.698   8.432 -14.747  0.00  0.00     0.001 C 
ATOM      5  C4  SX3 d         -26.090   9.480 -13.713  0.00  0.00    -0.042 C 
ATOM      6  C3  SX3 d         -27.483  10.017 -14.003  0.00  0.00    -0.056 C 
ATOM      7  C7  SX3 d         -27.070   9.634 -16.452  0.00  0.00     0.001 C 
ATOM      8  C2  SX3 d         -27.554  10.614 -15.402  0.00  0.00    -0.042 C 
ATOM      9  H6  SX3 d         -24.650   8.145 -14.572  0.00  0.00     0.065 H 
ATOM     10  H7  SX3 d         -26.346   7.553 -14.614  0.00  0.00     0.065 H 
ATOM     11  H8  SX3 d         -25.378  10.316 -13.765  0.00  0.00     0.042 H 
ATOM     12  H12 SX3 d         -27.730  10.796 -13.266  0.00  0.00     0.034 H 
ATOM     13  H13 SX3 d         -28.210   9.194 -13.925  0.00  0.00     0.034 H 
ATOM     14  H14 SX3 d         -27.866   8.892 -16.612  0.00  0.00     0.065 H 
ATOM     15  H15 SX3 d         -26.899  10.195 -17.382  0.00  0.00     0.065 H 
ATOM     16  H16 SX3 d         -26.909  11.503 -15.435  0.00  0.00     0.042 H 
ENDROOT
BRANCH   1  17
ATOM     17  C9  SX3 d         -23.413   8.209 -16.683  0.00  0.00     0.059 A 
ATOM     18  C10 SX3 d         -22.513   8.923 -15.881  0.00  0.00    -0.049 A 
ATOM     19  C11 SX3 d         -21.258   8.379 -15.591  0.00  0.00     0.012 A 
ATOM     20  H1  SX3 d         -22.789   9.895 -15.488  0.00  0.00     0.087 H 
ATOM     21 BR1  SX3 d         -20.094   9.386 -14.489  0.00  0.00    -0.051 Br
ATOM     22  C12 SX3 d         -20.872   7.127 -16.084  0.00  0.00    -0.064 A 
ATOM     23  C13 SX3 d         -21.785   6.411 -16.882  0.00  0.00    -0.055 A 
ATOM     24  H2  SX3 d         -19.894   6.718 -15.857  0.00  0.00     0.085 H 
ATOM     25  C14 SX3 d         -23.056   6.936 -17.205  0.00  0.00     0.041 A 
ATOM     26  H3  SX3 d         -21.506   5.434 -17.258  0.00  0.00     0.087 H 
BRANCH  25  27
ATOM     27  N2  SX3 d         -23.910   6.180 -18.024  0.00  0.00    -0.398 N 
ATOM     28  H4  SX3 d         -24.769   6.604 -18.403  0.00  0.00     0.156 HD
ATOM     29  H5  SX3 d         -23.678   5.201 -18.246  0.00  0.00     0.156 HD
ENDBRANCH  25  27
ENDBRANCH   1  17
BRANCH   5  30
ATOM     30  C5  SX3 d         -26.009   8.860 -12.334  0.00  0.00    -0.071 C 
ATOM     31  H9  SX3 d         -25.663   9.615 -11.613  0.00  0.00     0.028 H 
ATOM     32  H10 SX3 d         -25.302   8.018 -12.351  0.00  0.00     0.028 H 
ATOM     33  H11 SX3 d         -27.004   8.497 -12.036  0.00  0.00     0.028 H 
ENDBRANCH   5  30
BRANCH   8  34
ATOM     34  C1  SX3 d         -28.991  11.037 -15.699  0.00  0.00    -0.071 C 
ATOM     35  H17 SX3 d         -29.357  11.686 -14.890  0.00  0.00     0.028 H 
ATOM     36  H18 SX3 d         -29.629  10.143 -15.769  0.00  0.00     0.028 H 
ATOM     37  H19 SX3 d         -29.023  11.585 -16.652  0.00  0.00     0.028 H 
ENDBRANCH   8  34
TORSDOF 4
ENDMDL
MODEL 5
REMARK VINA RESULT:      -5.3      2.709      5.970
REMARK  4 active torsions:
REMARK  status: ('A' for Active; 'I' for Inactive)
REMARK    1  A    between atoms: C14_6  and  N2_7 
REMARK    2  A    between atoms: C9_8  and  C8_9 
REMARK       I    between atoms: C8_9  and  N1_11 
REMARK    3  A    between atoms: C4_13  and  C5_14 
REMARK    4  A    between atoms: C2_17  and  C1_18 
ROOT
ATOM      1  C8  SX3 d         -24.909   6.842 -14.813  0.00  0.00     0.256 C 
ATOM      2  O1  SX3 d         -25.287   5.671 -14.780  0.00  0.00    -0.267 OA
ATOM      3  N1  SX3 d         -25.664   7.831 -14.160  0.00  0.00    -0.347 N 
ATOM      4  C6  SX3 d         -25.330   9.245 -14.367  0.00  0.00     0.001 C 
ATOM      5  C4  SX3 d         -26.490  10.068 -14.911  0.00  0.00    -0.042 C 
ATOM      6  C3  SX3 d         -27.721   9.896 -14.033  0.00  0.00    -0.056 C 
ATOM      7  C7  SX3 d         -26.959   7.562 -13.502  0.00  0.00     0.001 C 
ATOM      8  C2  SX3 d         -28.121   8.430 -13.941  0.00  0.00    -0.042 C 
ATOM      9  H6  SX3 d         -24.495   9.306 -15.080  0.00  0.00     0.065 H 
ATOM     10  H7  SX3 d         -25.021   9.675 -13.403  0.00  0.00     0.065 H 
ATOM     11  H8  SX3 d         -26.734   9.714 -15.924  0.00  0.00     0.042 H 
ATOM     12  H12 SX3 d         -28.555  10.471 -14.465  0.00  0.00     0.034 H 
ATOM     13  H13 SX3 d         -27.499  10.274 -13.024  0.00  0.00     0.034 H 
ATOM     14  H14 SX3 d         -26.822   7.704 -12.420  0.00  0.00     0.065 H 
ATOM     15  H15 SX3 d         -27.227   6.514 -13.703  0.00  0.00     0.065 H 
ATOM     16  H16 SX3 d         -28.449   8.094 -14.935  0.00  0.00     0.042 H 
ENDROOT
BRANCH   1  17
ATOM     17  C9  SX3 d         -23.632   7.062 -15.536  0.00  0.00     0.059 A 
ATOM     18  C10 SX3 d         -22.632   7.744 -14.829  0.00  0.00    -0.049 A 
ATOM     19  C11 SX3 d         -21.411   8.026 -15.451  0.00  0.00     0.012 A 
ATOM     20  H1  SX3 d         -22.805   8.051 -13.805  0.00  0.00     0.087 H 
ATOM     21 BR1  SX3 d         -20.096   8.934 -14.438  0.00  0.00    -0.051 Br
ATOM     22  C12 SX3 d         -21.158   7.642 -16.773  0.00  0.00    -0.064 A 
ATOM     23  C13 SX3 d         -22.164   6.950 -17.474  0.00  0.00    -0.055 A 
ATOM     24  H2  SX3 d         -20.210   7.872 -17.246  0.00  0.00     0.085 H 
ATOM     25  C14 SX3 d         -23.413   6.659 -16.882  0.00  0.00     0.041 A 
ATOM     26  H3  SX3 d         -21.976   6.633 -18.493  0.00  0.00     0.087 H 
BRANCH  25  27
ATOM     27  N2  SX3 d         -24.381   5.985 -17.644  0.00  0.00    -0.398 N 
ATOM     28  H4  SX3 d         -24.784   5.101 -17.300  0.00  0.00     0.156 HD
ATOM     29  H5  SX3 d         -24.688   6.374 -18.547  0.00  0.00     0.156 HD
ENDBRANCH  25  27
ENDBRANCH   1  17
BRANCH   5  30
ATOM     30  C5  SX3 d         -26.065  11.518 -14.994  0.00  0.00    -0.071 C 
ATOM     31  H9  SX3 d         -26.851  12.156 -14.562  0.00  0.00     0.028 H 
ATOM     32  H10 SX3 d         -25.906  11.794 -16.047  0.00  0.00     0.028 H 
ATOM     33  H11 SX3 d         -25.129  11.659 -14.433  0.00  0.00     0.028 H 
ENDBRANCH   5  30
BRANCH   8  34
ATOM     34  C1  SX3 d         -29.285   8.284 -12.963  0.00  0.00    -0.071 C 
ATOM     35  H17 SX3 d         -30.226   8.185 -13.525  0.00  0.00     0.028 H 
ATOM     36  H18 SX3 d         -29.336   9.174 -12.318  0.00  0.00     0.028 H 
ATOM     37  H19 SX3 d         -29.133   7.389 -12.342  0.00  0.00     0.028 H 
ENDBRANCH   8  34
TORSDOF 4
ENDMDL
MODEL 6
REMARK VINA RESULT:      -5.2      2.623      6.192
REMARK  4 active torsions:
REMARK  status: ('A' for Active; 'I' for Inactive)
REMARK    1  A    between atoms: C14_6  and  N2_7 
REMARK    2  A    between atoms: C9_8  and  C8_9 
REMARK       I    between atoms: C8_9  and  N1_11 
REMARK    3  A    between atoms: C4_13  and  C5_14 
REMARK    4  A    between atoms: C2_17  and  C1_18 
ROOT
ATOM      1  C8  SX3 d         -25.250   8.549 -14.298  0.00  0.00     0.256 C 
ATOM      2  O1  SX3 d         -25.676   7.609 -13.626  0.00  0.00    -0.267 OA
ATOM      3  N1  SX3 d         -25.703   9.851 -14.031  0.00  0.00    -0.347 N 
ATOM      4  C6  SX3 d         -25.356  10.938 -14.954  0.00  0.00     0.001 C 
ATOM      5  C4  SX3 d         -26.569  11.657 -15.528  0.00  0.00    -0.042 C 
ATOM      6  C3  SX3 d         -27.484  12.133 -14.408  0.00  0.00    -0.056 C 
ATOM      7  C7  SX3 d         -26.752  10.158 -13.037  0.00  0.00     0.001 C 
ATOM      8  C2  SX3 d         -27.932  10.963 -13.541  0.00  0.00    -0.042 C 
ATOM      9  H6  SX3 d         -24.775  10.516 -15.787  0.00  0.00     0.065 H 
ATOM     10  H7  SX3 d         -24.740  11.672 -14.412  0.00  0.00     0.065 H 
ATOM     11  H8  SX3 d         -27.132  10.957 -16.161  0.00  0.00     0.042 H 
ATOM     12  H12 SX3 d         -28.369  12.617 -14.846  0.00  0.00     0.034 H 
ATOM     13  H13 SX3 d         -26.941  12.858 -13.783  0.00  0.00     0.034 H 
ATOM     14  H14 SX3 d         -26.284  10.725 -12.218  0.00  0.00     0.065 H 
ATOM     15  H15 SX3 d         -27.137   9.204 -12.648  0.00  0.00     0.065 H 
ATOM     16  H16 SX3 d         -28.568  10.303 -14.148  0.00  0.00     0.042 H 
ENDROOT
BRANCH   1  17
ATOM     17  C9  SX3 d         -24.241   8.174 -15.319  0.00  0.00     0.059 A 
ATOM     18  C10 SX3 d         -22.900   8.354 -14.958  0.00  0.00    -0.049 A 
ATOM     19  C11 SX3 d         -21.887   8.061 -15.877  0.00  0.00     0.012 A 
ATOM     20  H1  SX3 d         -22.648   8.719 -13.969  0.00  0.00     0.087 H 
ATOM     21 BR1  SX3 d         -20.094   8.310 -15.322  0.00  0.00    -0.051 Br
ATOM     22  C12 SX3 d         -22.179   7.588 -17.161  0.00  0.00    -0.064 A 
ATOM     23  C13 SX3 d         -23.529   7.402 -17.515  0.00  0.00    -0.055 A 
ATOM     24  H2  SX3 d         -21.385   7.371 -17.867  0.00  0.00     0.085 H 
ATOM     25  C14 SX3 d         -24.578   7.699 -16.617  0.00  0.00     0.041 A 
ATOM     26  H3  SX3 d         -23.770   7.021 -18.501  0.00  0.00     0.087 H 
BRANCH  25  27
ATOM     27  N2  SX3 d         -25.903   7.511 -17.040  0.00  0.00    -0.398 N 
ATOM     28  H4  SX3 d         -26.586   8.278 -16.952  0.00  0.00     0.156 HD
ATOM     29  H5  SX3 d         -26.193   6.607 -17.440  0.00  0.00     0.156 HD
ENDBRANCH  25  27
ENDBRANCH   1  17
BRANCH   5  30
ATOM     30  C5  SX3 d         -26.094  12.811 -16.384  0.00  0.00    -0.071 C 
ATOM     31  H9  SX3 d         -26.777  13.665 -16.260  0.00  0.00     0.028 H 
ATOM     32  H10 SX3 d         -26.082  12.503 -17.440  0.00  0.00     0.028 H 
ATOM     33  H11 SX3 d         -25.080  13.104 -16.076  0.00  0.00     0.028 H 
ENDBRANCH   5  30
BRANCH   8  34
ATOM     34  C1  SX3 d         -28.751  11.492 -12.365  0.00  0.00    -0.071 C 
ATOM     35  H17 SX3 d         -28.195  11.332 -11.430  0.00  0.00     0.028 H 
ATOM     36  H18 SX3 d         -29.711  10.956 -12.317  0.00  0.00     0.028 H 
ATOM     37  H19 SX3 d         -28.938  12.567 -12.502  0.00  0.00     0.028 H 
ENDBRANCH   8  34
TORSDOF 4
ENDMDL
MODEL 7
REMARK VINA RESULT:      -5.1      1.681      2.146
REMARK  4 active torsions:
REMARK  status: ('A' for Active; 'I' for Inactive)
REMARK    1  A    between atoms: C14_6  and  N2_7 
REMARK    2  A    between atoms: C9_8  and  C8_9 
REMARK       I    between atoms: C8_9  and  N1_11 
REMARK    3  A    between atoms: C4_13  and  C5_14 
REMARK    4  A    between atoms: C2_17  and  C1_18 
ROOT
ATOM      1  C8  SX3 d         -24.597   8.665 -16.621  0.00  0.00     0.256 C 
ATOM      2  O1  SX3 d         -25.369   7.959 -17.270  0.00  0.00    -0.267 OA
ATOM      3  N1  SX3 d         -23.212   8.503 -16.781  0.00  0.00    -0.347 N 
ATOM      4  C6  SX3 d         -22.296   9.197 -15.867  0.00  0.00     0.001 C 
ATOM      5  C4  SX3 d         -21.358   8.258 -15.121  0.00  0.00    -0.042 C 
ATOM      6  C3  SX3 d         -20.614   7.362 -16.100  0.00  0.00    -0.056 C 
ATOM      7  C7  SX3 d         -22.608   7.452 -17.625  0.00  0.00     0.001 C 
ATOM      8  C2  SX3 d         -21.590   6.558 -16.948  0.00  0.00    -0.042 C 
ATOM      9  H6  SX3 d         -22.893   9.752 -15.129  0.00  0.00     0.065 H 
ATOM     10  H7  SX3 d         -21.688   9.904 -16.453  0.00  0.00     0.065 H 
ATOM     11  H8  SX3 d         -21.951   7.621 -14.449  0.00  0.00     0.042 H 
ATOM     12  H12 SX3 d         -19.970   6.669 -15.537  0.00  0.00     0.034 H 
ATOM     13  H13 SX3 d         -19.992   7.986 -16.759  0.00  0.00     0.034 H 
ATOM     14  H14 SX3 d         -22.111   7.945 -18.473  0.00  0.00     0.065 H 
ATOM     15  H15 SX3 d         -23.422   6.813 -17.998  0.00  0.00     0.065 H 
ATOM     16  H16 SX3 d         -22.126   5.856 -16.292  0.00  0.00     0.042 H 
ENDROOT
BRANCH   1  17
ATOM     17  C9  SX3 d         -25.259   9.666 -15.747  0.00  0.00     0.059 A 
ATOM     18  C10 SX3 d         -25.972   9.155 -14.654  0.00  0.00    -0.049 A 
ATOM     19  C11 SX3 d         -26.658  10.027 -13.802  0.00  0.00     0.012 A 
ATOM     20  H1  SX3 d         -25.992   8.087 -14.470  0.00  0.00     0.087 H 
ATOM     21 BR1  SX3 d         -27.587   9.277 -12.334  0.00  0.00    -0.051 Br
ATOM     22  C12 SX3 d         -26.652  11.411 -14.014  0.00  0.00    -0.064 A 
ATOM     23  C13 SX3 d         -25.927  11.917 -15.110  0.00  0.00    -0.055 A 
ATOM     24  H2  SX3 d         -27.192  12.076 -13.350  0.00  0.00     0.085 H 
ATOM     25  C14 SX3 d         -25.234  11.065 -15.997  0.00  0.00     0.041 A 
ATOM     26  H3  SX3 d         -25.901  12.988 -15.277  0.00  0.00     0.087 H 
BRANCH  25  27
ATOM     27  N2  SX3 d         -24.548  11.634 -17.083  0.00  0.00    -0.398 N 
ATOM     28  H4  SX3 d         -23.895  11.061 -17.637  0.00  0.00     0.156 HD
ATOM     29  H5  SX3 d         -24.699  12.624 -17.325  0.00  0.00     0.156 HD
ENDBRANCH  25  27
ENDBRANCH   1  17
BRANCH   5  30
ATOM     30  C5  SX3 d         -20.401   9.083 -14.286  0.00  0.00    -0.071 C 
ATOM     31  H9  SX3 d         -20.397   8.706 -13.253  0.00  0.00     0.028 H 
ATOM     32  H10 SX3 d         -20.725  10.135 -14.291  0.00  0.00     0.028 H 
ATOM     33  H11 SX3 d         -19.388   9.009 -14.708  0.00  0.00     0.028 H 
ENDBRANCH   5  30
BRANCH   8  34
ATOM     34  C1  SX3 d         -20.813   5.759 -17.992  0.00  0.00    -0.071 C 
ATOM     35  H17 SX3 d         -21.510   5.362 -18.745  0.00  0.00     0.028 H 
ATOM     36  H18 SX3 d         -20.289   4.925 -17.502  0.00  0.00     0.028 H 
ATOM     37  H19 SX3 d         -20.079   6.415 -18.484  0.00  0.00     0.028 H 
ENDBRANCH   8  34
TORSDOF 4
ENDMDL
MODEL 8
REMARK VINA RESULT:      -5.0      2.743      6.038
REMARK  4 active torsions:
REMARK  status: ('A' for Active; 'I' for Inactive)
REMARK    1  A    between atoms: C14_6  and  N2_7 
REMARK    2  A    between atoms: C9_8  and  C8_9 
REMARK       I    between atoms: C8_9  and  N1_11 
REMARK    3  A    between atoms: C4_13  and  C5_14 
REMARK    4  A    between atoms: C2_17  and  C1_18 
ROOT
ATOM      1  C8  SX3 d         -25.588   9.438 -16.868  0.00  0.00     0.256 C 
ATOM      2  O1  SX3 d         -25.376   9.830 -18.015  0.00  0.00    -0.267 OA
ATOM      3  N1  SX3 d         -26.724   9.894 -16.179  0.00  0.00    -0.347 N 
ATOM      4  C6  SX3 d         -26.871   9.591 -14.751  0.00  0.00     0.001 C 
ATOM      5  C4  SX3 d         -27.018  10.832 -13.880  0.00  0.00    -0.042 C 
ATOM      6  C3  SX3 d         -28.150  11.710 -14.394  0.00  0.00    -0.056 C 
ATOM      7  C7  SX3 d         -27.649  10.909 -16.723  0.00  0.00     0.001 C 
ATOM      8  C2  SX3 d         -27.907  12.115 -15.842  0.00  0.00    -0.042 C 
ATOM      9  H6  SX3 d         -25.980   9.036 -14.419  0.00  0.00     0.065 H 
ATOM     10  H7  SX3 d         -27.764   8.963 -14.617  0.00  0.00     0.065 H 
ATOM     11  H8  SX3 d         -26.084  11.410 -13.922  0.00  0.00     0.042 H 
ATOM     12  H12 SX3 d         -28.215  12.615 -13.772  0.00  0.00     0.034 H 
ATOM     13  H13 SX3 d         -29.096  11.152 -14.330  0.00  0.00     0.034 H 
ATOM     14  H14 SX3 d         -28.616  10.418 -16.910  0.00  0.00     0.065 H 
ATOM     15  H15 SX3 d         -27.232  11.271 -17.674  0.00  0.00     0.065 H 
ATOM     16  H16 SX3 d         -27.021  12.766 -15.878  0.00  0.00     0.042 H 
ENDROOT
BRANCH   1  17
ATOM     17  C9  SX3 d         -24.595   8.463 -16.353  0.00  0.00     0.059 A 
ATOM     18  C10 SX3 d         -23.373   8.996 -15.920  0.00  0.00    -0.049 A 
ATOM     19  C11 SX3 d         -22.367   8.142 -15.456  0.00  0.00     0.012 A 
ATOM     20  H1  SX3 d         -23.208  10.067 -15.946  0.00  0.00     0.087 H 
ATOM     21 BR1  SX3 d         -20.746   8.925 -14.872  0.00  0.00    -0.051 Br
ATOM     22  C12 SX3 d         -22.549   6.755 -15.411  0.00  0.00    -0.064 A 
ATOM     23  C13 SX3 d         -23.782   6.227 -15.839  0.00  0.00    -0.055 A 
ATOM     24  H2  SX3 d         -21.759   6.103 -15.056  0.00  0.00     0.085 H 
ATOM     25  C14 SX3 d         -24.815   7.059 -16.325  0.00  0.00     0.041 A 
ATOM     26  H3  SX3 d         -23.943   5.156 -15.795  0.00  0.00     0.087 H 
BRANCH  25  27
ATOM     27  N2  SX3 d         -26.012   6.466 -16.757  0.00  0.00    -0.398 N 
ATOM     28  H4  SX3 d         -26.280   5.534 -16.409  0.00  0.00     0.156 HD
ATOM     29  H5  SX3 d         -26.622   6.962 -17.422  0.00  0.00     0.156 HD
ENDBRANCH  25  27
ENDBRANCH   1  17
BRANCH   5  30
ATOM     30  C5  SX3 d         -27.257  10.399 -12.449  0.00  0.00    -0.071 C 
ATOM     31  H9  SX3 d         -26.309  10.438 -11.892  0.00  0.00     0.028 H 
ATOM     32  H10 SX3 d         -27.647   9.371 -12.437  0.00  0.00     0.028 H 
ATOM     33  H11 SX3 d         -27.987  11.075 -11.978  0.00  0.00     0.028 H 
ENDBRANCH   5  30
BRANCH   8  34
ATOM     34  C1  SX3 d         -29.113  12.896 -16.357  0.00  0.00    -0.071 C 
ATOM     35  H17 SX3 d         -29.794  13.114 -15.520  0.00  0.00     0.028 H 
ATOM     36  H18 SX3 d         -29.642  12.297 -17.114  0.00  0.00     0.028 H 
ATOM     37  H19 SX3 d         -28.774  13.840 -16.808  0.00  0.00     0.028 H 
ENDBRANCH   8  34
TORSDOF 4
ENDMDL
MODEL 9
REMARK VINA RESULT:      -4.6      3.079      6.021
REMARK  4 active torsions:
REMARK  status: ('A' for Active; 'I' for Inactive)
REMARK    1  A    between atoms: C14_6  and  N2_7 
REMARK    2  A    between atoms: C9_8  and  C8_9 
REMARK       I    between atoms: C8_9  and  N1_11 
REMARK    3  A    between atoms: C4_13  and  C5_14 
REMARK    4  A    between atoms: C2_17  and  C1_18 
ROOT
ATOM      1  C8  SX3 d         -25.617   9.412 -17.005  0.00  0.00     0.256 C 
ATOM      2  O1  SX3 d         -25.094   9.363 -18.118  0.00  0.00    -0.267 OA
ATOM      3  N1  SX3 d         -26.678  10.304 -16.777  0.00  0.00    -0.347 N 
ATOM      4  C6  SX3 d         -27.165  10.509 -15.408  0.00  0.00     0.001 C 
ATOM      5  C4  SX3 d         -27.103  11.961 -14.953  0.00  0.00    -0.042 C 
ATOM      6  C3  SX3 d         -27.817  12.861 -15.951  0.00  0.00    -0.056 C 
ATOM      7  C7  SX3 d         -27.152  11.275 -17.784  0.00  0.00     0.001 C 
ATOM      8  C2  SX3 d         -27.205  12.723 -17.339  0.00  0.00    -0.042 C 
ATOM      9  H6  SX3 d         -26.551   9.903 -14.725  0.00  0.00     0.065 H 
ATOM     10  H7  SX3 d         -28.212  10.172 -15.356  0.00  0.00     0.065 H 
ATOM     11  H8  SX3 d         -26.050  12.272 -14.897  0.00  0.00     0.042 H 
ATOM     12  H12 SX3 d         -27.728  13.907 -15.621  0.00  0.00     0.034 H 
ATOM     13  H13 SX3 d         -28.879  12.579 -15.996  0.00  0.00     0.034 H 
ATOM     14  H14 SX3 d         -28.168  10.979 -18.085  0.00  0.00     0.065 H 
ATOM     15  H15 SX3 d         -26.481  11.215 -18.653  0.00  0.00     0.065 H 
ATOM     16  H16 SX3 d         -26.178  13.114 -17.308  0.00  0.00     0.042 H 
ENDROOT
BRANCH   1  17
ATOM     17  C9  SX3 d         -25.062   8.454 -16.017  0.00  0.00     0.059 A 
ATOM     18  C10 SX3 d         -25.993   7.648 -15.348  0.00  0.00    -0.049 A 
ATOM     19  C11 SX3 d         -25.557   6.745 -14.373  0.00  0.00     0.012 A 
ATOM     20  H1  SX3 d         -27.048   7.725 -15.585  0.00  0.00     0.087 H 
ATOM     21 BR1  SX3 d         -26.862   5.674 -13.517  0.00  0.00    -0.051 Br
ATOM     22  C12 SX3 d         -24.202   6.622 -14.043  0.00  0.00    -0.064 A 
ATOM     23  C13 SX3 d         -23.272   7.429 -14.726  0.00  0.00    -0.055 A 
ATOM     24  H2  SX3 d         -23.878   5.923 -13.281  0.00  0.00     0.085 H 
ATOM     25  C14 SX3 d         -23.678   8.360 -15.707  0.00  0.00     0.041 A 
ATOM     26  H3  SX3 d         -22.218   7.334 -14.492  0.00  0.00     0.087 H 
BRANCH  25  27
ATOM     27  N2  SX3 d         -22.700   9.150 -16.334  0.00  0.00    -0.398 N 
ATOM     28  H4  SX3 d         -22.980   9.875 -17.010  0.00  0.00     0.156 HD
ATOM     29  H5  SX3 d         -21.704   9.004 -16.117  0.00  0.00     0.156 HD
ENDBRANCH  25  27
ENDBRANCH   1  17
BRANCH   5  30
ATOM     30  C5  SX3 d         -27.715  12.068 -13.573  0.00  0.00    -0.071 C 
ATOM     31  H9  SX3 d         -27.489  13.057 -13.147  0.00  0.00     0.028 H 
ATOM     32  H10 SX3 d         -27.296  11.285 -12.924  0.00  0.00     0.028 H 
ATOM     33  H11 SX3 d         -28.806  11.940 -13.644  0.00  0.00     0.028 H 
ENDBRANCH   5  30
BRANCH   8  34
ATOM     34  C1  SX3 d         -28.017  13.550 -18.334  0.00  0.00    -0.071 C 
ATOM     35  H17 SX3 d         -27.424  14.418 -18.660  0.00  0.00     0.028 H 
ATOM     36  H18 SX3 d         -28.942  13.900 -17.851  0.00  0.00     0.028 H 
ATOM     37  H19 SX3 d         -28.270  12.931 -19.206  0.00  0.00     0.028 H 
ENDBRANCH   8  34
TORSDOF 4
ENDMDL
MODEL 10
REMARK VINA RESULT:      -4.5      3.143      6.365
REMARK  4 active torsions:
REMARK  status: ('A' for Active; 'I' for Inactive)
REMARK    1  A    between atoms: C14_6  and  N2_7 
REMARK    2  A    between atoms: C9_8  and  C8_9 
REMARK       I    between atoms: C8_9  and  N1_11 
REMARK    3  A    between atoms: C4_13  and  C5_14 
REMARK    4  A    between atoms: C2_17  and  C1_18 
ROOT
ATOM      1  C8  SX3 d         -25.670   9.853 -13.927  0.00  0.00     0.256 C 
ATOM      2  O1  SX3 d         -25.803   9.961 -12.708  0.00  0.00    -0.267 OA
ATOM      3  N1  SX3 d         -26.147  10.870 -14.769  0.00  0.00    -0.347 N 
ATOM      4  C6  SX3 d         -26.173  10.652 -16.220  0.00  0.00     0.001 C 
ATOM      5  C4  SX3 d         -27.559  10.806 -16.832  0.00  0.00    -0.042 C 
ATOM      6  C3  SX3 d         -28.162  12.149 -16.448  0.00  0.00    -0.056 C 
ATOM      7  C7  SX3 d         -26.899  12.044 -14.279  0.00  0.00     0.001 C 
ATOM      8  C2  SX3 d         -28.241  12.295 -14.934  0.00  0.00    -0.042 C 
ATOM      9  H6  SX3 d         -25.812   9.633 -16.426  0.00  0.00     0.065 H 
ATOM     10  H7  SX3 d         -25.500  11.382 -16.694  0.00  0.00     0.065 H 
ATOM     11  H8  SX3 d         -28.210  10.010 -16.444  0.00  0.00     0.042 H 
ATOM     12  H12 SX3 d         -29.176  12.223 -16.870  0.00  0.00     0.034 H 
ATOM     13  H13 SX3 d         -27.535  12.956 -16.856  0.00  0.00     0.034 H 
ATOM     14  H14 SX3 d         -26.274  12.935 -14.439  0.00  0.00     0.065 H 
ATOM     15  H15 SX3 d         -27.071  11.907 -13.201  0.00  0.00     0.065 H 
ATOM     16  H16 SX3 d         -28.959  11.556 -14.549  0.00  0.00     0.042 H 
ENDROOT
BRANCH   1  17
ATOM     17  C9  SX3 d         -24.958   8.627 -14.366  0.00  0.00     0.059 A 
ATOM     18  C10 SX3 d         -23.621   8.794 -14.753  0.00  0.00    -0.049 A 
ATOM     19  C11 SX3 d         -22.889   7.696 -15.216  0.00  0.00     0.012 A 
ATOM     20  H1  SX3 d         -23.157   9.771 -14.693  0.00  0.00     0.087 H 
ATOM     21 BR1  SX3 d         -21.084   7.984 -15.708  0.00  0.00    -0.051 Br
ATOM     22  C12 SX3 d         -23.460   6.421 -15.305  0.00  0.00    -0.064 A 
ATOM     23  C13 SX3 d         -24.801   6.259 -14.907  0.00  0.00    -0.055 A 
ATOM     24  H2  SX3 d         -22.884   5.579 -15.672  0.00  0.00     0.085 H 
ATOM     25  C14 SX3 d         -25.573   7.348 -14.446  0.00  0.00     0.041 A 
ATOM     26  H3  SX3 d         -25.251   5.275 -14.956  0.00  0.00     0.087 H 
BRANCH  25  27
ATOM     27  N2  SX3 d         -26.911   7.121 -14.085  0.00  0.00    -0.398 N 
ATOM     28  H4  SX3 d         -27.156   6.315 -13.492  0.00  0.00     0.156 HD
ATOM     29  H5  SX3 d         -27.649   7.761 -14.413  0.00  0.00     0.156 HD
ENDBRANCH  25  27
ENDBRANCH   1  17
BRANCH   5  30
ATOM     30  C5  SX3 d         -27.450  10.655 -18.334  0.00  0.00    -0.071 C 
ATOM     31  H9  SX3 d         -26.799   9.800 -18.570  0.00  0.00     0.028 H 
ATOM     32  H10 SX3 d         -27.022  11.572 -18.764  0.00  0.00     0.028 H 
ATOM     33  H11 SX3 d         -28.451  10.483 -18.759  0.00  0.00     0.028 H 
ENDBRANCH   5  30
BRANCH   8  34
ATOM     34  C1  SX3 d         -28.743  13.695 -14.587  0.00  0.00    -0.071 C 
ATOM     35  H17 SX3 d         -28.234  14.053 -13.680  0.00  0.00     0.028 H 
ATOM     36  H18 SX3 d         -29.828  13.663 -14.409  0.00  0.00     0.028 H 
ATOM     37  H19 SX3 d         -28.528  14.379 -15.421  0.00  0.00     0.028 H 
ENDBRANCH   8  34
TORSDOF 4
ENDMDL
