MODEL 1
REMARK VINA RESULT:      -4.8      0.000      0.000
REMARK  6 active torsions:
REMARK  status: ('A' for Active; 'I' for Inactive)
REMARK    1  A    between atoms: N_1  and  CA_2 
REMARK    2  A    between atoms: CA_2  and  C_3 
REMARK    3  A    between atoms: CA_2  and  CB_5 
REMARK    4  A    between atoms: CB_5  and  CG_6 
REMARK    5  A    between atoms: CG_6  and  CD1_7 
REMARK    6  A    between atoms: CG_6  and  CD2_8 
ROOT
ATOM      1  CB  LEU d          33.568  -3.342  37.962  0.00  0.00    -0.026 C 
ATOM      2  H5  LEU d          33.370  -3.972  38.842  0.00  0.00     0.037 H 
ATOM      3  H6  LEU d          34.088  -3.936  37.196  0.00  0.00     0.037 H 
ENDROOT
BRANCH   1   4
ATOM      4  CA  LEU d          34.448  -2.139  38.373  0.00  0.00     0.182 C 
ATOM      5  H4  LEU d          33.858  -1.219  38.247  0.00  0.00     0.101 H 
BRANCH   4   6
ATOM      6  N   LEU d          35.666  -2.041  37.514  0.00  0.00    -0.065 N 
ATOM      7  H1  LEU d          36.489  -2.184  38.080  0.00  0.00     0.275 HD
ATOM      8  H2  LEU d          35.705  -1.129  37.089  0.00  0.00     0.275 HD
ATOM      9  H3  LEU d          35.627  -2.746  36.794  0.00  0.00     0.275 HD
ENDBRANCH   4   6
BRANCH   4  10
ATOM     10  C   LEU d          34.859  -2.261  39.838  0.00  0.00     0.204 C 
ATOM     11  O   LEU d          35.793  -1.570  40.249  0.00  0.00    -0.646 OA
ATOM     12  OXT LEU d          34.098  -3.063  40.471  0.00  0.00    -0.646 OA
ENDBRANCH   4  10
ENDBRANCH   1   4
BRANCH   1  13
ATOM     13  CG  LEU d          32.254  -2.820  37.400  0.00  0.00    -0.059 C 
ATOM     14  H7  LEU d          31.541  -3.658  37.422  0.00  0.00     0.038 H 
BRANCH  13  15
ATOM     15  CD1 LEU d          31.629  -1.708  38.204  0.00  0.00    -0.073 C 
ATOM     16  H8  LEU d          32.419  -1.135  38.713  0.00  0.00     0.028 H 
ATOM     17  H9  LEU d          30.947  -2.136  38.953  0.00  0.00     0.028 H 
ATOM     18  H10 LEU d          31.067  -1.042  37.533  0.00  0.00     0.028 H 
ENDBRANCH  13  15
BRANCH  13  19
ATOM     19  CD2 LEU d          32.456  -2.431  35.941  0.00  0.00    -0.073 C 
ATOM     20  H11 LEU d          31.625  -2.825  35.338  0.00  0.00     0.028 H 
ATOM     21  H12 LEU d          33.404  -2.851  35.577  0.00  0.00     0.028 H 
ATOM     22  H13 LEU d          32.483  -1.335  35.855  0.00  0.00     0.028 H 
ENDBRANCH  13  19
ENDBRANCH   1  13
TORSDOF 6
ENDMDL
MODEL 2
REMARK VINA RESULT:      -4.8      0.854      1.170
REMARK  6 active torsions:
REMARK  status: ('A' for Active; 'I' for Inactive)
REMARK    1  A    between atoms: N_1  and  CA_2 
REMARK    2  A    between atoms: CA_2  and  C_3 
REMARK    3  A    between atoms: CA_2  and  CB_5 
REMARK    4  A    between atoms: CB_5  and  CG_6 
REMARK    5  A    between atoms: CG_6  and  CD1_7 
REMARK    6  A    between atoms: CG_6  and  CD2_8 
ROOT
ATOM      1  CB  LEU d          33.751  -2.787  37.774  0.00  0.00    -0.026 C 
ATOM      2  H5  LEU d          33.420  -3.523  38.521  0.00  0.00     0.037 H 
ATOM      3  H6  LEU d          34.186  -3.311  36.911  0.00  0.00     0.037 H 
ENDROOT
BRANCH   1   4
ATOM      4  CA  LEU d          34.810  -1.851  38.401  0.00  0.00     0.182 C 
ATOM      5  H4  LEU d          34.360  -0.856  38.530  0.00  0.00     0.101 H 
BRANCH   4   6
ATOM      6  N   LEU d          36.006  -1.718  37.517  0.00  0.00    -0.065 N 
ATOM      7  H1  LEU d          36.291  -0.751  37.480  0.00  0.00     0.275 HD
ATOM      8  H2  LEU d          35.776  -2.037  36.589  0.00  0.00     0.275 HD
ATOM      9  H3  LEU d          36.760  -2.277  37.886  0.00  0.00     0.275 HD
ENDBRANCH   4   6
BRANCH   4  10
ATOM     10  C   LEU d          35.235  -2.377  39.770  0.00  0.00     0.204 C 
ATOM     11  O   LEU d          36.407  -2.223  40.123  0.00  0.00    -0.646 OA
ATOM     12  OXT LEU d          34.251  -2.876  40.405  0.00  0.00    -0.646 OA
ENDBRANCH   4  10
ENDBRANCH   1   4
BRANCH   1  13
ATOM     13  CG  LEU d          32.564  -1.951  37.319  0.00  0.00    -0.059 C 
ATOM     14  H7  LEU d          32.734  -1.702  36.261  0.00  0.00     0.038 H 
BRANCH  13  15
ATOM     15  CD1 LEU d          31.238  -2.666  37.379  0.00  0.00    -0.073 C 
ATOM     16  H8  LEU d          30.763  -2.641  36.388  0.00  0.00     0.028 H 
ATOM     17  H9  LEU d          30.585  -2.167  38.111  0.00  0.00     0.028 H 
ATOM     18  H10 LEU d          31.398  -3.710  37.684  0.00  0.00     0.028 H 
ENDBRANCH  13  15
BRANCH  13  19
ATOM     19  CD2 LEU d          32.548  -0.643  38.098  0.00  0.00    -0.073 C 
ATOM     20  H11 LEU d          32.754   0.194  37.415  0.00  0.00     0.028 H 
ATOM     21  H12 LEU d          33.317  -0.673  38.883  0.00  0.00     0.028 H 
ATOM     22  H13 LEU d          31.559  -0.503  38.560  0.00  0.00     0.028 H 
ENDBRANCH  13  19
ENDBRANCH   1  13
TORSDOF 6
ENDMDL
MODEL 3
REMARK VINA RESULT:      -4.5      1.982      2.257
REMARK  6 active torsions:
REMARK  status: ('A' for Active; 'I' for Inactive)
REMARK    1  A    between atoms: N_1  and  CA_2 
REMARK    2  A    between atoms: CA_2  and  C_3 
REMARK    3  A    between atoms: CA_2  and  CB_5 
REMARK    4  A    between atoms: CB_5  and  CG_6 
REMARK    5  A    between atoms: CG_6  and  CD1_7 
REMARK    6  A    between atoms: CG_6  and  CD2_8 
ROOT
ATOM      1  CB  LEU d          32.323  -1.667  39.442  0.00  0.00    -0.026 C 
ATOM      2  H5  LEU d          32.898  -0.739  39.577  0.00  0.00     0.037 H 
ATOM      3  H6  LEU d          31.541  -1.728  40.214  0.00  0.00     0.037 H 
ENDROOT
BRANCH   1   4
ATOM      4  CA  LEU d          33.267  -2.885  39.561  0.00  0.00     0.182 C 
ATOM      5  H4  LEU d          32.970  -3.628  38.805  0.00  0.00     0.101 H 
BRANCH   4   6
ATOM      6  N   LEU d          33.167  -3.517  40.910  0.00  0.00    -0.065 N 
ATOM      7  H1  LEU d          33.826  -4.278  40.974  0.00  0.00     0.275 HD
ATOM      8  H2  LEU d          32.233  -3.869  41.049  0.00  0.00     0.275 HD
ATOM      9  H3  LEU d          33.376  -2.832  41.618  0.00  0.00     0.275 HD
ENDBRANCH   4   6
BRANCH   4  10
ATOM     10  C   LEU d          34.710  -2.464  39.293  0.00  0.00     0.204 C 
ATOM     11  O   LEU d          35.334  -1.894  40.191  0.00  0.00    -0.646 OA
ATOM     12  OXT LEU d          35.097  -2.833  38.138  0.00  0.00    -0.646 OA
ENDBRANCH   4  10
ENDBRANCH   1   4
BRANCH   1  13
ATOM     13  CG  LEU d          31.681  -1.675  38.063  0.00  0.00    -0.059 C 
ATOM     14  H7  LEU d          30.665  -1.270  38.179  0.00  0.00     0.038 H 
BRANCH  13  15
ATOM     15  CD1 LEU d          32.374  -0.801  37.047  0.00  0.00    -0.073 C 
ATOM     16  H8  LEU d          33.011  -1.424  36.402  0.00  0.00     0.028 H 
ATOM     17  H9  LEU d          32.995  -0.057  37.566  0.00  0.00     0.028 H 
ATOM     18  H10 LEU d          31.621  -0.287  36.432  0.00  0.00     0.028 H 
ENDBRANCH  13  15
BRANCH  13  19
ATOM     19  CD2 LEU d          31.546  -3.115  37.584  0.00  0.00    -0.073 C 
ATOM     20  H11 LEU d          31.801  -3.800  38.406  0.00  0.00     0.028 H 
ATOM     21  H12 LEU d          32.228  -3.286  36.739  0.00  0.00     0.028 H 
ATOM     22  H13 LEU d          30.510  -3.298  37.263  0.00  0.00     0.028 H 
ENDBRANCH  13  19
ENDBRANCH   1  13
TORSDOF 6
ENDMDL
MODEL 4
REMARK VINA RESULT:      -3.9      1.818      2.254
REMARK  6 active torsions:
REMARK  status: ('A' for Active; 'I' for Inactive)
REMARK    1  A    between atoms: N_1  and  CA_2 
REMARK    2  A    between atoms: CA_2  and  C_3 
REMARK    3  A    between atoms: CA_2  and  CB_5 
REMARK    4  A    between atoms: CB_5  and  CG_6 
REMARK    5  A    between atoms: CG_6  and  CD1_7 
REMARK    6  A    between atoms: CG_6  and  CD2_8 
ROOT
ATOM      1  CB  LEU d          33.051  -3.353  38.129  0.00  0.00    -0.026 C 
ATOM      2  H5  LEU d          33.710  -3.969  38.760  0.00  0.00     0.037 H 
ATOM      3  H6  LEU d          32.537  -3.996  37.399  0.00  0.00     0.037 H 
ENDROOT
BRANCH   1   4
ATOM      4  CA  LEU d          33.890  -2.291  37.383  0.00  0.00     0.182 C 
ATOM      5  H4  LEU d          33.443  -1.303  37.570  0.00  0.00     0.101 H 
BRANCH   4   6
ATOM      6  N   LEU d          33.894  -2.539  35.911  0.00  0.00    -0.065 N 
ATOM      7  H1  LEU d          34.039  -3.521  35.736  0.00  0.00     0.275 HD
ATOM      8  H2  LEU d          34.636  -2.008  35.483  0.00  0.00     0.275 HD
ATOM      9  H3  LEU d          33.009  -2.255  35.521  0.00  0.00     0.275 HD
ENDBRANCH   4   6
BRANCH   4  10
ATOM     10  C   LEU d          35.324  -2.286  37.909  0.00  0.00     0.204 C 
ATOM     11  O   LEU d          35.515  -2.027  39.099  0.00  0.00    -0.646 OA
ATOM     12  OXT LEU d          36.154  -2.622  37.004  0.00  0.00    -0.646 OA
ENDBRANCH   4  10
ENDBRANCH   1   4
BRANCH   1  13
ATOM     13  CG  LEU d          32.024  -2.646  39.000  0.00  0.00    -0.059 C 
ATOM     14  H7  LEU d          31.150  -3.311  39.070  0.00  0.00     0.038 H 
BRANCH  13  15
ATOM     15  CD1 LEU d          32.477  -2.388  40.415  0.00  0.00    -0.073 C 
ATOM     16  H8  LEU d          32.573  -3.345  40.949  0.00  0.00     0.028 H 
ATOM     17  H9  LEU d          31.738  -1.755  40.927  0.00  0.00     0.028 H 
ATOM     18  H10 LEU d          33.450  -1.876  40.400  0.00  0.00     0.028 H 
ENDBRANCH  13  15
BRANCH  13  19
ATOM     19  CD2 LEU d          31.571  -1.371  38.301  0.00  0.00    -0.073 C 
ATOM     20  H11 LEU d          32.373  -1.010  37.640  0.00  0.00     0.028 H 
ATOM     21  H12 LEU d          31.341  -0.602  39.053  0.00  0.00     0.028 H 
ATOM     22  H13 LEU d          30.671  -1.580  37.704  0.00  0.00     0.028 H 
ENDBRANCH  13  19
ENDBRANCH   1  13
TORSDOF 6
ENDMDL
MODEL 5
REMARK VINA RESULT:      -3.8      1.730      2.214
REMARK  6 active torsions:
REMARK  status: ('A' for Active; 'I' for Inactive)
REMARK    1  A    between atoms: N_1  and  CA_2 
REMARK    2  A    between atoms: CA_2  and  C_3 
REMARK    3  A    between atoms: CA_2  and  CB_5 
REMARK    4  A    between atoms: CB_5  and  CG_6 
REMARK    5  A    between atoms: CG_6  and  CD1_7 
REMARK    6  A    between atoms: CG_6  and  CD2_8 
ROOT
ATOM      1  CB  LEU d          33.245  -1.112  37.389  0.00  0.00    -0.026 C 
ATOM      2  H5  LEU d          34.136  -1.238  36.756  0.00  0.00     0.037 H 
ATOM      3  H6  LEU d          32.907  -0.067  37.342  0.00  0.00     0.037 H 
ENDROOT
BRANCH   1   4
ATOM      4  CA  LEU d          33.590  -1.482  38.850  0.00  0.00     0.182 C 
ATOM      5  H4  LEU d          32.833  -2.192  39.216  0.00  0.00     0.101 H 
BRANCH   4   6
ATOM      6  N   LEU d          33.574  -0.276  39.732  0.00  0.00    -0.065 N 
ATOM      7  H1  LEU d          33.253   0.521  39.205  0.00  0.00     0.275 HD
ATOM      8  H2  LEU d          34.504  -0.100  40.076  0.00  0.00     0.275 HD
ATOM      9  H3  LEU d          32.953  -0.437  40.509  0.00  0.00     0.275 HD
ENDBRANCH   4   6
BRANCH   4  10
ATOM     10  C   LEU d          34.961  -2.151  38.917  0.00  0.00     0.204 C 
ATOM     11  O   LEU d          35.475  -2.548  37.869  0.00  0.00    -0.646 OA
ATOM     12  OXT LEU d          35.422  -2.153  40.103  0.00  0.00    -0.646 OA
ENDBRANCH   4  10
ENDBRANCH   1   4
BRANCH   1  13
ATOM     13  CG  LEU d          32.135  -2.030  36.899  0.00  0.00    -0.059 C 
ATOM     14  H7  LEU d          31.283  -1.389  36.630  0.00  0.00     0.038 H 
BRANCH  13  15
ATOM     15  CD1 LEU d          32.480  -2.821  35.662  0.00  0.00    -0.073 C 
ATOM     16  H8  LEU d          33.564  -2.766  35.482  0.00  0.00     0.028 H 
ATOM     17  H9  LEU d          31.943  -2.403  34.798  0.00  0.00     0.028 H 
ATOM     18  H10 LEU d          32.184  -3.871  35.804  0.00  0.00     0.028 H 
ENDBRANCH  13  15
BRANCH  13  19
ATOM     19  CD2 LEU d          31.686  -2.926  38.046  0.00  0.00    -0.073 C 
ATOM     20  H11 LEU d          31.152  -2.324  38.795  0.00  0.00     0.028 H 
ATOM     21  H12 LEU d          32.566  -3.395  38.512  0.00  0.00     0.028 H 
ATOM     22  H13 LEU d          31.016  -3.709  37.660  0.00  0.00     0.028 H 
ENDBRANCH  13  19
ENDBRANCH   1  13
TORSDOF 6
ENDMDL
MODEL 6
REMARK VINA RESULT:      -3.7      2.659      3.886
REMARK  6 active torsions:
REMARK  status: ('A' for Active; 'I' for Inactive)
REMARK    1  A    between atoms: N_1  and  CA_2 
REMARK    2  A    between atoms: CA_2  and  C_3 
REMARK    3  A    between atoms: CA_2  and  CB_5 
REMARK    4  A    between atoms: CB_5  and  CG_6 
REMARK    5  A    between atoms: CG_6  and  CD1_7 
REMARK    6  A    between atoms: CG_6  and  CD2_8 
ROOT
ATOM      1  CB  LEU d          34.044  -1.029  39.048  0.00  0.00    -0.026 C 
ATOM      2  H5  LEU d          34.250  -0.366  39.902  0.00  0.00     0.037 H 
ATOM      3  H6  LEU d          34.124  -0.457  38.112  0.00  0.00     0.037 H 
ENDROOT
BRANCH   1   4
ATOM      4  CA  LEU d          32.619  -1.614  39.179  0.00  0.00     0.182 C 
ATOM      5  H4  LEU d          31.945  -0.814  39.520  0.00  0.00     0.101 H 
BRANCH   4   6
ATOM      6  N   LEU d          32.579  -2.724  40.177  0.00  0.00    -0.065 N 
ATOM      7  H1  LEU d          33.306  -2.586  40.862  0.00  0.00     0.275 HD
ATOM      8  H2  LEU d          32.722  -3.604  39.707  0.00  0.00     0.275 HD
ATOM      9  H3  LEU d          31.682  -2.731  40.635  0.00  0.00     0.275 HD
ENDBRANCH   4   6
BRANCH   4  10
ATOM     10  C   LEU d          32.130  -2.121  37.824  0.00  0.00     0.204 C 
ATOM     11  O   LEU d          32.349  -1.435  36.823  0.00  0.00    -0.646 OA
ATOM     12  OXT LEU d          31.586  -3.268  37.923  0.00  0.00    -0.646 OA
ENDBRANCH   4  10
ENDBRANCH   1   4
BRANCH   1  13
ATOM     13  CG  LEU d          35.046  -2.174  39.036  0.00  0.00    -0.059 C 
ATOM     14  H7  LEU d          34.475  -3.101  39.191  0.00  0.00     0.038 H 
BRANCH  13  15
ATOM     15  CD1 LEU d          35.785  -2.342  37.733  0.00  0.00    -0.073 C 
ATOM     16  H8  LEU d          36.609  -1.614  37.682  0.00  0.00     0.028 H 
ATOM     17  H9  LEU d          35.094  -2.172  36.894  0.00  0.00     0.028 H 
ATOM     18  H10 LEU d          36.193  -3.361  37.672  0.00  0.00     0.028 H 
ENDBRANCH  13  15
BRANCH  13  19
ATOM     19  CD2 LEU d          35.994  -2.019  40.218  0.00  0.00    -0.073 C 
ATOM     20  H11 LEU d          36.283  -3.013  40.589  0.00  0.00     0.028 H 
ATOM     21  H12 LEU d          35.491  -1.461  41.021  0.00  0.00     0.028 H 
ATOM     22  H13 LEU d          36.892  -1.471  39.899  0.00  0.00     0.028 H 
ENDBRANCH  13  19
ENDBRANCH   1  13
TORSDOF 6
ENDMDL
MODEL 7
REMARK VINA RESULT:      -3.6      2.380      3.957
REMARK  6 active torsions:
REMARK  status: ('A' for Active; 'I' for Inactive)
REMARK    1  A    between atoms: N_1  and  CA_2 
REMARK    2  A    between atoms: CA_2  and  C_3 
REMARK    3  A    between atoms: CA_2  and  CB_5 
REMARK    4  A    between atoms: CB_5  and  CG_6 
REMARK    5  A    between atoms: CG_6  and  CD1_7 
REMARK    6  A    between atoms: CG_6  and  CD2_8 
ROOT
ATOM      1  CB  LEU d          34.014  -1.643  38.321  0.00  0.00    -0.026 C 
ATOM      2  H5  LEU d          33.431  -1.275  39.178  0.00  0.00     0.037 H 
ATOM      3  H6  LEU d          34.352  -0.790  37.715  0.00  0.00     0.037 H 
ENDROOT
BRANCH   1   4
ATOM      4  CA  LEU d          33.135  -2.578  37.458  0.00  0.00     0.182 C 
ATOM      5  H4  LEU d          33.309  -3.614  37.784  0.00  0.00     0.101 H 
BRANCH   4   6
ATOM      6  N   LEU d          33.490  -2.471  36.012  0.00  0.00    -0.065 N 
ATOM      7  H1  LEU d          33.563  -3.395  35.614  0.00  0.00     0.275 HD
ATOM      8  H2  LEU d          34.372  -1.993  35.916  0.00  0.00     0.275 HD
ATOM      9  H3  LEU d          32.773  -1.953  35.528  0.00  0.00     0.275 HD
ENDBRANCH   4   6
BRANCH   4  10
ATOM     10  C   LEU d          31.658  -2.244  37.654  0.00  0.00     0.204 C 
ATOM     11  O   LEU d          30.826  -2.808  36.940  0.00  0.00    -0.646 OA
ATOM     12  OXT LEU d          31.487  -1.429  38.617  0.00  0.00    -0.646 OA
ENDBRANCH   4  10
ENDBRANCH   1   4
BRANCH   1  13
ATOM     13  CG  LEU d          35.219  -2.425  38.821  0.00  0.00    -0.059 C 
ATOM     14  H7  LEU d          34.909  -3.477  38.901  0.00  0.00     0.038 H 
BRANCH  13  15
ATOM     15  CD1 LEU d          36.407  -2.402  37.892  0.00  0.00    -0.073 C 
ATOM     16  H8  LEU d          36.500  -3.377  37.391  0.00  0.00     0.028 H 
ATOM     17  H9  LEU d          37.321  -2.198  38.469  0.00  0.00     0.028 H 
ATOM     18  H10 LEU d          36.267  -1.614  37.137  0.00  0.00     0.028 H 
ENDBRANCH  13  15
BRANCH  13  19
ATOM     19  CD2 LEU d          35.577  -1.947  40.222  0.00  0.00    -0.073 C 
ATOM     20  H11 LEU d          35.169  -0.939  40.382  0.00  0.00     0.028 H 
ATOM     21  H12 LEU d          36.671  -1.921  40.333  0.00  0.00     0.028 H 
ATOM     22  H13 LEU d          35.151  -2.637  40.965  0.00  0.00     0.028 H 
ENDBRANCH  13  19
ENDBRANCH   1  13
TORSDOF 6
ENDMDL
MODEL 8
REMARK VINA RESULT:      -3.4      2.139      3.224
REMARK  6 active torsions:
REMARK  status: ('A' for Active; 'I' for Inactive)
REMARK    1  A    between atoms: N_1  and  CA_2 
REMARK    2  A    between atoms: CA_2  and  C_3 
REMARK    3  A    between atoms: CA_2  and  CB_5 
REMARK    4  A    between atoms: CB_5  and  CG_6 
REMARK    5  A    between atoms: CG_6  and  CD1_7 
REMARK    6  A    between atoms: CG_6  and  CD2_8 
ROOT
ATOM      1  CB  LEU d          33.822  -3.299  38.101  0.00  0.00    -0.026 C 
ATOM      2  H5  LEU d          34.276  -3.999  37.383  0.00  0.00     0.037 H 
ATOM      3  H6  LEU d          33.471  -3.855  38.982  0.00  0.00     0.037 H 
ENDROOT
BRANCH   1   4
ATOM      4  CA  LEU d          32.631  -2.572  37.435  0.00  0.00     0.182 C 
ATOM      5  H4  LEU d          31.771  -3.258  37.420  0.00  0.00     0.101 H 
BRANCH   4   6
ATOM      6  N   LEU d          32.951  -2.183  36.030  0.00  0.00    -0.065 N 
ATOM      7  H1  LEU d          33.570  -1.387  36.034  0.00  0.00     0.275 HD
ATOM      8  H2  LEU d          32.101  -1.946  35.545  0.00  0.00     0.275 HD
ATOM      9  H3  LEU d          33.400  -2.955  35.562  0.00  0.00     0.275 HD
ENDBRANCH   4   6
BRANCH   4  10
ATOM     10  C   LEU d          32.253  -1.331  38.241  0.00  0.00     0.204 C 
ATOM     11  O   LEU d          32.330  -0.228  37.696  0.00  0.00    -0.646 OA
ATOM     12  OXT LEU d          31.838  -1.639  39.405  0.00  0.00    -0.646 OA
ENDBRANCH   4  10
ENDBRANCH   1   4
BRANCH   1  13
ATOM     13  CG  LEU d          34.853  -2.264  38.527  0.00  0.00    -0.059 C 
ATOM     14  H7  LEU d          34.387  -1.276  38.400  0.00  0.00     0.038 H 
BRANCH  13  15
ATOM     15  CD1 LEU d          35.268  -2.357  39.974  0.00  0.00    -0.073 C 
ATOM     16  H8  LEU d          35.824  -3.292  40.137  0.00  0.00     0.028 H 
ATOM     17  H9  LEU d          34.374  -2.346  40.614  0.00  0.00     0.028 H 
ATOM     18  H10 LEU d          35.910  -1.500  40.227  0.00  0.00     0.028 H 
ENDBRANCH  13  15
BRANCH  13  19
ATOM     19  CD2 LEU d          36.046  -2.330  37.583  0.00  0.00    -0.073 C 
ATOM     20  H11 LEU d          36.568  -3.289  37.717  0.00  0.00     0.028 H 
ATOM     21  H12 LEU d          36.736  -1.503  37.805  0.00  0.00     0.028 H 
ATOM     22  H13 LEU d          35.696  -2.246  36.543  0.00  0.00     0.028 H 
ENDBRANCH  13  19
ENDBRANCH   1  13
TORSDOF 6
ENDMDL
MODEL 9
REMARK VINA RESULT:      -2.2      1.615      1.739
REMARK  6 active torsions:
REMARK  status: ('A' for Active; 'I' for Inactive)
REMARK    1  A    between atoms: N_1  and  CA_2 
REMARK    2  A    between atoms: CA_2  and  C_3 
REMARK    3  A    between atoms: CA_2  and  CB_5 
REMARK    4  A    between atoms: CB_5  and  CG_6 
REMARK    5  A    between atoms: CG_6  and  CD1_7 
REMARK    6  A    between atoms: CG_6  and  CD2_8 
ROOT
ATOM      1  CB  LEU d          32.828  -1.896  38.174  0.00  0.00    -0.026 C 
ATOM      2  H5  LEU d          32.962  -0.850  37.860  0.00  0.00     0.037 H 
ATOM      3  H6  LEU d          32.121  -1.939  39.015  0.00  0.00     0.037 H 
ENDROOT
BRANCH   1   4
ATOM      4  CA  LEU d          34.189  -2.485  38.610  0.00  0.00     0.182 C 
ATOM      5  H4  LEU d          34.655  -2.965  37.736  0.00  0.00     0.101 H 
BRANCH   4   6
ATOM      6  N   LEU d          34.017  -3.513  39.679  0.00  0.00    -0.065 N 
ATOM      7  H1  LEU d          34.911  -3.925  39.896  0.00  0.00     0.275 HD
ATOM      8  H2  LEU d          33.385  -4.229  39.358  0.00  0.00     0.275 HD
ATOM      9  H3  LEU d          33.638  -3.077  40.505  0.00  0.00     0.275 HD
ENDBRANCH   4   6
BRANCH   4  10
ATOM     10  C   LEU d          35.112  -1.373  39.106  0.00  0.00     0.204 C 
ATOM     11  O   LEU d          36.234  -1.270  38.606  0.00  0.00    -0.646 OA
ATOM     12  OXT LEU d          34.535  -0.641  39.973  0.00  0.00    -0.646 OA
ENDBRANCH   4  10
ENDBRANCH   1   4
BRANCH   1  13
ATOM     13  CG  LEU d          32.289  -2.714  37.010  0.00  0.00    -0.059 C 
ATOM     14  H7  LEU d          32.797  -3.689  37.041  0.00  0.00     0.038 H 
BRANCH  13  15
ATOM     15  CD1 LEU d          30.810  -3.002  37.082  0.00  0.00    -0.073 C 
ATOM     16  H8  LEU d          30.616  -4.017  36.705  0.00  0.00     0.028 H 
ATOM     17  H9  LEU d          30.264  -2.272  36.467  0.00  0.00     0.028 H 
ATOM     18  H10 LEU d          30.473  -2.927  38.126  0.00  0.00     0.028 H 
ENDBRANCH  13  15
BRANCH  13  19
ATOM     19  CD2 LEU d          32.679  -2.038  35.702  0.00  0.00    -0.073 C 
ATOM     20  H11 LEU d          31.974  -2.334  34.911  0.00  0.00     0.028 H 
ATOM     21  H12 LEU d          33.697  -2.344  35.420  0.00  0.00     0.028 H 
ATOM     22  H13 LEU d          32.647  -0.946  35.830  0.00  0.00     0.028 H 
ENDBRANCH  13  19
ENDBRANCH   1  13
TORSDOF 6
ENDMDL
