MODEL 1
REMARK VINA RESULT:      -6.5      0.000      0.000
REMARK  6 active torsions:
REMARK  status: ('A' for Active; 'I' for Inactive)
REMARK    1  A    between atoms: P_2  and  O5'_5 
REMARK    2  A    between atoms: O5'_5  and  C5'_6 
REMARK    3  A    between atoms: C5'_6  and  C4'_7 
REMARK    4  A    between atoms: C3'_9  and  O3'_10 
REMARK    5  A    between atoms: C2'_11  and  O2'_12 
REMARK    6  A    between atoms: C1'_13  and  N1_14 
ROOT
ATOM      1  C4' MOL d          40.625  41.020  36.558  0.00  0.00     0.089 C 
ATOM      2  O4' MOL d          39.884  39.834  36.889  0.00  0.00    -0.353 OA
ATOM      3  C3' MOL d          42.082  40.610  36.604  0.00  0.00     0.091 C 
ATOM      4  C2' MOL d          42.012  39.112  36.282  0.00  0.00     0.105 C 
ATOM      5  C1' MOL d          40.667  38.698  36.832  0.00  0.00     0.141 C 
ATOM      6  H3  MOL d          40.474  41.774  37.346  0.00  0.00     0.090 H 
ATOM      7  H4  MOL d          42.674  41.158  35.857  0.00  0.00     0.091 H 
ATOM      8  H6  MOL d          42.044  38.969  35.192  0.00  0.00     0.093 H 
ATOM      9  H8  MOL d          40.853  38.376  37.868  0.00  0.00     0.123 H 
ENDROOT
BRANCH   5  10
ATOM     10  N1  MOL d          39.959  37.572  36.208  0.00  0.00    -0.280 N 
ATOM     11  C2  MOL d          40.215  36.270  36.633  0.00  0.00     0.331 A 
ATOM     12  O2  MOL d          41.012  36.059  37.512  0.00  0.00    -0.246 OA
ATOM     13  N3  MOL d          39.505  35.277  35.977  0.00  0.00    -0.275 N 
ATOM     14  C4  MOL d          38.573  35.452  34.951  0.00  0.00     0.250 A 
ATOM     15  H9  MOL d          39.678  34.336  36.269  0.00  0.00     0.173 HD
ATOM     16  O4  MOL d          38.047  34.463  34.485  0.00  0.00    -0.268 OA
ATOM     17  C5  MOL d          38.369  36.821  34.575  0.00  0.00    -0.002 A 
ATOM     18  C6  MOL d          39.035  37.805  35.185  0.00  0.00    -0.008 A 
ATOM     19  H10 MOL d          37.662  37.060  33.783  0.00  0.00     0.094 H 
ATOM     20  H11 MOL d          38.850  38.832  34.873  0.00  0.00     0.112 H 
ENDBRANCH   5  10
BRANCH   4  21
ATOM     21  O2' MOL d          43.059  38.312  36.875  0.00  0.00    -0.388 OA
ATOM     22  H7  MOL d          43.905  38.663  36.624  0.00  0.00     0.210 HD
ENDBRANCH   4  21
BRANCH   1  23
ATOM     23  C5' MOL d          40.064  41.608  35.287  0.00  0.00     0.059 C 
ATOM     24  H1  MOL d          40.862  42.113  34.722  0.00  0.00     0.079 H 
ATOM     25  H2  MOL d          39.622  40.814  34.667  0.00  0.00     0.079 H 
BRANCH  23  26
ATOM     26  O5' MOL d          39.052  42.558  35.668  0.00  0.00    -0.280 OA
BRANCH  26  27
ATOM     27  P   MOL d          37.497  42.195  35.692  0.00  0.00     0.422 P 
ATOM     28  O3P MOL d          37.070  42.011  37.227  0.00  0.00    -0.617 OA
ATOM     29  O1P MOL d          37.188  40.973  34.837  0.00  0.00    -0.617 OA
ATOM     30  O2P MOL d          36.817  43.393  35.151  0.00  0.00    -0.617 OA
ENDBRANCH  26  27
ENDBRANCH  23  26
ENDBRANCH   1  23
BRANCH   3  31
ATOM     31  O3' MOL d          42.640  40.802  37.899  0.00  0.00    -0.390 OA
ATOM     32  H5  MOL d          43.571  40.611  37.873  0.00  0.00     0.210 HD
ENDBRANCH   3  31
TORSDOF 6
ENDMDL
MODEL 2
REMARK VINA RESULT:      -6.2      2.158      4.197
REMARK  6 active torsions:
REMARK  status: ('A' for Active; 'I' for Inactive)
REMARK    1  A    between atoms: P_2  and  O5'_5 
REMARK    2  A    between atoms: O5'_5  and  C5'_6 
REMARK    3  A    between atoms: C5'_6  and  C4'_7 
REMARK    4  A    between atoms: C3'_9  and  O3'_10 
REMARK    5  A    between atoms: C2'_11  and  O2'_12 
REMARK    6  A    between atoms: C1'_13  and  N1_14 
ROOT
ATOM      1  C4' MOL d          40.915  41.020  34.606  0.00  0.00     0.089 C 
ATOM      2  O4' MOL d          40.154  39.802  34.557  0.00  0.00    -0.353 OA
ATOM      3  C3' MOL d          40.275  41.851  35.699  0.00  0.00     0.091 C 
ATOM      4  C2' MOL d          39.669  40.780  36.613  0.00  0.00     0.105 C 
ATOM      5  C1' MOL d          39.340  39.653  35.663  0.00  0.00     0.141 C 
ATOM      6  H3  MOL d          40.783  41.569  33.661  0.00  0.00     0.090 H 
ATOM      7  H4  MOL d          41.023  42.460  36.227  0.00  0.00     0.091 H 
ATOM      8  H6  MOL d          40.420  40.458  37.349  0.00  0.00     0.093 H 
ATOM      9  H8  MOL d          38.305  39.830  35.333  0.00  0.00     0.123 H 
ENDROOT
BRANCH   5  10
ATOM     10  N1  MOL d          39.344  38.273  36.167  0.00  0.00    -0.280 N 
ATOM     11  C2  MOL d          38.636  37.284  35.487  0.00  0.00     0.331 A 
ATOM     12  O2  MOL d          38.022  37.550  34.485  0.00  0.00    -0.246 OA
ATOM     13  N3  MOL d          38.695  36.017  36.045  0.00  0.00    -0.275 N 
ATOM     14  C4  MOL d          39.383  35.641  37.201  0.00  0.00     0.250 A 
ATOM     15  H9  MOL d          38.190  35.295  35.570  0.00  0.00     0.173 HD
ATOM     16  O4  MOL d          39.319  34.481  37.550  0.00  0.00    -0.268 OA
ATOM     17  C5  MOL d          40.084  36.718  37.838  0.00  0.00    -0.002 A 
ATOM     18  C6  MOL d          40.052  37.953  37.329  0.00  0.00    -0.008 A 
ATOM     19  H10 MOL d          40.650  36.526  38.748  0.00  0.00     0.094 H 
ATOM     20  H11 MOL d          40.599  38.742  37.841  0.00  0.00     0.112 H 
ENDBRANCH   5  10
BRANCH   4  21
ATOM     21  O2' MOL d          38.482  41.189  37.327  0.00  0.00    -0.388 OA
ATOM     22  H7  MOL d          38.670  41.223  38.258  0.00  0.00     0.210 HD
ENDBRANCH   4  21
BRANCH   1  23
ATOM     23  C5' MOL d          42.381  40.678  34.704  0.00  0.00     0.059 C 
ATOM     24  H1  MOL d          42.506  39.596  34.855  0.00  0.00     0.079 H 
ATOM     25  H2  MOL d          42.902  40.983  33.784  0.00  0.00     0.079 H 
BRANCH  23  26
ATOM     26  O5' MOL d          42.911  41.399  35.832  0.00  0.00    -0.280 OA
BRANCH  26  27
ATOM     27  P   MOL d          43.548  40.664  37.100  0.00  0.00     0.422 P 
ATOM     28  O3P MOL d          42.773  41.195  38.400  0.00  0.00    -0.617 OA
ATOM     29  O1P MOL d          45.054  40.873  37.177  0.00  0.00    -0.617 OA
ATOM     30  O2P MOL d          43.230  39.232  36.911  0.00  0.00    -0.617 OA
ENDBRANCH  26  27
ENDBRANCH  23  26
ENDBRANCH   1  23
BRANCH   3  31
ATOM     31  O3' MOL d          39.246  42.689  35.185  0.00  0.00    -0.390 OA
ATOM     32  H5  MOL d          39.115  42.500  34.263  0.00  0.00     0.210 HD
ENDBRANCH   3  31
TORSDOF 6
ENDMDL
MODEL 3
REMARK VINA RESULT:      -5.7      1.943      4.692
REMARK  6 active torsions:
REMARK  status: ('A' for Active; 'I' for Inactive)
REMARK    1  A    between atoms: P_2  and  O5'_5 
REMARK    2  A    between atoms: O5'_5  and  C5'_6 
REMARK    3  A    between atoms: C5'_6  and  C4'_7 
REMARK    4  A    between atoms: C3'_9  and  O3'_10 
REMARK    5  A    between atoms: C2'_11  and  O2'_12 
REMARK    6  A    between atoms: C1'_13  and  N1_14 
ROOT
ATOM      1  C4' MOL d          39.335  38.426  34.492  0.00  0.00     0.089 C 
ATOM      2  O4' MOL d          40.570  39.006  34.944  0.00  0.00    -0.353 OA
ATOM      3  C3' MOL d          39.207  37.116  35.241  0.00  0.00     0.091 C 
ATOM      4  C2' MOL d          40.003  37.391  36.522  0.00  0.00     0.105 C 
ATOM      5  C1' MOL d          41.054  38.381  36.077  0.00  0.00     0.141 C 
ATOM      6  H3  MOL d          39.418  38.182  33.422  0.00  0.00     0.090 H 
ATOM      7  H4  MOL d          38.155  36.882  35.459  0.00  0.00     0.091 H 
ATOM      8  H6  MOL d          39.341  37.844  37.276  0.00  0.00     0.093 H 
ATOM      9  H8  MOL d          41.923  37.780  35.772  0.00  0.00     0.123 H 
ENDROOT
BRANCH   5  10
ATOM     10  N1  MOL d          41.584  39.344  37.052  0.00  0.00    -0.280 N 
ATOM     11  C2  MOL d          42.848  39.899  36.862  0.00  0.00     0.331 A 
ATOM     12  O2  MOL d          43.510  39.599  35.901  0.00  0.00    -0.246 OA
ATOM     13  N3  MOL d          43.262  40.789  37.839  0.00  0.00    -0.275 N 
ATOM     14  C4  MOL d          42.548  41.178  38.976  0.00  0.00     0.250 A 
ATOM     15  H9  MOL d          44.168  41.196  37.719  0.00  0.00     0.173 HD
ATOM     16  O4  MOL d          43.071  41.968  39.734  0.00  0.00    -0.268 OA
ATOM     17  C5  MOL d          41.259  40.561  39.094  0.00  0.00    -0.002 A 
ATOM     18  C6  MOL d          40.825  39.699  38.171  0.00  0.00    -0.008 A 
ATOM     19  H10 MOL d          40.627  40.799  39.948  0.00  0.00     0.094 H 
ATOM     20  H11 MOL d          39.839  39.253  38.296  0.00  0.00     0.112 H 
ENDBRANCH   5  10
BRANCH   4  21
ATOM     21  O2' MOL d          40.632  36.232  37.111  0.00  0.00    -0.388 OA
ATOM     22  H7  MOL d          39.964  35.601  37.355  0.00  0.00     0.210 HD
ENDBRANCH   4  21
BRANCH   1  23
ATOM     23  C5' MOL d          38.238  39.455  34.615  0.00  0.00     0.059 C 
ATOM     24  H1  MOL d          37.745  39.597  33.641  0.00  0.00     0.079 H 
ATOM     25  H2  MOL d          37.495  39.127  35.358  0.00  0.00     0.079 H 
BRANCH  23  26
ATOM     26  O5' MOL d          38.853  40.684  35.041  0.00  0.00    -0.280 OA
BRANCH  26  27
ATOM     27  P   MOL d          38.013  41.909  35.628  0.00  0.00     0.422 P 
ATOM     28  O3P MOL d          36.540  41.826  34.997  0.00  0.00    -0.617 OA
ATOM     29  O1P MOL d          38.699  43.243  35.365  0.00  0.00    -0.617 OA
ATOM     30  O2P MOL d          37.922  41.649  37.081  0.00  0.00    -0.617 OA
ENDBRANCH  26  27
ENDBRANCH  23  26
ENDBRANCH   1  23
BRANCH   3  31
ATOM     31  O3' MOL d          39.802  36.041  34.523  0.00  0.00    -0.390 OA
ATOM     32  H5  MOL d          39.158  35.657  33.939  0.00  0.00     0.210 HD
ENDBRANCH   3  31
TORSDOF 6
ENDMDL
MODEL 4
REMARK VINA RESULT:      -4.6      2.817      5.653
REMARK  6 active torsions:
REMARK  status: ('A' for Active; 'I' for Inactive)
REMARK    1  A    between atoms: P_2  and  O5'_5 
REMARK    2  A    between atoms: O5'_5  and  C5'_6 
REMARK    3  A    between atoms: C5'_6  and  C4'_7 
REMARK    4  A    between atoms: C3'_9  and  O3'_10 
REMARK    5  A    between atoms: C2'_11  and  O2'_12 
REMARK    6  A    between atoms: C1'_13  and  N1_14 
ROOT
ATOM      1  C4' MOL d          41.456  38.258  36.493  0.00  0.00     0.089 C 
ATOM      2  O4' MOL d          40.930  39.112  35.464  0.00  0.00    -0.353 OA
ATOM      3  C3' MOL d          42.283  39.161  37.384  0.00  0.00     0.091 C 
ATOM      4  C2' MOL d          41.608  40.524  37.187  0.00  0.00     0.105 C 
ATOM      5  C1' MOL d          41.074  40.450  35.775  0.00  0.00     0.141 C 
ATOM      6  H3  MOL d          42.144  37.527  36.043  0.00  0.00     0.090 H 
ATOM      7  H4  MOL d          42.241  38.835  38.433  0.00  0.00     0.091 H 
ATOM      8  H6  MOL d          40.783  40.633  37.906  0.00  0.00     0.093 H 
ATOM      9  H8  MOL d          41.871  40.852  35.131  0.00  0.00     0.123 H 
ENDROOT
BRANCH   5  10
ATOM     10  N1  MOL d          39.878  41.228  35.425  0.00  0.00    -0.280 N 
ATOM     11  C2  MOL d          40.014  42.514  34.906  0.00  0.00     0.331 A 
ATOM     12  O2  MOL d          41.106  42.993  34.737  0.00  0.00    -0.246 OA
ATOM     13  N3  MOL d          38.828  43.169  34.615  0.00  0.00    -0.275 N 
ATOM     14  C4  MOL d          37.533  42.674  34.788  0.00  0.00     0.250 A 
ATOM     15  H9  MOL d          38.907  44.094  34.243  0.00  0.00     0.173 HD
ATOM     16  O4  MOL d          36.604  43.393  34.485  0.00  0.00    -0.268 OA
ATOM     17  C5  MOL d          37.483  41.346  35.327  0.00  0.00    -0.002 A 
ATOM     18  C6  MOL d          38.605  40.682  35.618  0.00  0.00    -0.008 A 
ATOM     19  H10 MOL d          36.518  40.873  35.500  0.00  0.00     0.094 H 
ATOM     20  H11 MOL d          38.525  39.675  36.023  0.00  0.00     0.112 H 
ENDBRANCH   5  10
BRANCH   4  21
ATOM     21  O2' MOL d          42.484  41.664  37.327  0.00  0.00    -0.388 OA
ATOM     22  H7  MOL d          42.068  42.430  36.948  0.00  0.00     0.210 HD
ENDBRANCH   4  21
BRANCH   1  23
ATOM     23  C5' MOL d          40.322  37.466  37.098  0.00  0.00     0.059 C 
ATOM     24  H1  MOL d          40.722  36.643  37.708  0.00  0.00     0.079 H 
ATOM     25  H2  MOL d          39.698  38.119  37.726  0.00  0.00     0.079 H 
BRANCH  23  26
ATOM     26  O5' MOL d          39.544  36.939  36.008  0.00  0.00    -0.280 OA
BRANCH  26  27
ATOM     27  P   MOL d          39.287  35.375  35.811  0.00  0.00     0.422 P 
ATOM     28  O3P MOL d          40.492  34.799  34.922  0.00  0.00    -0.617 OA
ATOM     29  O1P MOL d          37.916  35.098  35.208  0.00  0.00    -0.617 OA
ATOM     30  O2P MOL d          39.383  34.798  37.170  0.00  0.00    -0.617 OA
ENDBRANCH  26  27
ENDBRANCH  23  26
ENDBRANCH   1  23
BRANCH   3  31
ATOM     31  O3' MOL d          43.638  39.225  36.952  0.00  0.00    -0.390 OA
ATOM     32  H5  MOL d          43.666  39.222  36.002  0.00  0.00     0.210 HD
ENDBRANCH   3  31
TORSDOF 6
ENDMDL
MODEL 5
REMARK VINA RESULT:      -4.2      2.976      5.501
REMARK  6 active torsions:
REMARK  status: ('A' for Active; 'I' for Inactive)
REMARK    1  A    between atoms: P_2  and  O5'_5 
REMARK    2  A    between atoms: O5'_5  and  C5'_6 
REMARK    3  A    between atoms: C5'_6  and  C4'_7 
REMARK    4  A    between atoms: C3'_9  and  O3'_10 
REMARK    5  A    between atoms: C2'_11  and  O2'_12 
REMARK    6  A    between atoms: C1'_13  and  N1_14 
ROOT
ATOM      1  C4' MOL d          41.976  38.713  36.646  0.00  0.00     0.089 C 
ATOM      2  O4' MOL d          41.322  39.539  35.670  0.00  0.00    -0.353 OA
ATOM      3  C3' MOL d          42.775  39.666  37.510  0.00  0.00     0.091 C 
ATOM      4  C2' MOL d          41.979  40.970  37.385  0.00  0.00     0.105 C 
ATOM      5  C1' MOL d          41.371  40.879  36.004  0.00  0.00     0.141 C 
ATOM      6  H3  MOL d          42.695  38.052  36.140  0.00  0.00     0.090 H 
ATOM      7  H4  MOL d          42.822  39.318  38.552  0.00  0.00     0.091 H 
ATOM      8  H6  MOL d          41.191  40.995  38.152  0.00  0.00     0.093 H 
ATOM      9  H8  MOL d          42.092  41.359  35.326  0.00  0.00     0.123 H 
ENDROOT
BRANCH   5  10
ATOM     10  N1  MOL d          40.095  41.558  35.741  0.00  0.00    -0.280 N 
ATOM     11  C2  MOL d          38.955  41.194  36.454  0.00  0.00     0.331 A 
ATOM     12  O2  MOL d          39.006  40.326  37.288  0.00  0.00    -0.246 OA
ATOM     13  N3  MOL d          37.800  41.886  36.127  0.00  0.00    -0.275 N 
ATOM     14  C4  MOL d          37.670  42.897  35.172  0.00  0.00     0.250 A 
ATOM     15  H9  MOL d          36.971  41.635  36.629  0.00  0.00     0.173 HD
ATOM     16  O4  MOL d          36.574  43.392  35.012  0.00  0.00    -0.268 OA
ATOM     17  C5  MOL d          38.890  43.210  34.485  0.00  0.00    -0.002 A 
ATOM     18  C6  MOL d          40.024  42.565  34.773  0.00  0.00    -0.008 A 
ATOM     19  H10 MOL d          38.891  43.985  33.720  0.00  0.00     0.094 H 
ATOM     20  H11 MOL d          40.929  42.834  34.232  0.00  0.00     0.112 H 
ENDBRANCH   5  10
BRANCH   4  21
ATOM     21  O2' MOL d          42.762  42.178  37.502  0.00  0.00    -0.388 OA
ATOM     22  H7  MOL d          43.592  42.060  37.055  0.00  0.00     0.210 HD
ENDBRANCH   4  21
BRANCH   1  23
ATOM     23  C5' MOL d          40.950  37.816  37.295  0.00  0.00     0.059 C 
ATOM     24  H1  MOL d          41.451  37.057  37.913  0.00  0.00     0.079 H 
ATOM     25  H2  MOL d          40.271  38.412  37.923  0.00  0.00     0.079 H 
BRANCH  23  26
ATOM     26  O5' MOL d          40.211  37.181  36.235  0.00  0.00    -0.280 OA
BRANCH  26  27
ATOM     27  P   MOL d          39.930  35.608  36.205  0.00  0.00     0.422 P 
ATOM     28  O3P MOL d          38.463  35.372  36.806  0.00  0.00    -0.617 OA
ATOM     29  O1P MOL d          41.010  34.827  36.941  0.00  0.00    -0.617 OA
ATOM     30  O2P MOL d          39.918  35.251  34.769  0.00  0.00    -0.617 OA
ENDBRANCH  26  27
ENDBRANCH  23  26
ENDBRANCH   1  23
BRANCH   3  31
ATOM     31  O3' MOL d          44.092  39.853  37.004  0.00  0.00    -0.390 OA
ATOM     32  H5  MOL d          44.256  39.223  36.311  0.00  0.00     0.210 HD
ENDBRANCH   3  31
TORSDOF 6
ENDMDL
MODEL 6
REMARK VINA RESULT:      -4.2      2.526      5.399
REMARK  6 active torsions:
REMARK  status: ('A' for Active; 'I' for Inactive)
REMARK    1  A    between atoms: P_2  and  O5'_5 
REMARK    2  A    between atoms: O5'_5  and  C5'_6 
REMARK    3  A    between atoms: C5'_6  and  C4'_7 
REMARK    4  A    between atoms: C3'_9  and  O3'_10 
REMARK    5  A    between atoms: C2'_11  and  O2'_12 
REMARK    6  A    between atoms: C1'_13  and  N1_14 
ROOT
ATOM      1  C4' MOL d          40.502  37.367  37.501  0.00  0.00     0.089 C 
ATOM      2  O4' MOL d          39.677  38.534  37.645  0.00  0.00    -0.353 OA
ATOM      3  C3' MOL d          39.661  36.370  36.732  0.00  0.00     0.091 C 
ATOM      4  C2' MOL d          38.725  37.281  35.929  0.00  0.00     0.105 C 
ATOM      5  C1' MOL d          38.574  38.497  36.814  0.00  0.00     0.141 C 
ATOM      6  H3  MOL d          40.693  36.933  38.495  0.00  0.00     0.090 H 
ATOM      7  H4  MOL d          40.282  35.746  36.074  0.00  0.00     0.091 H 
ATOM      8  H6  MOL d          39.205  37.554  34.978  0.00  0.00     0.093 H 
ATOM      9  H8  MOL d          37.695  38.301  37.446  0.00  0.00     0.123 H 
ENDROOT
BRANCH   5  10
ATOM     10  N1  MOL d          38.309  39.802  36.192  0.00  0.00    -0.280 N 
ATOM     11  C2  MOL d          38.956  40.150  35.008  0.00  0.00     0.331 A 
ATOM     12  O2  MOL d          39.729  39.388  34.486  0.00  0.00    -0.246 OA
ATOM     13  N3  MOL d          38.647  41.404  34.506  0.00  0.00    -0.275 N 
ATOM     14  C4  MOL d          37.765  42.335  35.060  0.00  0.00     0.250 A 
ATOM     15  H9  MOL d          39.103  41.670  33.656  0.00  0.00     0.173 HD
ATOM     16  O4  MOL d          37.619  43.393  34.485  0.00  0.00    -0.268 OA
ATOM     17  C5  MOL d          37.143  41.897  36.276  0.00  0.00    -0.002 A 
ATOM     18  C6  MOL d          37.416  40.695  36.791  0.00  0.00    -0.008 A 
ATOM     19  H10 MOL d          36.440  42.554  36.786  0.00  0.00     0.094 H 
ATOM     20  H11 MOL d          36.921  40.398  37.714  0.00  0.00     0.112 H 
ENDBRANCH   5  10
BRANCH   4  21
ATOM     21  O2' MOL d          37.428  36.717  35.636  0.00  0.00    -0.388 OA
ATOM     22  H7  MOL d          37.381  35.834  35.984  0.00  0.00     0.210 HD
ENDBRANCH   4  21
BRANCH   1  23
ATOM     23  C5' MOL d          41.844  37.780  36.948  0.00  0.00     0.059 C 
ATOM     24  H1  MOL d          42.648  37.229  37.457  0.00  0.00     0.079 H 
ATOM     25  H2  MOL d          41.885  37.575  35.867  0.00  0.00     0.079 H 
BRANCH  23  26
ATOM     26  O5' MOL d          41.985  39.192  37.187  0.00  0.00    -0.280 OA
BRANCH  26  27
ATOM     27  P   MOL d          42.899  40.133  36.274  0.00  0.00     0.422 P 
ATOM     28  O3P MOL d          44.257  40.410  37.081  0.00  0.00    -0.617 OA
ATOM     29  O1P MOL d          42.173  41.410  35.873  0.00  0.00    -0.617 OA
ATOM     30  O2P MOL d          43.213  39.317  35.081  0.00  0.00    -0.617 OA
ENDBRANCH  26  27
ENDBRANCH  23  26
ENDBRANCH   1  23
BRANCH   3  31
ATOM     31  O3' MOL d          38.899  35.543  37.605  0.00  0.00    -0.390 OA
ATOM     32  H5  MOL d          38.514  34.830  37.108  0.00  0.00     0.210 HD
ENDBRANCH   3  31
TORSDOF 6
ENDMDL
MODEL 7
REMARK VINA RESULT:      -3.7      2.378      3.843
REMARK  6 active torsions:
REMARK  status: ('A' for Active; 'I' for Inactive)
REMARK    1  A    between atoms: P_2  and  O5'_5 
REMARK    2  A    between atoms: O5'_5  and  C5'_6 
REMARK    3  A    between atoms: C5'_6  and  C4'_7 
REMARK    4  A    between atoms: C3'_9  and  O3'_10 
REMARK    5  A    between atoms: C2'_11  and  O2'_12 
REMARK    6  A    between atoms: C1'_13  and  N1_14 
ROOT
ATOM      1  C4' MOL d          40.411  41.049  36.740  0.00  0.00     0.089 C 
ATOM      2  O4' MOL d          39.345  40.122  36.477  0.00  0.00    -0.353 OA
ATOM      3  C3' MOL d          41.024  40.597  38.049  0.00  0.00     0.091 C 
ATOM      4  C2' MOL d          40.714  39.096  38.056  0.00  0.00     0.105 C 
ATOM      5  C1' MOL d          39.420  39.001  37.281  0.00  0.00     0.141 C 
ATOM      6  H3  MOL d          39.988  42.051  36.908  0.00  0.00     0.090 H 
ATOM      7  H4  MOL d          42.107  40.788  38.069  0.00  0.00     0.091 H 
ATOM      8  H6  MOL d          41.516  38.552  37.535  0.00  0.00     0.093 H 
ATOM      9  H8  MOL d          38.616  39.080  38.027  0.00  0.00     0.123 H 
ENDROOT
BRANCH   5  10
ATOM     10  N1  MOL d          39.124  37.770  36.536  0.00  0.00    -0.280 N 
ATOM     11  C2  MOL d          38.611  37.847  35.243  0.00  0.00     0.331 A 
ATOM     12  O2  MOL d          38.410  38.917  34.728  0.00  0.00    -0.246 OA
ATOM     13  N3  MOL d          38.356  36.632  34.628  0.00  0.00    -0.275 N 
ATOM     14  C4  MOL d          38.562  35.360  35.168  0.00  0.00     0.250 A 
ATOM     15  H9  MOL d          37.986  36.669  33.700  0.00  0.00     0.173 HD
ATOM     16  O4  MOL d          38.276  34.399  34.485  0.00  0.00    -0.268 OA
ATOM     17  C5  MOL d          39.092  35.371  36.500  0.00  0.00    -0.002 A 
ATOM     18  C6  MOL d          39.351  36.523  37.126  0.00  0.00    -0.008 A 
ATOM     19  H10 MOL d          39.286  34.427  37.009  0.00  0.00     0.094 H 
ATOM     20  H11 MOL d          39.755  36.488  38.136  0.00  0.00     0.112 H 
ENDBRANCH   5  10
BRANCH   4  21
ATOM     21  O2' MOL d          40.549  38.513  39.367  0.00  0.00    -0.388 OA
ATOM     22  H7  MOL d          40.553  39.202  40.022  0.00  0.00     0.210 HD
ENDBRANCH   4  21
BRANCH   1  23
ATOM     23  C5' MOL d          41.285  41.152  35.514  0.00  0.00     0.059 C 
ATOM     24  H1  MOL d          41.307  40.187  34.986  0.00  0.00     0.079 H 
ATOM     25  H2  MOL d          40.899  41.931  34.840  0.00  0.00     0.079 H 
BRANCH  23  26
ATOM     26  O5' MOL d          42.607  41.499  35.963  0.00  0.00    -0.280 OA
BRANCH  26  27
ATOM     27  P   MOL d          43.816  40.453  35.971  0.00  0.00     0.422 P 
ATOM     28  O3P MOL d          44.318  40.313  37.488  0.00  0.00    -0.617 OA
ATOM     29  O1P MOL d          44.925  40.863  35.011  0.00  0.00    -0.617 OA
ATOM     30  O2P MOL d          43.212  39.170  35.550  0.00  0.00    -0.617 OA
ENDBRANCH  26  27
ENDBRANCH  23  26
ENDBRANCH   1  23
BRANCH   3  31
ATOM     31  O3' MOL d          40.401  41.226  39.164  0.00  0.00    -0.390 OA
ATOM     32  H5  MOL d          39.476  41.012  39.170  0.00  0.00     0.210 HD
ENDBRANCH   3  31
TORSDOF 6
ENDMDL
