MODEL 1
REMARK VINA RESULT:      -8.1      0.000      0.000
REMARK  8 active torsions:
REMARK  status: ('A' for Active; 'I' for Inactive)
REMARK    1  A    between atoms: N1_2  and  C2_4 
REMARK       I    between atoms: C10_18  and  N1_2 
REMARK    2  A    between atoms: N3_8  and  N2_5 
REMARK       I    between atoms: N2_5  and  C10_18 
REMARK       I    between atoms: C12_20  and  N3_8 
REMARK    3  A    between atoms: C16_24  and  N4_11 
REMARK    4  A    between atoms: C13_21  and  C12_20 
REMARK    5  A    between atoms: C18_26  and  C19_27 
REMARK    6  A    between atoms: C19_27  and  C20_28 
REMARK    7  A    between atoms: C19_27  and  C21_29 
REMARK    8  A    between atoms: C19_27  and  C22_30 
ROOT
ATOM      1  O2  AGY d          30.026  -5.612  19.216  0.00  0.00    -0.266 OA
ATOM      2  N3  AGY d          29.224  -3.623  18.543  0.00  0.00    -0.262 N 
ATOM      3  C12 AGY d          29.347  -4.601  19.482  0.00  0.00     0.270 C 
ATOM      4  H3  AGY d          28.689  -2.794  18.703  0.00  0.00     0.190 HD
ENDROOT
BRANCH   3   5
ATOM      5  C13 AGY d          28.686  -4.470  20.779  0.00  0.00     0.036 A 
ATOM      6  C14 AGY d          29.211  -5.152  21.896  0.00  0.00    -0.035 A 
ATOM      7  C16 AGY d          28.608  -5.054  23.192  0.00  0.00     0.111 A 
ATOM      8  H11 AGY d          30.095  -5.767  21.771  0.00  0.00     0.088 H 
ATOM      9  C18 AGY d          27.400  -4.234  23.403  0.00  0.00    -0.018 A 
ATOM     10  C17 AGY d          26.874  -3.532  22.218  0.00  0.00    -0.073 A 
ATOM     11  C15 AGY d          27.519  -3.660  20.933  0.00  0.00    -0.067 A 
ATOM     12  H13 AGY d          25.989  -2.912  22.313  0.00  0.00     0.084 H 
ATOM     13  H12 AGY d          27.113  -3.137  20.075  0.00  0.00     0.085 H 
BRANCH   7  14
ATOM     14  N4  AGY d          29.191  -5.691  24.193  0.00  0.00    -0.115 N 
ATOM     15  O3  AGY d          30.283  -5.203  24.709  0.00  0.00    -0.532 OA
ATOM     16  O4  AGY d          28.647  -6.872  24.682  0.00  0.00    -0.532 OA
ENDBRANCH   7  14
BRANCH   9  17
ATOM     17  C19 AGY d          26.670  -4.058  24.757  0.00  0.00    -0.022 C 
BRANCH  17  18
ATOM     18  C20 AGY d          25.910  -5.321  25.230  0.00  0.00    -0.066 C 
ATOM     19  H14 AGY d          25.265  -5.063  26.083  0.00  0.00     0.028 H 
ATOM     20  H15 AGY d          26.633  -6.090  25.537  0.00  0.00     0.028 H 
ATOM     21  H16 AGY d          25.292  -5.707  24.405  0.00  0.00     0.028 H 
ENDBRANCH  17  18
BRANCH  17  22
ATOM     22  C21 AGY d          27.480  -3.801  26.083  0.00  0.00    -0.066 C 
ATOM     23  H17 AGY d          27.680  -2.724  26.188  0.00  0.00     0.028 H 
ATOM     24  H18 AGY d          28.434  -4.348  26.042  0.00  0.00     0.028 H 
ATOM     25  H19 AGY d          26.894  -4.150  26.945  0.00  0.00     0.028 H 
ENDBRANCH  17  22
BRANCH  17  26
ATOM     26  C22 AGY d          25.754  -2.828  24.608  0.00  0.00    -0.066 C 
ATOM     27  H20 AGY d          24.713  -3.160  24.476  0.00  0.00     0.028 H 
ATOM     28  H21 AGY d          26.066  -2.242  23.730  0.00  0.00     0.028 H 
ATOM     29  H22 AGY d          25.828  -2.204  25.511  0.00  0.00     0.028 H 
ENDBRANCH  17  26
ENDBRANCH   9  17
ENDBRANCH   3   5
BRANCH   2  30
ATOM     30  N2  AGY d          29.915  -3.865  17.308  0.00  0.00    -0.248 N 
ATOM     31  C10 AGY d          31.046  -3.204  16.940  0.00  0.00     0.339 C 
ATOM     32  N1  AGY d          31.600  -2.254  17.751  0.00  0.00    -0.307 N 
ATOM     33  O1  AGY d          31.551  -3.499  15.849  0.00  0.00    -0.245 OA
ATOM     34  H1  AGY d          31.113  -2.101  18.611  0.00  0.00     0.170 HD
ATOM     35  H2  AGY d          29.546  -4.555  16.686  0.00  0.00     0.192 HD
BRANCH  32  36
ATOM     36  C2  AGY d          32.733  -1.465  17.570  0.00  0.00     0.047 A 
ATOM     37  C1  AGY d          34.099  -1.969  17.584  0.00  0.00     0.001 A 
ATOM     38  C3  AGY d          35.245  -1.032  17.379  0.00  0.00    -0.024 A 
ATOM     39  C4  AGY d          34.373  -3.372  17.795  0.00  0.00    -0.070 A 
ATOM     40  C6  AGY d          35.015   0.376  17.166  0.00  0.00    -0.072 A 
ATOM     41  C7  AGY d          36.582  -1.532  17.393  0.00  0.00    -0.072 A 
ATOM     42  C9  AGY d          33.645   0.878  17.154  0.00  0.00    -0.080 A 
ATOM     43  H6  AGY d          35.849   1.052  17.018  0.00  0.00     0.084 H 
ATOM     44  C5  AGY d          32.528  -0.035  17.353  0.00  0.00    -0.056 A 
ATOM     45  H9  AGY d          33.458   1.934  16.994  0.00  0.00     0.083 H 
ATOM     46  H5  AGY d          31.517   0.358  17.341  0.00  0.00     0.086 H 
ATOM     47  C11 AGY d          36.834  -2.944  17.607  0.00  0.00    -0.082 A 
ATOM     48  H7  AGY d          37.413  -0.852  17.244  0.00  0.00     0.084 H 
ATOM     49  C8  AGY d          35.733  -3.859  17.807  0.00  0.00    -0.082 A 
ATOM     50  H10 AGY d          37.853  -3.315  17.617  0.00  0.00     0.083 H 
ATOM     51  H8  AGY d          35.928  -4.913  17.966  0.00  0.00     0.083 H 
ATOM     52  H4  AGY d          33.552  -4.064  17.946  0.00  0.00     0.084 H 
ENDBRANCH  32  36
ENDBRANCH   2  30
TORSDOF 8
ENDMDL
MODEL 2
REMARK VINA RESULT:      -7.5      1.597      2.065
REMARK  8 active torsions:
REMARK  status: ('A' for Active; 'I' for Inactive)
REMARK    1  A    between atoms: N1_2  and  C2_4 
REMARK       I    between atoms: C10_18  and  N1_2 
REMARK    2  A    between atoms: N3_8  and  N2_5 
REMARK       I    between atoms: N2_5  and  C10_18 
REMARK       I    between atoms: C12_20  and  N3_8 
REMARK    3  A    between atoms: C16_24  and  N4_11 
REMARK    4  A    between atoms: C13_21  and  C12_20 
REMARK    5  A    between atoms: C18_26  and  C19_27 
REMARK    6  A    between atoms: C19_27  and  C20_28 
REMARK    7  A    between atoms: C19_27  and  C21_29 
REMARK    8  A    between atoms: C19_27  and  C22_30 
ROOT
ATOM      1  O2  AGY d          29.948  -5.854  19.052  0.00  0.00    -0.266 OA
ATOM      2  N3  AGY d          29.250  -3.726  18.855  0.00  0.00    -0.262 N 
ATOM      3  C12 AGY d          29.424  -4.858  19.590  0.00  0.00     0.270 C 
ATOM      4  H3  AGY d          28.833  -2.901  19.235  0.00  0.00     0.190 HD
ENDROOT
BRANCH   3   5
ATOM      5  C13 AGY d          28.995  -4.908  20.986  0.00  0.00     0.036 A 
ATOM      6  C14 AGY d          27.827  -4.220  21.378  0.00  0.00    -0.035 A 
ATOM      7  C16 AGY d          27.358  -4.241  22.731  0.00  0.00     0.111 A 
ATOM      8  H11 AGY d          27.270  -3.660  20.635  0.00  0.00     0.088 H 
ATOM      9  C18 AGY d          28.091  -4.984  23.773  0.00  0.00    -0.018 A 
ATOM     10  C17 AGY d          29.306  -5.694  23.336  0.00  0.00    -0.073 A 
ATOM     11  C15 AGY d          29.738  -5.645  21.959  0.00  0.00    -0.067 A 
ATOM     12  H13 AGY d          29.885  -6.260  24.058  0.00  0.00     0.084 H 
ATOM     13  H12 AGY d          30.636  -6.173  21.660  0.00  0.00     0.085 H 
BRANCH   7  14
ATOM     14  N4  AGY d          26.231  -3.606  23.002  0.00  0.00    -0.115 N 
ATOM     15  O3  AGY d          25.114  -4.276  23.039  0.00  0.00    -0.532 OA
ATOM     16  O4  AGY d          26.239  -2.236  23.237  0.00  0.00    -0.532 OA
ENDBRANCH   7  14
BRANCH   9  17
ATOM     17  C19 AGY d          27.673  -5.074  25.262  0.00  0.00    -0.022 C 
BRANCH  17  18
ATOM     18  C20 AGY d          28.834  -5.434  26.220  0.00  0.00    -0.066 C 
ATOM     19  H14 AGY d          29.062  -6.507  26.133  0.00  0.00     0.028 H 
ATOM     20  H15 AGY d          28.540  -5.205  27.255  0.00  0.00     0.028 H 
ATOM     21  H16 AGY d          29.725  -4.846  25.953  0.00  0.00     0.028 H 
ENDBRANCH  17  18
BRANCH  17  22
ATOM     22  C21 AGY d          27.161  -3.800  26.034  0.00  0.00    -0.066 C 
ATOM     23  H17 AGY d          27.422  -2.896  25.464  0.00  0.00     0.028 H 
ATOM     24  H18 AGY d          27.634  -3.757  27.026  0.00  0.00     0.028 H 
ATOM     25  H19 AGY d          26.068  -3.856  26.151  0.00  0.00     0.028 H 
ENDBRANCH  17  22
BRANCH  17  26
ATOM     26  C22 AGY d          26.504  -6.076  25.333  0.00  0.00    -0.066 C 
ATOM     27  H20 AGY d          26.023  -6.008  26.321  0.00  0.00     0.028 H 
ATOM     28  H21 AGY d          26.887  -7.096  25.181  0.00  0.00     0.028 H 
ATOM     29  H22 AGY d          25.769  -5.839  24.550  0.00  0.00     0.028 H 
ENDBRANCH  17  26
ENDBRANCH   9  17
ENDBRANCH   3   5
BRANCH   2  30
ATOM     30  N2  AGY d          29.708  -3.798  17.496  0.00  0.00    -0.248 N 
ATOM     31  C10 AGY d          30.772  -3.092  17.025  0.00  0.00     0.339 C 
ATOM     32  N1  AGY d          31.480  -2.259  17.844  0.00  0.00    -0.307 N 
ATOM     33  O1  AGY d          31.070  -3.236  15.832  0.00  0.00    -0.245 OA
ATOM     34  H1  AGY d          31.156  -2.224  18.789  0.00  0.00     0.170 HD
ATOM     35  H2  AGY d          29.220  -4.398  16.863  0.00  0.00     0.192 HD
BRANCH  32  36
ATOM     36  C2  AGY d          32.581  -1.450  17.572  0.00  0.00     0.047 A 
ATOM     37  C1  AGY d          33.963  -1.906  17.595  0.00  0.00     0.001 A 
ATOM     38  C3  AGY d          35.073  -0.953  17.286  0.00  0.00    -0.024 A 
ATOM     39  C4  AGY d          34.290  -3.277  17.915  0.00  0.00    -0.070 A 
ATOM     40  C6  AGY d          34.789   0.424  16.964  0.00  0.00    -0.072 A 
ATOM     41  C7  AGY d          36.426  -1.406  17.311  0.00  0.00    -0.072 A 
ATOM     42  C9  AGY d          33.403   0.878  16.942  0.00  0.00    -0.080 A 
ATOM     43  H6  AGY d          35.596   1.113  16.741  0.00  0.00     0.084 H 
ATOM     44  C5  AGY d          32.322  -0.051  17.243  0.00  0.00    -0.056 A 
ATOM     45  H9  AGY d          33.176   1.910  16.701  0.00  0.00     0.083 H 
ATOM     46  H5  AGY d          31.298   0.306  17.222  0.00  0.00     0.086 H 
ATOM     47  C11 AGY d          36.731  -2.786  17.634  0.00  0.00    -0.082 A 
ATOM     48  H7  AGY d          37.229  -0.714  17.086  0.00  0.00     0.084 H 
ATOM     49  C8  AGY d          35.666  -3.717  17.934  0.00  0.00    -0.082 A 
ATOM     50  H10 AGY d          37.762  -3.122  17.651  0.00  0.00     0.083 H 
ATOM     51  H8  AGY d          35.901  -4.748  18.175  0.00  0.00     0.083 H 
ATOM     52  H4  AGY d          33.497  -3.981  18.141  0.00  0.00     0.084 H 
ENDBRANCH  32  36
ENDBRANCH   2  30
TORSDOF 8
ENDMDL
MODEL 3
REMARK VINA RESULT:      -6.9      1.028      2.275
REMARK  8 active torsions:
REMARK  status: ('A' for Active; 'I' for Inactive)
REMARK    1  A    between atoms: N1_2  and  C2_4 
REMARK       I    between atoms: C10_18  and  N1_2 
REMARK    2  A    between atoms: N3_8  and  N2_5 
REMARK       I    between atoms: N2_5  and  C10_18 
REMARK       I    between atoms: C12_20  and  N3_8 
REMARK    3  A    between atoms: C16_24  and  N4_11 
REMARK    4  A    between atoms: C13_21  and  C12_20 
REMARK    5  A    between atoms: C18_26  and  C19_27 
REMARK    6  A    between atoms: C19_27  and  C20_28 
REMARK    7  A    between atoms: C19_27  and  C21_29 
REMARK    8  A    between atoms: C19_27  and  C22_30 
ROOT
ATOM      1  O2  AGY d          28.994  -4.161  18.224  0.00  0.00    -0.266 OA
ATOM      2  N3  AGY d          30.523  -5.579  19.064  0.00  0.00    -0.262 N 
ATOM      3  C12 AGY d          29.450  -4.756  19.220  0.00  0.00     0.270 C 
ATOM      4  H3  AGY d          30.929  -6.078  19.829  0.00  0.00     0.190 HD
ENDROOT
BRANCH   3   5
ATOM      5  C13 AGY d          28.846  -4.568  20.538  0.00  0.00     0.036 A 
ATOM      6  C14 AGY d          29.334  -5.307  21.636  0.00  0.00    -0.035 A 
ATOM      7  C16 AGY d          28.784  -5.157  22.950  0.00  0.00     0.111 A 
ATOM      8  H11 AGY d          30.147  -6.007  21.482  0.00  0.00     0.088 H 
ATOM      9  C18 AGY d          27.671  -4.221  23.201  0.00  0.00    -0.018 A 
ATOM     10  C17 AGY d          27.182  -3.463  22.036  0.00  0.00    -0.073 A 
ATOM     11  C15 AGY d          27.771  -3.647  20.730  0.00  0.00    -0.067 A 
ATOM     12  H13 AGY d          26.367  -2.757  22.160  0.00  0.00     0.084 H 
ATOM     13  H12 AGY d          27.394  -3.080  19.887  0.00  0.00     0.085 H 
BRANCH   7  14
ATOM     14  N4  AGY d          29.330  -5.856  23.930  0.00  0.00    -0.115 N 
ATOM     15  O3  AGY d          30.432  -5.429  24.479  0.00  0.00    -0.532 OA
ATOM     16  O4  AGY d          28.738  -7.036  24.363  0.00  0.00    -0.532 OA
ENDBRANCH   7  14
BRANCH   9  17
ATOM     17  C19 AGY d          27.004  -3.982  24.578  0.00  0.00    -0.022 C 
BRANCH  17  18
ATOM     18  C20 AGY d          26.085  -5.138  25.041  0.00  0.00    -0.066 C 
ATOM     19  H14 AGY d          25.637  -5.625  24.162  0.00  0.00     0.028 H 
ATOM     20  H15 AGY d          25.288  -4.739  25.684  0.00  0.00     0.028 H 
ATOM     21  H16 AGY d          26.678  -5.874  25.605  0.00  0.00     0.028 H 
ENDBRANCH  17  18
BRANCH  17  22
ATOM     22  C21 AGY d          27.873  -3.876  25.888  0.00  0.00    -0.066 C 
ATOM     23  H17 AGY d          27.652  -2.929  26.399  0.00  0.00     0.028 H 
ATOM     24  H18 AGY d          28.940  -3.910  25.623  0.00  0.00     0.028 H 
ATOM     25  H19 AGY d          27.633  -4.717  26.555  0.00  0.00     0.028 H 
ENDBRANCH  17  22
BRANCH  17  26
ATOM     26  C22 AGY d          26.267  -2.632  24.482  0.00  0.00    -0.066 C 
ATOM     27  H20 AGY d          26.630  -1.959  25.273  0.00  0.00     0.028 H 
ATOM     28  H21 AGY d          25.186  -2.795  24.608  0.00  0.00     0.028 H 
ATOM     29  H22 AGY d          26.457  -2.179  23.498  0.00  0.00     0.028 H 
ENDBRANCH  17  26
ENDBRANCH   9  17
ENDBRANCH   3   5
BRANCH   2  30
ATOM     30  N2  AGY d          31.030  -5.681  17.725  0.00  0.00    -0.248 N 
ATOM     31  C10 AGY d          32.133  -5.014  17.288  0.00  0.00     0.339 C 
ATOM     32  N1  AGY d          32.835  -4.194  18.125  0.00  0.00    -0.307 N 
ATOM     33  O1  AGY d          32.472  -5.181  16.109  0.00  0.00    -0.245 OA
ATOM     34  H1  AGY d          32.476  -4.138  19.057  0.00  0.00     0.170 HD
ATOM     35  H2  AGY d          30.549  -6.273  17.079  0.00  0.00     0.192 HD
BRANCH  32  36
ATOM     36  C2  AGY d          33.971  -3.423  17.888  0.00  0.00     0.047 A 
ATOM     37  C1  AGY d          33.957  -1.987  17.650  0.00  0.00     0.001 A 
ATOM     38  C3  AGY d          35.237  -1.255  17.406  0.00  0.00    -0.024 A 
ATOM     39  C4  AGY d          32.716  -1.245  17.643  0.00  0.00    -0.070 A 
ATOM     40  C6  AGY d          36.496  -1.958  17.403  0.00  0.00    -0.072 A 
ATOM     41  C7  AGY d          35.217   0.153  17.173  0.00  0.00    -0.072 A 
ATOM     42  C9  AGY d          36.507  -3.398  17.642  0.00  0.00    -0.080 A 
ATOM     43  H6  AGY d          37.423  -1.425  17.226  0.00  0.00     0.084 H 
ATOM     44  C5  AGY d          35.259  -4.111  17.879  0.00  0.00    -0.056 A 
ATOM     45  H9  AGY d          37.446  -3.938  17.643  0.00  0.00     0.083 H 
ATOM     46  H5  AGY d          35.288  -5.181  18.054  0.00  0.00     0.086 H 
ATOM     47  C11 AGY d          33.961   0.878  17.171  0.00  0.00    -0.082 A 
ATOM     48  H7  AGY d          36.146   0.683  16.997  0.00  0.00     0.084 H 
ATOM     49  C8  AGY d          32.717   0.180  17.405  0.00  0.00    -0.082 A 
ATOM     50  H10 AGY d          33.955   1.947  16.992  0.00  0.00     0.083 H 
ATOM     51  H8  AGY d          31.781   0.727  17.402  0.00  0.00     0.083 H 
ATOM     52  H4  AGY d          31.780  -1.762  17.818  0.00  0.00     0.084 H 
ENDBRANCH  32  36
ENDBRANCH   2  30
TORSDOF 8
ENDMDL
MODEL 4
REMARK VINA RESULT:      -6.4      1.906      3.033
REMARK  8 active torsions:
REMARK  status: ('A' for Active; 'I' for Inactive)
REMARK    1  A    between atoms: N1_2  and  C2_4 
REMARK       I    between atoms: C10_18  and  N1_2 
REMARK    2  A    between atoms: N3_8  and  N2_5 
REMARK       I    between atoms: N2_5  and  C10_18 
REMARK       I    between atoms: C12_20  and  N3_8 
REMARK    3  A    between atoms: C16_24  and  N4_11 
REMARK    4  A    between atoms: C13_21  and  C12_20 
REMARK    5  A    between atoms: C18_26  and  C19_27 
REMARK    6  A    between atoms: C19_27  and  C20_28 
REMARK    7  A    between atoms: C19_27  and  C21_29 
REMARK    8  A    between atoms: C19_27  and  C22_30 
ROOT
ATOM      1  O2  AGY d          29.113  -3.961  18.882  0.00  0.00    -0.266 OA
ATOM      2  N3  AGY d          29.976  -6.033  18.998  0.00  0.00    -0.262 N 
ATOM      3  C12 AGY d          29.350  -4.970  19.574  0.00  0.00     0.270 C 
ATOM      4  H3  AGY d          30.192  -6.866  19.508  0.00  0.00     0.190 HD
ENDROOT
BRANCH   3   5
ATOM      5  C13 AGY d          28.968  -5.010  20.984  0.00  0.00     0.036 A 
ATOM      6  C14 AGY d          27.813  -4.322  21.409  0.00  0.00    -0.035 A 
ATOM      7  C16 AGY d          27.389  -4.332  22.777  0.00  0.00     0.111 A 
ATOM      8  H11 AGY d          27.229  -3.770  20.680  0.00  0.00     0.088 H 
ATOM      9  C18 AGY d          28.159  -5.064  23.801  0.00  0.00    -0.018 A 
ATOM     10  C17 AGY d          29.361  -5.774  23.329  0.00  0.00    -0.073 A 
ATOM     11  C15 AGY d          29.746  -5.736  21.937  0.00  0.00    -0.067 A 
ATOM     12  H13 AGY d          29.965  -6.332  24.036  0.00  0.00     0.084 H 
ATOM     13  H12 AGY d          30.636  -6.264  21.613  0.00  0.00     0.085 H 
BRANCH   7  14
ATOM     14  N4  AGY d          26.270  -3.698  23.081  0.00  0.00    -0.115 N 
ATOM     15  O3  AGY d          26.314  -2.426  23.364  0.00  0.00    -0.532 OA
ATOM     16  O4  AGY d          25.061  -4.383  23.105  0.00  0.00    -0.532 OA
ENDBRANCH   7  14
BRANCH   9  17
ATOM     17  C19 AGY d          27.791  -5.142  25.303  0.00  0.00    -0.022 C 
BRANCH  17  18
ATOM     18  C20 AGY d          28.965  -5.572  26.216  0.00  0.00    -0.066 C 
ATOM     19  H14 AGY d          29.889  -5.077  25.882  0.00  0.00     0.028 H 
ATOM     20  H15 AGY d          29.093  -6.663  26.159  0.00  0.00     0.028 H 
ATOM     21  H16 AGY d          28.747  -5.281  27.254  0.00  0.00     0.028 H 
ENDBRANCH  17  18
BRANCH  17  22
ATOM     22  C21 AGY d          27.378  -3.847  26.101  0.00  0.00    -0.066 C 
ATOM     23  H17 AGY d          28.160  -3.604  26.834  0.00  0.00     0.028 H 
ATOM     24  H18 AGY d          26.427  -4.027  26.623  0.00  0.00     0.028 H 
ATOM     25  H19 AGY d          27.259  -3.008  25.400  0.00  0.00     0.028 H 
ENDBRANCH  17  22
BRANCH  17  26
ATOM     26  C22 AGY d          26.573  -6.079  25.412  0.00  0.00    -0.066 C 
ATOM     27  H20 AGY d          26.864  -6.999  25.940  0.00  0.00     0.028 H 
ATOM     28  H21 AGY d          26.214  -6.333  24.403  0.00  0.00     0.028 H 
ATOM     29  H22 AGY d          25.770  -5.574  25.970  0.00  0.00     0.028 H 
ENDBRANCH  17  26
ENDBRANCH   9  17
ENDBRANCH   3   5
BRANCH   2  30
ATOM     30  N2  AGY d          30.304  -5.876  17.609  0.00  0.00    -0.248 N 
ATOM     31  C10 AGY d          31.433  -5.256  17.171  0.00  0.00     0.339 C 
ATOM     32  N1  AGY d          32.338  -4.739  18.054  0.00  0.00    -0.307 N 
ATOM     33  O1  AGY d          31.605  -5.180  15.947  0.00  0.00    -0.245 OA
ATOM     34  H1  AGY d          32.102  -4.862  19.018  0.00  0.00     0.170 HD
ATOM     35  H2  AGY d          29.670  -6.242  16.929  0.00  0.00     0.192 HD
BRANCH  32  36
ATOM     36  C2  AGY d          33.538  -4.069  17.826  0.00  0.00     0.047 A 
ATOM     37  C1  AGY d          33.653  -2.632  17.628  0.00  0.00     0.001 A 
ATOM     38  C3  AGY d          34.993  -2.013  17.391  0.00  0.00    -0.024 A 
ATOM     39  C4  AGY d          32.486  -1.779  17.656  0.00  0.00    -0.070 A 
ATOM     40  C6  AGY d          36.183  -2.828  17.355  0.00  0.00    -0.072 A 
ATOM     41  C7  AGY d          35.100  -0.603  17.198  0.00  0.00    -0.072 A 
ATOM     42  C9  AGY d          36.064  -4.268  17.553  0.00  0.00    -0.080 A 
ATOM     43  H6  AGY d          37.153  -2.376  17.182  0.00  0.00     0.084 H 
ATOM     44  C5  AGY d          34.758  -4.871  17.784  0.00  0.00    -0.056 A 
ATOM     45  H9  AGY d          36.950  -4.892  17.529  0.00  0.00     0.083 H 
ATOM     46  H5  AGY d          34.690  -5.944  17.929  0.00  0.00     0.086 H 
ATOM     47  C11 AGY d          33.916   0.234  17.229  0.00  0.00    -0.082 A 
ATOM     48  H7  AGY d          36.072  -0.155  17.026  0.00  0.00     0.084 H 
ATOM     49  C8  AGY d          32.615  -0.354  17.458  0.00  0.00    -0.082 A 
ATOM     50  H10 AGY d          34.006   1.304  17.081  0.00  0.00     0.083 H 
ATOM     51  H8  AGY d          31.733   0.276  17.480  0.00  0.00     0.083 H 
ATOM     52  H4  AGY d          31.508  -2.213  17.826  0.00  0.00     0.084 H 
ENDBRANCH  32  36
ENDBRANCH   2  30
TORSDOF 8
ENDMDL
MODEL 5
REMARK VINA RESULT:      -5.9      1.778      3.084
REMARK  8 active torsions:
REMARK  status: ('A' for Active; 'I' for Inactive)
REMARK    1  A    between atoms: N1_2  and  C2_4 
REMARK       I    between atoms: C10_18  and  N1_2 
REMARK    2  A    between atoms: N3_8  and  N2_5 
REMARK       I    between atoms: N2_5  and  C10_18 
REMARK       I    between atoms: C12_20  and  N3_8 
REMARK    3  A    between atoms: C16_24  and  N4_11 
REMARK    4  A    between atoms: C13_21  and  C12_20 
REMARK    5  A    between atoms: C18_26  and  C19_27 
REMARK    6  A    between atoms: C19_27  and  C20_28 
REMARK    7  A    between atoms: C19_27  and  C21_29 
REMARK    8  A    between atoms: C19_27  and  C22_30 
ROOT
ATOM      1  O2  AGY d          30.095  -4.074  18.599  0.00  0.00    -0.266 OA
ATOM      2  N3  AGY d          29.679  -6.282  18.693  0.00  0.00    -0.262 N 
ATOM      3  C12 AGY d          29.621  -5.036  19.237  0.00  0.00     0.270 C 
ATOM      4  H3  AGY d          29.317  -7.087  19.162  0.00  0.00     0.190 HD
ENDROOT
BRANCH   3   5
ATOM      5  C13 AGY d          29.019  -4.829  20.552  0.00  0.00     0.036 A 
ATOM      6  C14 AGY d          29.493  -5.567  21.657  0.00  0.00    -0.035 A 
ATOM      7  C16 AGY d          28.944  -5.399  22.969  0.00  0.00     0.111 A 
ATOM      8  H11 AGY d          30.296  -6.281  21.508  0.00  0.00     0.088 H 
ATOM      9  C18 AGY d          27.846  -4.444  23.212  0.00  0.00    -0.018 A 
ATOM     10  C17 AGY d          27.370  -3.687  22.040  0.00  0.00    -0.073 A 
ATOM     11  C15 AGY d          27.958  -3.889  20.737  0.00  0.00    -0.067 A 
ATOM     12  H13 AGY d          26.567  -2.967  22.159  0.00  0.00     0.084 H 
ATOM     13  H12 AGY d          27.591  -3.322  19.890  0.00  0.00     0.085 H 
BRANCH   7  14
ATOM     14  N4  AGY d          29.479  -6.099  23.955  0.00  0.00    -0.115 N 
ATOM     15  O3  AGY d          30.529  -5.635  24.569  0.00  0.00    -0.532 OA
ATOM     16  O4  AGY d          28.929  -7.321  24.324  0.00  0.00    -0.532 OA
ENDBRANCH   7  14
BRANCH   9  17
ATOM     17  C19 AGY d          27.182  -4.184  24.586  0.00  0.00    -0.022 C 
BRANCH  17  18
ATOM     18  C20 AGY d          26.359  -5.381  25.123  0.00  0.00    -0.066 C 
ATOM     19  H14 AGY d          26.451  -6.230  24.429  0.00  0.00     0.028 H 
ATOM     20  H15 AGY d          25.302  -5.091  25.208  0.00  0.00     0.028 H 
ATOM     21  H16 AGY d          26.740  -5.673  26.112  0.00  0.00     0.028 H 
ENDBRANCH  17  18
BRANCH  17  22
ATOM     22  C21 AGY d          28.058  -3.947  25.874  0.00  0.00    -0.066 C 
ATOM     23  H17 AGY d          27.618  -4.491  26.722  0.00  0.00     0.028 H 
ATOM     24  H18 AGY d          28.087  -2.871  26.103  0.00  0.00     0.028 H 
ATOM     25  H19 AGY d          29.080  -4.312  25.694  0.00  0.00     0.028 H 
ENDBRANCH  17  22
BRANCH  17  26
ATOM     26  C22 AGY d          26.343  -2.900  24.435  0.00  0.00    -0.066 C 
ATOM     27  H20 AGY d          26.538  -2.233  25.289  0.00  0.00     0.028 H 
ATOM     28  H21 AGY d          25.274  -3.161  24.410  0.00  0.00     0.028 H 
ATOM     29  H22 AGY d          26.618  -2.390  23.500  0.00  0.00     0.028 H 
ENDBRANCH  17  26
ENDBRANCH   9  17
ENDBRANCH   3   5
BRANCH   2  30
ATOM     30  N2  AGY d          30.295  -6.360  17.398  0.00  0.00    -0.248 N 
ATOM     31  C10 AGY d          31.640  -6.276  17.202  0.00  0.00     0.339 C 
ATOM     32  N1  AGY d          32.494  -6.112  18.255  0.00  0.00    -0.307 N 
ATOM     33  O1  AGY d          32.053  -6.355  16.038  0.00  0.00    -0.245 OA
ATOM     34  H1  AGY d          32.053  -6.066  19.151  0.00  0.00     0.170 HD
ATOM     35  H2  AGY d          29.707  -6.483  16.600  0.00  0.00     0.192 HD
BRANCH  32  36
ATOM     36  C2  AGY d          33.882  -5.997  18.279  0.00  0.00     0.047 A 
ATOM     37  C1  AGY d          34.611  -4.764  18.020  0.00  0.00     0.001 A 
ATOM     38  C3  AGY d          36.105  -4.751  18.073  0.00  0.00    -0.024 A 
ATOM     39  C4  AGY d          33.914  -3.537  17.709  0.00  0.00    -0.070 A 
ATOM     40  C6  AGY d          36.840  -5.954  18.379  0.00  0.00    -0.072 A 
ATOM     41  C7  AGY d          36.815  -3.539  17.818  0.00  0.00    -0.072 A 
ATOM     42  C9  AGY d          36.106  -7.188  18.637  0.00  0.00    -0.080 A 
ATOM     43  H6  AGY d          37.923  -5.942  18.416  0.00  0.00     0.084 H 
ATOM     44  C5  AGY d          34.650  -7.201  18.586  0.00  0.00    -0.056 A 
ATOM     45  H9  AGY d          36.646  -8.099  18.869  0.00  0.00     0.083 H 
ATOM     46  H5  AGY d          34.123  -8.128  18.781  0.00  0.00     0.086 H 
ATOM     47  C11 AGY d          36.094  -2.319  17.508  0.00  0.00    -0.082 A 
ATOM     48  H7  AGY d          37.898  -3.531  17.857  0.00  0.00     0.084 H 
ATOM     49  C8  AGY d          34.650  -2.320  17.454  0.00  0.00    -0.082 A 
ATOM     50  H10 AGY d          36.641  -1.403  17.315  0.00  0.00     0.083 H 
ATOM     51  H8  AGY d          34.116  -1.405  17.221  0.00  0.00     0.083 H 
ATOM     52  H4  AGY d          32.830  -3.530  17.667  0.00  0.00     0.084 H 
ENDBRANCH  32  36
ENDBRANCH   2  30
TORSDOF 8
ENDMDL
MODEL 6
REMARK VINA RESULT:      -5.6      2.228      3.450
REMARK  8 active torsions:
REMARK  status: ('A' for Active; 'I' for Inactive)
REMARK    1  A    between atoms: N1_2  and  C2_4 
REMARK       I    between atoms: C10_18  and  N1_2 
REMARK    2  A    between atoms: N3_8  and  N2_5 
REMARK       I    between atoms: N2_5  and  C10_18 
REMARK       I    between atoms: C12_20  and  N3_8 
REMARK    3  A    between atoms: C16_24  and  N4_11 
REMARK    4  A    between atoms: C13_21  and  C12_20 
REMARK    5  A    between atoms: C18_26  and  C19_27 
REMARK    6  A    between atoms: C19_27  and  C20_28 
REMARK    7  A    between atoms: C19_27  and  C21_29 
REMARK    8  A    between atoms: C19_27  and  C22_30 
ROOT
ATOM      1  O2  AGY d          29.187  -4.003  18.875  0.00  0.00    -0.266 OA
ATOM      2  N3  AGY d          29.756  -6.178  18.883  0.00  0.00    -0.262 N 
ATOM      3  C12 AGY d          29.225  -5.085  19.494  0.00  0.00     0.270 C 
ATOM      4  H3  AGY d          29.813  -7.068  19.335  0.00  0.00     0.190 HD
ENDROOT
BRANCH   3   5
ATOM      5  C13 AGY d          28.712  -5.175  20.860  0.00  0.00     0.036 A 
ATOM      6  C14 AGY d          27.871  -4.157  21.355  0.00  0.00    -0.035 A 
ATOM      7  C16 AGY d          27.335  -4.198  22.683  0.00  0.00     0.111 A 
ATOM      8  H11 AGY d          27.622  -3.320  20.712  0.00  0.00     0.088 H 
ATOM      9  C18 AGY d          27.655  -5.316  23.591  0.00  0.00    -0.018 A 
ATOM     10  C17 AGY d          28.537  -6.366  23.049  0.00  0.00    -0.073 A 
ATOM     11  C15 AGY d          29.049  -6.280  21.701  0.00  0.00    -0.067 A 
ATOM     12  H13 AGY d          28.804  -7.214  23.670  0.00  0.00     0.084 H 
ATOM     13  H12 AGY d          29.697  -7.063  21.324  0.00  0.00     0.085 H 
BRANCH   7  14
ATOM     14  N4  AGY d          26.520  -3.225  23.049  0.00  0.00    -0.115 N 
ATOM     15  O3  AGY d          26.919  -2.359  23.937  0.00  0.00    -0.532 OA
ATOM     16  O4  AGY d          25.247  -3.134  22.498  0.00  0.00    -0.532 OA
ENDBRANCH   7  14
BRANCH   9  17
ATOM     17  C19 AGY d          27.132  -5.460  25.042  0.00  0.00    -0.022 C 
BRANCH  17  18
ATOM     18  C20 AGY d          27.686  -6.698  25.789  0.00  0.00    -0.066 C 
ATOM     19  H14 AGY d          28.755  -6.819  25.556  0.00  0.00     0.028 H 
ATOM     20  H15 AGY d          27.138  -7.595  25.469  0.00  0.00     0.028 H 
ATOM     21  H16 AGY d          27.561  -6.557  26.873  0.00  0.00     0.028 H 
ENDBRANCH  17  18
BRANCH  17  22
ATOM     22  C21 AGY d          27.487  -4.386  26.138  0.00  0.00    -0.066 C 
ATOM     23  H17 AGY d          27.163  -3.392  25.796  0.00  0.00     0.028 H 
ATOM     24  H18 AGY d          28.573  -4.379  26.306  0.00  0.00     0.028 H 
ATOM     25  H19 AGY d          26.971  -4.636  27.077  0.00  0.00     0.028 H 
ENDBRANCH  17  22
BRANCH  17  26
ATOM     26  C22 AGY d          25.593  -5.449  24.959  0.00  0.00    -0.066 C 
ATOM     27  H20 AGY d          25.204  -6.439  25.243  0.00  0.00     0.028 H 
ATOM     28  H21 AGY d          25.283  -5.214  23.930  0.00  0.00     0.028 H 
ATOM     29  H22 AGY d          25.195  -4.687  25.646  0.00  0.00     0.028 H 
ENDBRANCH  17  26
ENDBRANCH   9  17
ENDBRANCH   3   5
BRANCH   2  30
ATOM     30  N2  AGY d          30.228  -5.966  17.544  0.00  0.00    -0.248 N 
ATOM     31  C10 AGY d          31.543  -5.806  17.229  0.00  0.00     0.339 C 
ATOM     32  N1  AGY d          32.506  -5.845  18.196  0.00  0.00    -0.307 N 
ATOM     33  O1  AGY d          31.827  -5.627  16.038  0.00  0.00    -0.245 OA
ATOM     34  H1  AGY d          32.165  -6.001  19.124  0.00  0.00     0.170 HD
ATOM     35  H2  AGY d          29.557  -5.934  16.804  0.00  0.00     0.192 HD
BRANCH  32  36
ATOM     36  C2  AGY d          33.888  -5.701  18.098  0.00  0.00     0.047 A 
ATOM     37  C1  AGY d          34.570  -4.435  17.869  0.00  0.00     0.001 A 
ATOM     38  C3  AGY d          36.062  -4.393  17.781  0.00  0.00    -0.024 A 
ATOM     39  C4  AGY d          33.827  -3.204  17.723  0.00  0.00    -0.070 A 
ATOM     40  C6  AGY d          36.840  -5.599  17.920  0.00  0.00    -0.072 A 
ATOM     41  C7  AGY d          36.725  -3.149  17.556  0.00  0.00    -0.072 A 
ATOM     42  C9  AGY d          36.154  -6.866  18.149  0.00  0.00    -0.080 A 
ATOM     43  H6  AGY d          37.922  -5.565  17.855  0.00  0.00     0.084 H 
ATOM     44  C5  AGY d          34.700  -6.907  18.235  0.00  0.00    -0.056 A 
ATOM     45  H9  AGY d          36.727  -7.779  18.256  0.00  0.00     0.083 H 
ATOM     46  H5  AGY d          34.208  -7.858  18.405  0.00  0.00     0.086 H 
ATOM     47  C11 AGY d          35.959  -1.926  17.412  0.00  0.00    -0.082 A 
ATOM     48  H7  AGY d          37.806  -3.119  17.493  0.00  0.00     0.084 H 
ATOM     49  C8  AGY d          34.516  -1.955  17.496  0.00  0.00    -0.082 A 
ATOM     50  H10 AGY d          36.471  -0.985  17.241  0.00  0.00     0.083 H 
ATOM     51  H8  AGY d          33.950  -1.037  17.387  0.00  0.00     0.083 H 
ATOM     52  H4  AGY d          32.745  -3.219  17.784  0.00  0.00     0.084 H 
ENDBRANCH  32  36
ENDBRANCH   2  30
TORSDOF 8
ENDMDL
