MODEL 1
REMARK VINA RESULT:      -9.9      0.000      0.000
REMARK  11 active torsions:
REMARK  status: ('A' for Active; 'I' for Inactive)
REMARK    1  A    between atoms: C1_1  and  O8_8 
REMARK    2  A    between atoms: C2_2  and  O9_9 
REMARK    3  A    between atoms: C3_3  and  S7_7 
REMARK    4  A    between atoms: C5_5  and  C6_6 
REMARK    5  A    between atoms: S7_7  and  C11_11 
REMARK    6  A    between atoms: C10_10  and  C12_12 
REMARK    7  A    between atoms: C12_12  and  N13_13 
REMARK       I    between atoms: N13_13  and  C14_14 
REMARK    8  A    between atoms: C14_14  and  C15_15 
REMARK    9  A    between atoms: C16_16  and  O22_22 
REMARK   10  A    between atoms: C17_17  and  O23_23 
REMARK   11  A    between atoms: C19_19  and  N21_21 
ROOT
ATOM      1  C6  MOL d          20.708 -30.470  11.188  0.00  0.00    -0.075 C 
ATOM      2  C10 MOL d          20.344 -29.790  10.137  0.00  0.00    -0.087 C 
ATOM      3  H5  MOL d          21.139 -31.462  11.067  0.00  0.00     0.080 H 
ATOM      4  H8  MOL d          19.929 -28.794  10.283  0.00  0.00     0.079 H 
ENDROOT
BRANCH   1   5
ATOM      5  C5  MOL d          20.543 -29.908  12.535  0.00  0.00     0.083 C 
ATOM      6  C1  MOL d          20.684 -31.026  13.614  0.00  0.00     0.091 C 
ATOM      7  C2  MOL d          19.318 -31.696  13.360  0.00  0.00     0.097 C 
ATOM      8  H1  MOL d          21.543 -31.696  13.469  0.00  0.00     0.091 H 
ATOM      9  C3  MOL d          18.372 -30.523  13.091  0.00  0.00     0.115 C 
ATOM     10  H2  MOL d          19.380 -32.355  12.481  0.00  0.00     0.092 H 
ATOM     11  O4  MOL d          19.222 -29.444  12.678  0.00  0.00    -0.361 OA
ATOM     12  H3  MOL d          17.822 -30.245  14.003  0.00  0.00     0.105 H 
ATOM     13  H4  MOL d          21.272 -29.101  12.704  0.00  0.00     0.093 H 
BRANCH   6  14
ATOM     14  O8  MOL d          20.713 -30.397  14.893  0.00  0.00    -0.390 OA
ATOM     15  H6  MOL d          20.847 -29.463  14.782  0.00  0.00     0.210 HD
ENDBRANCH   6  14
BRANCH   7  16
ATOM     16  O9  MOL d          18.842 -32.458  14.477  0.00  0.00    -0.389 OA
ATOM     17  H7  MOL d          19.008 -31.978  15.279  0.00  0.00     0.210 HD
ENDBRANCH   7  16
BRANCH   9  18
ATOM     18  S7  MOL d          17.205 -31.004  11.810  0.00  0.00    -0.095 SA
BRANCH  18  19
ATOM     19  C11 MOL d          15.688 -30.821  12.486  0.00  0.00     0.005 A 
ATOM     20  C27 MOL d          14.549 -31.596  12.011  0.00  0.00    -0.050 A 
ATOM     21  C28 MOL d          13.293 -31.448  12.612  0.00  0.00     0.003 A 
ATOM     22  H16 MOL d          14.674 -32.290  11.188  0.00  0.00     0.087 H 
ATOM     23  N29 MOL d          13.028 -30.583  13.648  0.00  0.00    -0.273 NA
ATOM     24  H17 MOL d          12.477 -32.055  12.237  0.00  0.00     0.114 H 
ATOM     25  C30 MOL d          14.108 -29.835  14.098  0.00  0.00     0.003 A 
ATOM     26  C31 MOL d          15.390 -29.936  13.566  0.00  0.00    -0.050 A 
ATOM     27  H18 MOL d          13.943 -29.134  14.908  0.00  0.00     0.114 H 
ATOM     28  H19 MOL d          16.183 -29.327  13.982  0.00  0.00     0.087 H 
ENDBRANCH  18  19
ENDBRANCH   9  18
ENDBRANCH   1   5
BRANCH   2  29
ATOM     29  C12 MOL d          20.465 -30.308   8.742  0.00  0.00     0.010 C 
ATOM     30  H9  MOL d          19.499 -30.181   8.233  0.00  0.00     0.070 H 
ATOM     31  H10 MOL d          20.720 -31.378   8.784  0.00  0.00     0.070 H 
BRANCH  29  32
ATOM     32  N13 MOL d          21.480 -29.623   7.982  0.00  0.00    -0.353 N 
ATOM     33  C14 MOL d          22.219 -30.141   6.984  0.00  0.00     0.254 C 
ATOM     34  O24 MOL d          21.970 -31.302   6.544  0.00  0.00    -0.268 OA
ATOM     35  H11 MOL d          21.651 -28.667   8.219  0.00  0.00     0.163 HD
BRANCH  33  36
ATOM     36  C15 MOL d          23.349 -29.380   6.392  0.00  0.00     0.070 A 
ATOM     37  C16 MOL d          23.478 -27.975   6.584  0.00  0.00     0.114 A 
ATOM     38  C17 MOL d          24.616 -27.353   6.003  0.00  0.00     0.102 A 
ATOM     39  C18 MOL d          25.562 -27.998   5.258  0.00  0.00    -0.016 A 
ATOM     40  C19 MOL d          25.408 -29.394   5.105  0.00  0.00     0.106 A 
ATOM     41  H12 MOL d          26.391 -27.466   4.807  0.00  0.00     0.091 H 
ATOM     42  C20 MOL d          24.308 -30.080   5.665  0.00  0.00    -0.033 A 
ATOM     43  H13 MOL d          24.210 -31.151   5.529  0.00  0.00     0.089 H 
BRANCH  37  44
ATOM     44  O22 MOL d          22.609 -27.206   7.248  0.00  0.00    -0.357 OA
ATOM     45  H14 MOL d          21.880 -26.990   6.679  0.00  0.00     0.217 HD
ENDBRANCH  37  44
BRANCH  38  46
ATOM     46  O23 MOL d          24.763 -25.989   6.178  0.00  0.00    -0.358 OA
ATOM     47  H15 MOL d          24.737 -25.558   5.332  0.00  0.00     0.217 HD
ENDBRANCH  38  46
BRANCH  40  48
ATOM     48  N21 MOL d          26.370 -30.145   4.330  0.00  0.00    -0.116 N 
ATOM     49  O25 MOL d          26.203 -31.309   4.076  0.00  0.00    -0.532 OA
ATOM     50  O26 MOL d          27.373 -29.544   3.975  0.00  0.00    -0.532 OA
ENDBRANCH  40  48
ENDBRANCH  33  36
ENDBRANCH  29  32
ENDBRANCH   2  29
TORSDOF 11
ENDMDL
MODEL 2
REMARK VINA RESULT:      -7.9      1.776      2.421
REMARK  11 active torsions:
REMARK  status: ('A' for Active; 'I' for Inactive)
REMARK    1  A    between atoms: C1_1  and  O8_8 
REMARK    2  A    between atoms: C2_2  and  O9_9 
REMARK    3  A    between atoms: C3_3  and  S7_7 
REMARK    4  A    between atoms: C5_5  and  C6_6 
REMARK    5  A    between atoms: S7_7  and  C11_11 
REMARK    6  A    between atoms: C10_10  and  C12_12 
REMARK    7  A    between atoms: C12_12  and  N13_13 
REMARK       I    between atoms: N13_13  and  C14_14 
REMARK    8  A    between atoms: C14_14  and  C15_15 
REMARK    9  A    between atoms: C16_16  and  O22_22 
REMARK   10  A    between atoms: C17_17  and  O23_23 
REMARK   11  A    between atoms: C19_19  and  N21_21 
ROOT
ATOM      1  C6  MOL d          20.875 -28.530  12.159  0.00  0.00    -0.075 C 
ATOM      2  C10 MOL d          21.926 -27.986  11.612  0.00  0.00    -0.087 C 
ATOM      3  H5  MOL d          19.882 -28.173  11.893  0.00  0.00     0.080 H 
ATOM      4  H8  MOL d          22.908 -28.370  11.883  0.00  0.00     0.079 H 
ENDROOT
BRANCH   1   5
ATOM      5  C5  MOL d          21.020 -29.621  13.132  0.00  0.00     0.083 C 
ATOM      6  C1  MOL d          21.882 -30.775  12.534  0.00  0.00     0.091 C 
ATOM      7  C2  MOL d          20.810 -31.324  11.572  0.00  0.00     0.097 C 
ATOM      8  H1  MOL d          22.804 -30.445  12.033  0.00  0.00     0.091 H 
ATOM      9  C3  MOL d          19.505 -31.207  12.363  0.00  0.00     0.115 C 
ATOM     10  H2  MOL d          20.770 -30.707  10.662  0.00  0.00     0.092 H 
ATOM     11  O4  MOL d          19.758 -30.204  13.357  0.00  0.00    -0.361 OA
ATOM     12  H3  MOL d          19.250 -32.162  12.845  0.00  0.00     0.105 H 
ATOM     13  H4  MOL d          21.459 -29.242  14.067  0.00  0.00     0.093 H 
BRANCH   6  14
ATOM     14  O8  MOL d          22.153 -31.705  13.580  0.00  0.00    -0.390 OA
ATOM     15  H6  MOL d          23.090 -31.749  13.729  0.00  0.00     0.210 HD
ENDBRANCH   6  14
BRANCH   7  16
ATOM     16  O9  MOL d          21.028 -32.690  11.195  0.00  0.00    -0.389 OA
ATOM     17  H7  MOL d          20.552 -33.260  11.787  0.00  0.00     0.210 HD
ENDBRANCH   7  16
BRANCH   9  18
ATOM     18  S7  MOL d          18.186 -30.735  11.235  0.00  0.00    -0.095 SA
BRANCH  18  19
ATOM     19  C11 MOL d          16.801 -30.647  12.167  0.00  0.00     0.005 A 
ATOM     20  C27 MOL d          16.738 -29.798  13.349  0.00  0.00    -0.050 A 
ATOM     21  C28 MOL d          15.557 -29.717  14.098  0.00  0.00     0.003 A 
ATOM     22  H16 MOL d          17.607 -29.226  13.651  0.00  0.00     0.087 H 
ATOM     23  N29 MOL d          14.408 -30.415  13.810  0.00  0.00    -0.273 NA
ATOM     24  H17 MOL d          15.549 -29.061  14.961  0.00  0.00     0.114 H 
ATOM     25  C30 MOL d          14.467 -31.234  12.690  0.00  0.00     0.003 A 
ATOM     26  C31 MOL d          15.595 -31.355  11.884  0.00  0.00    -0.050 A 
ATOM     27  H18 MOL d          13.586 -31.809  12.429  0.00  0.00     0.114 H 
ATOM     28  H19 MOL d          15.556 -32.005  11.018  0.00  0.00     0.087 H 
ENDBRANCH  18  19
ENDBRANCH   9  18
ENDBRANCH   1   5
BRANCH   2  29
ATOM     29  C12 MOL d          21.852 -26.862  10.632  0.00  0.00     0.010 C 
ATOM     30  H9  MOL d          22.275 -25.960  11.097  0.00  0.00     0.070 H 
ATOM     31  H10 MOL d          20.795 -26.683  10.380  0.00  0.00     0.070 H 
BRANCH  29  32
ATOM     32  N13 MOL d          22.575 -27.137   9.416  0.00  0.00    -0.353 N 
ATOM     33  C14 MOL d          22.191 -27.963   8.426  0.00  0.00     0.254 C 
ATOM     34  O24 MOL d          21.041 -28.493   8.449  0.00  0.00    -0.268 OA
ATOM     35  H11 MOL d          23.449 -26.666   9.297  0.00  0.00     0.163 HD
BRANCH  33  36
ATOM     36  C15 MOL d          23.104 -28.289   7.301  0.00  0.00     0.070 A 
ATOM     37  C16 MOL d          24.045 -27.339   6.812  0.00  0.00     0.114 A 
ATOM     38  C17 MOL d          24.896 -27.767   5.756  0.00  0.00     0.102 A 
ATOM     39  C18 MOL d          24.849 -29.000   5.169  0.00  0.00    -0.016 A 
ATOM     40  C19 MOL d          23.914 -29.919   5.694  0.00  0.00     0.106 A 
ATOM     41  H12 MOL d          25.498 -29.260   4.341  0.00  0.00     0.091 H 
ATOM     42  C20 MOL d          23.046 -29.566   6.750  0.00  0.00    -0.033 A 
ATOM     43  H13 MOL d          22.334 -30.289   7.133  0.00  0.00     0.089 H 
BRANCH  37  44
ATOM     44  O22 MOL d          24.174 -26.084   7.256  0.00  0.00    -0.357 OA
ATOM     45  H14 MOL d          24.176 -25.486   6.517  0.00  0.00     0.217 HD
ENDBRANCH  37  44
BRANCH  38  46
ATOM     46  O23 MOL d          25.818 -26.861   5.266  0.00  0.00    -0.358 OA
ATOM     47  H15 MOL d          26.034 -27.085   4.368  0.00  0.00     0.217 HD
ENDBRANCH  38  46
BRANCH  40  48
ATOM     48  N21 MOL d          23.807 -31.244   5.124  0.00  0.00    -0.116 N 
ATOM     49  O25 MOL d          24.779 -31.923   4.923  0.00  0.00    -0.532 OA
ATOM     50  O26 MOL d          22.682 -31.622   4.831  0.00  0.00    -0.532 OA
ENDBRANCH  40  48
ENDBRANCH  33  36
ENDBRANCH  29  32
ENDBRANCH   2  29
TORSDOF 11
ENDMDL
MODEL 3
REMARK VINA RESULT:      -7.4      1.752      2.908
REMARK  11 active torsions:
REMARK  status: ('A' for Active; 'I' for Inactive)
REMARK    1  A    between atoms: C1_1  and  O8_8 
REMARK    2  A    between atoms: C2_2  and  O9_9 
REMARK    3  A    between atoms: C3_3  and  S7_7 
REMARK    4  A    between atoms: C5_5  and  C6_6 
REMARK    5  A    between atoms: S7_7  and  C11_11 
REMARK    6  A    between atoms: C10_10  and  C12_12 
REMARK    7  A    between atoms: C12_12  and  N13_13 
REMARK       I    between atoms: N13_13  and  C14_14 
REMARK    8  A    between atoms: C14_14  and  C15_15 
REMARK    9  A    between atoms: C16_16  and  O22_22 
REMARK   10  A    between atoms: C17_17  and  O23_23 
REMARK   11  A    between atoms: C19_19  and  N21_21 
ROOT
ATOM      1  C6  MOL d          19.905 -29.030  11.497  0.00  0.00    -0.075 C 
ATOM      2  C10 MOL d          21.032 -28.774  10.894  0.00  0.00    -0.087 C 
ATOM      3  H5  MOL d          18.968 -28.952  10.948  0.00  0.00     0.080 H 
ATOM      4  H8  MOL d          21.957 -28.874  11.461  0.00  0.00     0.079 H 
ENDROOT
BRANCH   1   5
ATOM      5  C5  MOL d          19.888 -29.425  12.912  0.00  0.00     0.083 C 
ATOM      6  C1  MOL d          20.539 -30.831  13.094  0.00  0.00     0.091 C 
ATOM      7  C2  MOL d          19.372 -31.649  12.503  0.00  0.00     0.097 C 
ATOM      8  H1  MOL d          21.492 -30.966  12.563  0.00  0.00     0.091 H 
ATOM      9  C3  MOL d          18.119 -30.930  13.009  0.00  0.00     0.115 C 
ATOM     10  H2  MOL d          19.417 -31.628  11.404  0.00  0.00     0.092 H 
ATOM     11  O4  MOL d          18.552 -29.598  13.321  0.00  0.00    -0.361 OA
ATOM     12  H3  MOL d          17.721 -31.420  13.910  0.00  0.00     0.105 H 
ATOM     13  H4  MOL d          20.401 -28.669  13.525  0.00  0.00     0.093 H 
BRANCH   6  14
ATOM     14  O8  MOL d          20.673 -31.072  14.493  0.00  0.00    -0.390 OA
ATOM     15  H6  MOL d          20.814 -31.999  14.641  0.00  0.00     0.210 HD
ENDBRANCH   6  14
BRANCH   7  16
ATOM     16  O9  MOL d          19.357 -33.015  12.939  0.00  0.00    -0.389 OA
ATOM     17  H7  MOL d          18.874 -33.540  12.312  0.00  0.00     0.210 HD
ENDBRANCH   7  16
BRANCH   9  18
ATOM     18  S7  MOL d          16.874 -30.957  11.712  0.00  0.00    -0.095 SA
BRANCH  18  19
ATOM     19  C11 MOL d          15.405 -30.786  12.489  0.00  0.00     0.005 A 
ATOM     20  C27 MOL d          14.300 -31.699  12.227  0.00  0.00    -0.050 A 
ATOM     21  C28 MOL d          13.087 -31.555  12.912  0.00  0.00     0.003 A 
ATOM     22  H16 MOL d          14.417 -32.493  11.498  0.00  0.00     0.087 H 
ATOM     23  N29 MOL d          12.834 -30.573  13.840  0.00  0.00    -0.273 NA
ATOM     24  H17 MOL d          12.297 -32.266  12.697  0.00  0.00     0.114 H 
ATOM     25  C30 MOL d          13.881 -29.694  14.086  0.00  0.00     0.003 A 
ATOM     26  C31 MOL d          15.121 -29.780  13.461  0.00  0.00    -0.050 A 
ATOM     27  H18 MOL d          13.723 -28.899  14.805  0.00  0.00     0.114 H 
ATOM     28  H19 MOL d          15.892 -29.064  13.718  0.00  0.00     0.087 H 
ENDBRANCH  18  19
ENDBRANCH   9  18
ENDBRANCH   1   5
BRANCH   2  29
ATOM     29  C12 MOL d          21.120 -28.349   9.465  0.00  0.00     0.010 C 
ATOM     30  H9  MOL d          21.949 -27.633   9.360  0.00  0.00     0.070 H 
ATOM     31  H10 MOL d          20.176 -27.860   9.184  0.00  0.00     0.070 H 
BRANCH  29  32
ATOM     32  N13 MOL d          21.350 -29.455   8.571  0.00  0.00    -0.353 N 
ATOM     33  C14 MOL d          22.139 -29.452   7.480  0.00  0.00     0.254 C 
ATOM     34  O24 MOL d          22.866 -28.448   7.224  0.00  0.00    -0.268 OA
ATOM     35  H11 MOL d          20.877 -30.310   8.782  0.00  0.00     0.163 HD
BRANCH  33  36
ATOM     36  C15 MOL d          22.161 -30.606   6.547  0.00  0.00     0.070 A 
ATOM     37  C16 MOL d          20.968 -31.301   6.197  0.00  0.00     0.114 A 
ATOM     38  C17 MOL d          21.098 -32.368   5.267  0.00  0.00     0.102 A 
ATOM     39  C18 MOL d          22.278 -32.785   4.721  0.00  0.00    -0.016 A 
ATOM     40  C19 MOL d          23.437 -32.061   5.079  0.00  0.00     0.106 A 
ATOM     41  H12 MOL d          22.324 -33.630   4.044  0.00  0.00     0.091 H 
ATOM     42  C20 MOL d          23.380 -30.981   5.987  0.00  0.00    -0.033 A 
ATOM     43  H13 MOL d          24.284 -30.444   6.249  0.00  0.00     0.089 H 
BRANCH  37  44
ATOM     44  O22 MOL d          19.752 -31.036   6.687  0.00  0.00    -0.357 OA
ATOM     45  H14 MOL d          19.822 -30.832   7.612  0.00  0.00     0.217 HD
ENDBRANCH  37  44
BRANCH  38  46
ATOM     46  O23 MOL d          19.952 -33.055   4.913  0.00  0.00    -0.358 OA
ATOM     47  H15 MOL d          20.124 -33.990   4.938  0.00  0.00     0.217 HD
ENDBRANCH  38  46
BRANCH  40  48
ATOM     48  N21 MOL d          24.723 -32.443   4.539  0.00  0.00    -0.116 N 
ATOM     49  O25 MOL d          25.648 -31.675   4.512  0.00  0.00    -0.532 OA
ATOM     50  O26 MOL d          24.809 -33.575   4.085  0.00  0.00    -0.532 OA
ENDBRANCH  40  48
ENDBRANCH  33  36
ENDBRANCH  29  32
ENDBRANCH   2  29
TORSDOF 11
ENDMDL
MODEL 4
REMARK VINA RESULT:      -7.0      1.455      2.735
REMARK  11 active torsions:
REMARK  status: ('A' for Active; 'I' for Inactive)
REMARK    1  A    between atoms: C1_1  and  O8_8 
REMARK    2  A    between atoms: C2_2  and  O9_9 
REMARK    3  A    between atoms: C3_3  and  S7_7 
REMARK    4  A    between atoms: C5_5  and  C6_6 
REMARK    5  A    between atoms: S7_7  and  C11_11 
REMARK    6  A    between atoms: C10_10  and  C12_12 
REMARK    7  A    between atoms: C12_12  and  N13_13 
REMARK       I    between atoms: N13_13  and  C14_14 
REMARK    8  A    between atoms: C14_14  and  C15_15 
REMARK    9  A    between atoms: C16_16  and  O22_22 
REMARK   10  A    between atoms: C17_17  and  O23_23 
REMARK   11  A    between atoms: C19_19  and  N21_21 
ROOT
ATOM      1  C6  MOL d          20.955 -31.830  10.922  0.00  0.00    -0.075 C 
ATOM      2  C10 MOL d          21.084 -30.719  10.251  0.00  0.00    -0.087 C 
ATOM      3  H5  MOL d          20.519 -32.704  10.441  0.00  0.00     0.080 H 
ATOM      4  H8  MOL d          21.536 -29.863  10.750  0.00  0.00     0.079 H 
ENDROOT
BRANCH   1   5
ATOM      5  C5  MOL d          21.394 -31.912  12.322  0.00  0.00     0.083 C 
ATOM      6  C1  MOL d          20.529 -32.947  13.105  0.00  0.00     0.091 C 
ATOM      7  C2  MOL d          19.255 -32.082  13.203  0.00  0.00     0.097 C 
ATOM      8  H1  MOL d          20.379 -33.904  12.585  0.00  0.00     0.091 H 
ATOM      9  C3  MOL d          19.785 -30.666  13.444  0.00  0.00     0.115 C 
ATOM     10  H2  MOL d          18.693 -32.131  12.258  0.00  0.00     0.092 H 
ATOM     11  O4  MOL d          21.134 -30.682  12.955  0.00  0.00    -0.361 OA
ATOM     12  H3  MOL d          19.773 -30.419  14.516  0.00  0.00     0.105 H 
ATOM     13  H4  MOL d          22.463 -32.171  12.371  0.00  0.00     0.093 H 
BRANCH   6  14
ATOM     14  O8  MOL d          21.122 -33.128  14.389  0.00  0.00    -0.390 OA
ATOM     15  H6  MOL d          22.023 -33.410  14.283  0.00  0.00     0.210 HD
ENDBRANCH   6  14
BRANCH   7  16
ATOM     16  O9  MOL d          18.388 -32.465  14.278  0.00  0.00    -0.389 OA
ATOM     17  H7  MOL d          17.934 -33.266  14.046  0.00  0.00     0.210 HD
ENDBRANCH   7  16
BRANCH   9  18
ATOM     18  S7  MOL d          18.747 -29.501  12.549  0.00  0.00    -0.095 SA
BRANCH  18  19
ATOM     19  C11 MOL d          17.187 -30.083  12.689  0.00  0.00     0.005 A 
ATOM     20  C27 MOL d          16.289 -29.599  13.730  0.00  0.00    -0.050 A 
ATOM     21  C28 MOL d          14.976 -30.079  13.809  0.00  0.00     0.003 A 
ATOM     22  H16 MOL d          16.640 -28.865  14.446  0.00  0.00     0.087 H 
ATOM     23  N29 MOL d          14.444 -31.022  12.961  0.00  0.00    -0.273 NA
ATOM     24  H17 MOL d          14.338 -29.680  14.590  0.00  0.00     0.114 H 
ATOM     25  C30 MOL d          15.298 -31.493  11.974  0.00  0.00     0.003 A 
ATOM     26  C31 MOL d          16.610 -31.055  11.817  0.00  0.00    -0.050 A 
ATOM     27  H18 MOL d          14.923 -32.243  11.287  0.00  0.00     0.114 H 
ATOM     28  H19 MOL d          17.209 -31.462  11.011  0.00  0.00     0.087 H 
ENDBRANCH  18  19
ENDBRANCH   9  18
ENDBRANCH   1   5
BRANCH   2  29
ATOM     29  C12 MOL d          20.641 -30.561   8.834  0.00  0.00     0.010 C 
ATOM     30  H9  MOL d          19.870 -29.778   8.790  0.00  0.00     0.070 H 
ATOM     31  H10 MOL d          20.216 -31.515   8.489  0.00  0.00     0.070 H 
BRANCH  29  32
ATOM     32  N13 MOL d          21.721 -30.193   7.954  0.00  0.00    -0.353 N 
ATOM     33  C14 MOL d          22.198 -30.918   6.925  0.00  0.00     0.254 C 
ATOM     34  O24 MOL d          21.612 -31.983   6.571  0.00  0.00    -0.268 OA
ATOM     35  H11 MOL d          22.159 -29.310   8.124  0.00  0.00     0.163 HD
BRANCH  33  36
ATOM     36  C15 MOL d          23.424 -30.502   6.198  0.00  0.00     0.070 A 
ATOM     37  C16 MOL d          24.272 -31.457   5.568  0.00  0.00     0.114 A 
ATOM     38  C17 MOL d          25.400 -30.948   4.869  0.00  0.00     0.102 A 
ATOM     39  C18 MOL d          25.736 -29.626   4.789  0.00  0.00    -0.016 A 
ATOM     40  C19 MOL d          24.860 -28.709   5.412  0.00  0.00     0.106 A 
ATOM     41  H12 MOL d          26.630 -29.296   4.273  0.00  0.00     0.091 H 
ATOM     42  C20 MOL d          23.715 -29.143   6.114  0.00  0.00    -0.033 A 
ATOM     43  H13 MOL d          23.061 -28.419   6.587  0.00  0.00     0.089 H 
BRANCH  37  44
ATOM     44  O22 MOL d          24.097 -32.783   5.600  0.00  0.00    -0.357 OA
ATOM     45  H14 MOL d          23.167 -32.977   5.629  0.00  0.00     0.217 HD
ENDBRANCH  37  44
BRANCH  38  46
ATOM     46  O23 MOL d          26.237 -31.857   4.249  0.00  0.00    -0.358 OA
ATOM     47  H15 MOL d          26.674 -32.384   4.907  0.00  0.00     0.217 HD
ENDBRANCH  38  46
BRANCH  40  48
ATOM     48  N21 MOL d          25.150 -27.292   5.370  0.00  0.00    -0.116 N 
ATOM     49  O25 MOL d          24.637 -26.522   6.138  0.00  0.00    -0.532 OA
ATOM     50  O26 MOL d          25.916 -26.919   4.494  0.00  0.00    -0.532 OA
ENDBRANCH  40  48
ENDBRANCH  33  36
ENDBRANCH  29  32
ENDBRANCH   2  29
TORSDOF 11
ENDMDL
