MODEL 1
REMARK VINA RESULT:      -9.7      0.000      0.000
REMARK  6 active torsions:
REMARK  status: ('A' for Active; 'I' for Inactive)
REMARK    1  A    between atoms: C07_7  and  N03_3 
REMARK    2  A    between atoms: N03_3  and  C09_9 
REMARK    3  A    between atoms: C06_6  and  N04_4 
REMARK    4  A    between atoms: N04_4  and  C16_16 
REMARK    5  A    between atoms: C14_14  and  C15_15 
REMARK    6  A    between atoms: C19_19  and  C22_22 
ROOT
ATOM      1  N01 MOL d           3.331  31.538   8.709  0.00  0.00    -0.075 NA
ATOM      2  N02 MOL d           4.020  30.832   6.585  0.00  0.00    -0.045 NA
ATOM      3  C05 MOL d           3.980  30.511   9.283  0.00  0.00     0.025 A 
ATOM      4  C06 MOL d           3.355  31.680   7.380  0.00  0.00     0.728 A 
ATOM      5  C07 MOL d           4.687  29.786   7.117  0.00  0.00     0.148 A 
ATOM      6  C08 MOL d           4.680  29.600   8.499  0.00  0.00    -0.021 A 
ATOM      7  H3  MOL d           3.959  30.393  10.360  0.00  0.00     0.115 H 
ATOM      8  H4  MOL d           5.206  28.767   8.950  0.00  0.00     0.091 H 
ENDROOT
BRANCH   5   9
ATOM      9  N03 MOL d           5.407  28.852   6.290  0.00  0.00    -0.340 N 
ATOM     10  H1  MOL d           5.867  28.044   6.736  0.00  0.00     0.167 HD
BRANCH   9  11
ATOM     11  C09 MOL d           5.505  29.008   4.865  0.00  0.00     0.044 A 
ATOM     12  C10 MOL d           4.353  29.032   4.093  0.00  0.00    -0.056 A 
ATOM     13  C11 MOL d           4.444  29.177   2.716  0.00  0.00    -0.081 A 
ATOM     14  H5  MOL d           3.382  28.939   4.566  0.00  0.00     0.086 H 
ATOM     15  C12 MOL d           5.678  29.295   2.098  0.00  0.00    -0.082 A 
ATOM     16  H6  MOL d           3.539  29.199   2.119  0.00  0.00     0.083 H 
ATOM     17  C13 MOL d           6.829  29.266   2.868  0.00  0.00    -0.070 A 
ATOM     18  H7  MOL d           5.741  29.408   1.022  0.00  0.00     0.083 H 
ATOM     19  C14 MOL d           6.747  29.122   4.247  0.00  0.00     0.001 A 
ATOM     20  H8  MOL d           7.798  29.357   2.392  0.00  0.00     0.084 H 
BRANCH  19  21
ATOM     21  C15 MOL d           8.011  29.101   5.044  0.00  0.00    -0.024 A 
ATOM     22  C23 MOL d           8.666  27.904   5.298  0.00  0.00    -0.072 A 
ATOM     23  C24 MOL d           9.840  27.904   6.035  0.00  0.00    -0.082 A 
ATOM     24  H13 MOL d           8.260  26.972   4.922  0.00  0.00     0.084 H 
ATOM     25  C25 MOL d          10.358  29.098   6.514  0.00  0.00    -0.083 A 
ATOM     26  H14 MOL d          10.353  26.971   6.237  0.00  0.00     0.083 H 
ATOM     27  C26 MOL d           9.707  30.294   6.261  0.00  0.00    -0.082 A 
ATOM     28  H15 MOL d          11.277  29.095   7.090  0.00  0.00     0.083 H 
ATOM     29  C27 MOL d           8.534  30.294   5.523  0.00  0.00    -0.072 A 
ATOM     30  H16 MOL d          10.114  31.226   6.638  0.00  0.00     0.083 H 
ATOM     31  H17 MOL d           8.024  31.228   5.319  0.00  0.00     0.084 H 
ENDBRANCH  19  21
ENDBRANCH   9  11
ENDBRANCH   5   9
BRANCH   4  32
ATOM     32  N04 MOL d           2.643  32.808   6.845  0.00  0.00    -0.188 N 
ATOM     33  H2  MOL d           2.350  33.532   7.515  0.00  0.00     0.184 HD
BRANCH  32  34
ATOM     34  C16 MOL d           2.302  33.025   5.469  0.00  0.00     0.049 A 
ATOM     35  C17 MOL d           1.138  33.727   5.185  0.00  0.00    -0.056 A 
ATOM     36  C18 MOL d           0.772  33.976   3.872  0.00  0.00    -0.064 A 
ATOM     37  H9  MOL d           0.513  34.084   5.996  0.00  0.00     0.087 H 
ATOM     38  C19 MOL d           1.574  33.522   2.835  0.00  0.00     0.041 A 
ATOM     39  H10 MOL d          -0.139  34.525   3.656  0.00  0.00     0.085 H 
ATOM     40  C20 MOL d           2.744  32.823   3.115  0.00  0.00    -0.064 A 
ATOM     41  C21 MOL d           3.110  32.578   4.433  0.00  0.00    -0.056 A 
ATOM     42  H11 MOL d           3.371  32.469   2.304  0.00  0.00     0.085 H 
ATOM     43  H12 MOL d           4.025  32.039   4.651  0.00  0.00     0.087 H 
BRANCH  38  44
ATOM     44  C22 MOL d           1.174  33.789   1.422  0.00  0.00     0.209 C 
ATOM     45  O28 MOL d           1.974  33.526   0.485  0.00  0.00    -0.644 OA
ATOM     46  O29 MOL d           0.038  34.277   1.166  0.00  0.00    -0.644 OA
ENDBRANCH  38  44
ENDBRANCH  32  34
ENDBRANCH   4  32
TORSDOF 6
ENDMDL
