MODEL 1
REMARK VINA RESULT:      -9.2      0.000      0.000
REMARK  6 active torsions:
REMARK  status: ('A' for Active; 'I' for Inactive)
REMARK    1  A    between atoms: C07_7  and  N03_3 
REMARK    2  A    between atoms: N03_3  and  C09_9 
REMARK    3  A    between atoms: C06_6  and  N04_4 
REMARK    4  A    between atoms: N04_4  and  C16_16 
REMARK    5  A    between atoms: C14_14  and  C15_15 
REMARK    6  A    between atoms: C19_19  and  C22_22 
ROOT
ATOM      1  N01 MOL d           5.651  28.550   1.696  0.00  0.00    -0.075 NA
ATOM      2  N02 MOL d           6.219  30.131   3.329  0.00  0.00    -0.045 NA
ATOM      3  C05 MOL d           6.262  27.579   2.394  0.00  0.00     0.025 A 
ATOM      4  C06 MOL d           5.642  29.802   2.165  0.00  0.00     0.728 A 
ATOM      5  C07 MOL d           6.844  29.187   4.064  0.00  0.00     0.148 A 
ATOM      6  C08 MOL d           6.881  27.872   3.605  0.00  0.00    -0.021 A 
ATOM      7  H3  MOL d           6.273  26.565   2.012  0.00  0.00     0.115 H 
ATOM      8  H4  MOL d           7.379  27.097   4.176  0.00  0.00     0.091 H 
ENDROOT
BRANCH   5   9
ATOM      9  N03 MOL d           7.480  29.508   5.317  0.00  0.00    -0.340 N 
ATOM     10  H1  MOL d           7.736  30.487   5.509  0.00  0.00     0.167 HD
BRANCH   9  11
ATOM     11  C09 MOL d           7.769  28.507   6.307  0.00  0.00     0.044 A 
ATOM     12  C10 MOL d           8.922  27.744   6.199  0.00  0.00    -0.056 A 
ATOM     13  C11 MOL d           9.203  26.773   7.150  0.00  0.00    -0.081 A 
ATOM     14  H5  MOL d           9.605  27.906   5.373  0.00  0.00     0.086 H 
ATOM     15  C12 MOL d           8.338  26.551   8.209  0.00  0.00    -0.082 A 
ATOM     16  H6  MOL d          10.107  26.182   7.062  0.00  0.00     0.083 H 
ATOM     17  C13 MOL d           7.184  27.310   8.315  0.00  0.00    -0.070 A 
ATOM     18  H7  MOL d           8.563  25.791   8.949  0.00  0.00     0.083 H 
ATOM     19  C14 MOL d           6.896  28.284   7.368  0.00  0.00     0.001 A 
ATOM     20  H8  MOL d           6.503  27.142   9.141  0.00  0.00     0.084 H 
BRANCH  19  21
ATOM     21  C15 MOL d           5.645  29.087   7.519  0.00  0.00    -0.024 A 
ATOM     22  C23 MOL d           4.913  29.469   6.404  0.00  0.00    -0.072 A 
ATOM     23  C24 MOL d           3.751  30.208   6.562  0.00  0.00    -0.082 A 
ATOM     24  H13 MOL d           5.248  29.191   5.411  0.00  0.00     0.084 H 
ATOM     25  C25 MOL d           3.322  30.561   7.833  0.00  0.00    -0.083 A 
ATOM     26  H14 MOL d           3.177  30.511   5.693  0.00  0.00     0.083 H 
ATOM     27  C26 MOL d           4.050  30.180   8.948  0.00  0.00    -0.082 A 
ATOM     28  H15 MOL d           2.412  31.139   7.954  0.00  0.00     0.083 H 
ATOM     29  C27 MOL d           5.210  29.440   8.789  0.00  0.00    -0.072 A 
ATOM     30  H16 MOL d           3.713  30.459   9.940  0.00  0.00     0.083 H 
ATOM     31  H17 MOL d           5.781  29.135   9.659  0.00  0.00     0.084 H 
ENDBRANCH  19  21
ENDBRANCH   9  11
ENDBRANCH   5   9
BRANCH   4  32
ATOM     32  N04 MOL d           4.960  30.781   1.364  0.00  0.00    -0.188 N 
ATOM     33  H2  MOL d           5.225  30.833   0.370  0.00  0.00     0.184 HD
BRANCH  32  34
ATOM     34  C16 MOL d           3.948  31.693   1.811  0.00  0.00     0.049 A 
ATOM     35  C17 MOL d           3.219  32.385   0.853  0.00  0.00    -0.056 A 
ATOM     36  C18 MOL d           2.219  33.266   1.233  0.00  0.00    -0.064 A 
ATOM     37  H9  MOL d           3.433  32.234  -0.199  0.00  0.00     0.087 H 
ATOM     38  C19 MOL d           1.945  33.457   2.580  0.00  0.00     0.041 A 
ATOM     39  H10 MOL d           1.654  33.805   0.481  0.00  0.00     0.085 H 
ATOM     40  C20 MOL d           2.668  32.761   3.543  0.00  0.00    -0.064 A 
ATOM     41  C21 MOL d           3.668  31.876   3.158  0.00  0.00    -0.056 A 
ATOM     42  H11 MOL d           2.453  32.910   4.595  0.00  0.00     0.085 H 
ATOM     43  H12 MOL d           4.227  31.329   3.909  0.00  0.00     0.087 H 
BRANCH  38  44
ATOM     44  C22 MOL d           0.870  34.410   2.986  0.00  0.00     0.209 C 
ATOM     45  O28 MOL d           0.514  34.474   4.193  0.00  0.00    -0.644 OA
ATOM     46  O29 MOL d           0.319  35.149   2.122  0.00  0.00    -0.644 OA
ENDBRANCH  38  44
ENDBRANCH  32  34
ENDBRANCH   4  32
TORSDOF 6
ENDMDL
MODEL 2
REMARK VINA RESULT:      -8.7      3.465      7.239
REMARK  6 active torsions:
REMARK  status: ('A' for Active; 'I' for Inactive)
REMARK    1  A    between atoms: C07_7  and  N03_3 
REMARK    2  A    between atoms: N03_3  and  C09_9 
REMARK    3  A    between atoms: C06_6  and  N04_4 
REMARK    4  A    between atoms: N04_4  and  C16_16 
REMARK    5  A    between atoms: C14_14  and  C15_15 
REMARK    6  A    between atoms: C19_19  and  C22_22 
ROOT
ATOM      1  N01 MOL d           6.146  28.250   1.437  0.00  0.00    -0.075 NA
ATOM      2  N02 MOL d           5.969  29.481   3.422  0.00  0.00    -0.045 NA
ATOM      3  C05 MOL d           5.593  29.256   0.740  0.00  0.00     0.025 A 
ATOM      4  C06 MOL d           6.320  28.372   2.757  0.00  0.00     0.728 A 
ATOM      5  C07 MOL d           5.410  30.518   2.762  0.00  0.00     0.148 A 
ATOM      6  C08 MOL d           5.205  30.425   1.386  0.00  0.00    -0.021 A 
ATOM      7  H3  MOL d           5.448  29.156  -0.329  0.00  0.00     0.115 H 
ATOM      8  H4  MOL d           4.757  31.243   0.834  0.00  0.00     0.091 H 
ENDROOT
BRANCH   5   9
ATOM      9  N03 MOL d           5.015  31.722   3.447  0.00  0.00    -0.340 N 
ATOM     10  H1  MOL d           5.681  32.168   4.094  0.00  0.00     0.167 HD
BRANCH   9  11
ATOM     11  C09 MOL d           3.723  32.322   3.259  0.00  0.00     0.044 A 
ATOM     12  C10 MOL d           3.388  32.865   2.027  0.00  0.00    -0.056 A 
ATOM     13  C11 MOL d           2.143  33.449   1.842  0.00  0.00    -0.081 A 
ATOM     14  H5  MOL d           4.098  32.832   1.209  0.00  0.00     0.086 H 
ATOM     15  C12 MOL d           1.226  33.502   2.879  0.00  0.00    -0.082 A 
ATOM     16  H6  MOL d           1.886  33.869   0.876  0.00  0.00     0.083 H 
ATOM     17  C13 MOL d           1.562  32.964   4.111  0.00  0.00    -0.070 A 
ATOM     18  H7  MOL d           0.256  33.960   2.728  0.00  0.00     0.083 H 
ATOM     19  C14 MOL d           2.805  32.376   4.304  0.00  0.00     0.001 A 
ATOM     20  H8  MOL d           0.850  33.002   4.927  0.00  0.00     0.084 H 
BRANCH  19  21
ATOM     21  C15 MOL d           3.129  31.801   5.645  0.00  0.00    -0.024 A 
ATOM     22  C23 MOL d           3.577  30.494   5.763  0.00  0.00    -0.072 A 
ATOM     23  C24 MOL d           3.878  29.979   7.015  0.00  0.00    -0.082 A 
ATOM     24  H13 MOL d           3.691  29.876   4.880  0.00  0.00     0.084 H 
ATOM     25  C25 MOL d           3.733  30.771   8.143  0.00  0.00    -0.083 A 
ATOM     26  H14 MOL d           4.226  28.957   7.111  0.00  0.00     0.083 H 
ATOM     27  C26 MOL d           3.287  32.077   8.029  0.00  0.00    -0.082 A 
ATOM     28  H15 MOL d           3.969  30.365   9.121  0.00  0.00     0.083 H 
ATOM     29  C27 MOL d           2.987  32.592   6.777  0.00  0.00    -0.072 A 
ATOM     30  H16 MOL d           3.172  32.694   8.913  0.00  0.00     0.083 H 
ATOM     31  H17 MOL d           2.642  33.615   6.682  0.00  0.00     0.084 H 
ENDBRANCH  19  21
ENDBRANCH   9  11
ENDBRANCH   5   9
BRANCH   4  32
ATOM     32  N04 MOL d           6.926  27.256   3.429  0.00  0.00    -0.188 N 
ATOM     33  H2  MOL d           7.024  26.386   2.888  0.00  0.00     0.184 HD
BRANCH  32  34
ATOM     34  C16 MOL d           7.408  27.234   4.779  0.00  0.00     0.049 A 
ATOM     35  C17 MOL d           6.543  27.627   5.791  0.00  0.00    -0.056 A 
ATOM     36  C18 MOL d           6.956  27.609   7.114  0.00  0.00    -0.064 A 
ATOM     37  H9  MOL d           5.537  27.950   5.545  0.00  0.00     0.087 H 
ATOM     38  C19 MOL d           8.242  27.194   7.429  0.00  0.00     0.041 A 
ATOM     39  H10 MOL d           6.276  27.919   7.901  0.00  0.00     0.085 H 
ATOM     40  C20 MOL d           9.110  26.794   6.419  0.00  0.00    -0.064 A 
ATOM     41  C21 MOL d           8.692  26.810   5.094  0.00  0.00    -0.056 A 
ATOM     42  H11 MOL d          10.115  26.468   6.665  0.00  0.00     0.085 H 
ATOM     43  H12 MOL d           9.367  26.491   4.307  0.00  0.00     0.087 H 
BRANCH  38  44
ATOM     44  C22 MOL d           8.684  27.180   8.855  0.00  0.00     0.209 C 
ATOM     45  O28 MOL d           8.012  27.798   9.723  0.00  0.00    -0.644 OA
ATOM     46  O29 MOL d           9.727  26.552   9.189  0.00  0.00    -0.644 OA
ENDBRANCH  38  44
ENDBRANCH  32  34
ENDBRANCH   4  32
TORSDOF 6
ENDMDL
MODEL 3
REMARK VINA RESULT:      -8.4      3.728      8.305
REMARK  6 active torsions:
REMARK  status: ('A' for Active; 'I' for Inactive)
REMARK    1  A    between atoms: C07_7  and  N03_3 
REMARK    2  A    between atoms: N03_3  and  C09_9 
REMARK    3  A    between atoms: C06_6  and  N04_4 
REMARK    4  A    between atoms: N04_4  and  C16_16 
REMARK    5  A    between atoms: C14_14  and  C15_15 
REMARK    6  A    between atoms: C19_19  and  C22_22 
ROOT
ATOM      1  N01 MOL d           2.716  31.755   7.278  0.00  0.00    -0.075 NA
ATOM      2  N02 MOL d           3.907  31.322   5.308  0.00  0.00    -0.045 NA
ATOM      3  C05 MOL d           2.262  32.914   6.773  0.00  0.00     0.025 A 
ATOM      4  C06 MOL d           3.528  30.984   6.548  0.00  0.00     0.728 A 
ATOM      5  C07 MOL d           3.475  32.478   4.760  0.00  0.00     0.148 A 
ATOM      6  C08 MOL d           2.632  33.312   5.493  0.00  0.00    -0.021 A 
ATOM      7  H3  MOL d           1.606  33.540   7.366  0.00  0.00     0.115 H 
ATOM      8  H4  MOL d           2.273  34.246   5.075  0.00  0.00     0.091 H 
ENDROOT
BRANCH   5   9
ATOM      9  N03 MOL d           3.868  32.875   3.432  0.00  0.00    -0.340 N 
ATOM     10  H1  MOL d           4.817  33.248   3.283  0.00  0.00     0.167 HD
BRANCH   9  11
ATOM     11  C09 MOL d           2.980  32.768   2.307  0.00  0.00     0.044 A 
ATOM     12  C10 MOL d           1.763  33.433   2.323  0.00  0.00    -0.056 A 
ATOM     13  C11 MOL d           0.900  33.328   1.242  0.00  0.00    -0.081 A 
ATOM     14  H5  MOL d           1.486  34.034   3.181  0.00  0.00     0.086 H 
ATOM     15  C12 MOL d           1.239  32.559   0.140  0.00  0.00    -0.082 A 
ATOM     16  H6  MOL d          -0.048  33.852   1.259  0.00  0.00     0.083 H 
ATOM     17  C13 MOL d           2.453  31.892   0.125  0.00  0.00    -0.070 A 
ATOM     18  H7  MOL d           0.561  32.482  -0.702  0.00  0.00     0.083 H 
ATOM     19  C14 MOL d           3.322  31.992   1.203  0.00  0.00     0.001 A 
ATOM     20  H8  MOL d           2.725  31.288  -0.734  0.00  0.00     0.084 H 
BRANCH  19  21
ATOM     21  C15 MOL d           4.625  31.262   1.147  0.00  0.00    -0.024 A 
ATOM     22  C23 MOL d           5.554  31.550   0.158  0.00  0.00    -0.072 A 
ATOM     23  C24 MOL d           6.760  30.867   0.125  0.00  0.00    -0.082 A 
ATOM     24  H13 MOL d           5.339  32.307  -0.588  0.00  0.00     0.084 H 
ATOM     25  C25 MOL d           7.035  29.900   1.080  0.00  0.00    -0.083 A 
ATOM     26  H14 MOL d           7.488  31.088  -0.648  0.00  0.00     0.083 H 
ATOM     27  C26 MOL d           6.110  29.611   2.070  0.00  0.00    -0.082 A 
ATOM     28  H15 MOL d           7.980  29.367   1.052  0.00  0.00     0.083 H 
ATOM     29  C27 MOL d           4.905  30.295   2.103  0.00  0.00    -0.072 A 
ATOM     30  H16 MOL d           6.327  28.853   2.814  0.00  0.00     0.083 H 
ATOM     31  H17 MOL d           4.180  30.075   2.878  0.00  0.00     0.084 H 
ENDBRANCH  19  21
ENDBRANCH   9  11
ENDBRANCH   5   9
BRANCH   4  32
ATOM     32  N04 MOL d           3.963  29.757   7.155  0.00  0.00    -0.188 N 
ATOM     33  H2  MOL d           3.240  29.183   7.612  0.00  0.00     0.184 HD
BRANCH  32  34
ATOM     34  C16 MOL d           5.304  29.251   7.188  0.00  0.00     0.049 A 
ATOM     35  C17 MOL d           6.057  29.312   6.022  0.00  0.00    -0.056 A 
ATOM     36  C18 MOL d           7.364  28.850   6.006  0.00  0.00    -0.064 A 
ATOM     37  H9  MOL d           5.620  29.725   5.120  0.00  0.00     0.087 H 
ATOM     38  C19 MOL d           7.923  28.325   7.162  0.00  0.00     0.041 A 
ATOM     39  H10 MOL d           7.947  28.900   5.093  0.00  0.00     0.085 H 
ATOM     40  C20 MOL d           7.175  28.267   8.333  0.00  0.00    -0.064 A 
ATOM     41  C21 MOL d           5.867  28.734   8.347  0.00  0.00    -0.056 A 
ATOM     42  H11 MOL d           7.613  27.857   9.236  0.00  0.00     0.085 H 
ATOM     43  H12 MOL d           5.286  28.694   9.262  0.00  0.00     0.087 H 
BRANCH  38  44
ATOM     44  C22 MOL d           9.330  27.825   7.139  0.00  0.00     0.209 C 
ATOM     45  O28 MOL d           9.748  27.092   8.074  0.00  0.00    -0.644 OA
ATOM     46  O29 MOL d          10.097  28.136   6.185  0.00  0.00    -0.644 OA
ENDBRANCH  38  44
ENDBRANCH  32  34
ENDBRANCH   4  32
TORSDOF 6
ENDMDL
MODEL 4
REMARK VINA RESULT:      -8.3      3.788      8.269
REMARK  6 active torsions:
REMARK  status: ('A' for Active; 'I' for Inactive)
REMARK    1  A    between atoms: C07_7  and  N03_3 
REMARK    2  A    between atoms: N03_3  and  C09_9 
REMARK    3  A    between atoms: C06_6  and  N04_4 
REMARK    4  A    between atoms: N04_4  and  C16_16 
REMARK    5  A    between atoms: C14_14  and  C15_15 
REMARK    6  A    between atoms: C19_19  and  C22_22 
ROOT
ATOM      1  N01 MOL d           3.203  31.914   7.076  0.00  0.00    -0.075 NA
ATOM      2  N02 MOL d           3.739  30.475   5.307  0.00  0.00    -0.045 NA
ATOM      3  C05 MOL d           2.661  32.796   6.221  0.00  0.00     0.025 A 
ATOM      4  C06 MOL d           3.735  30.778   6.613  0.00  0.00     0.728 A 
ATOM      5  C07 MOL d           3.205  31.331   4.412  0.00  0.00     0.148 A 
ATOM      6  C08 MOL d           2.647  32.529   4.856  0.00  0.00    -0.021 A 
ATOM      7  H3  MOL d           2.232  33.718   6.596  0.00  0.00     0.115 H 
ATOM      8  H4  MOL d           2.213  33.234   4.156  0.00  0.00     0.091 H 
ENDROOT
BRANCH   5   9
ATOM      9  N03 MOL d           3.198  31.039   3.001  0.00  0.00    -0.340 N 
ATOM     10  H1  MOL d           2.817  30.137   2.681  0.00  0.00     0.167 HD
BRANCH   9  11
ATOM     11  C09 MOL d           3.706  31.963   2.025  0.00  0.00     0.044 A 
ATOM     12  C10 MOL d           3.130  33.219   1.899  0.00  0.00    -0.056 A 
ATOM     13  C11 MOL d           3.614  34.112   0.955  0.00  0.00    -0.081 A 
ATOM     14  H5  MOL d           2.303  33.502   2.540  0.00  0.00     0.086 H 
ATOM     15  C12 MOL d           4.669  33.764   0.127  0.00  0.00    -0.082 A 
ATOM     16  H6  MOL d           3.162  35.094   0.864  0.00  0.00     0.083 H 
ATOM     17  C13 MOL d           5.241  32.508   0.249  0.00  0.00    -0.070 A 
ATOM     18  H7  MOL d           5.042  34.467  -0.609  0.00  0.00     0.083 H 
ATOM     19  C14 MOL d           4.764  31.608   1.192  0.00  0.00     0.001 A 
ATOM     20  H8  MOL d           6.066  32.227  -0.395  0.00  0.00     0.084 H 
BRANCH  19  21
ATOM     21  C15 MOL d           5.411  30.265   1.298  0.00  0.00    -0.024 A 
ATOM     22  C23 MOL d           6.015  29.864   2.481  0.00  0.00    -0.072 A 
ATOM     23  C24 MOL d           6.606  28.612   2.562  0.00  0.00    -0.082 A 
ATOM     24  H13 MOL d           6.026  30.526   3.338  0.00  0.00     0.084 H 
ATOM     25  C25 MOL d           6.590  27.765   1.465  0.00  0.00    -0.083 A 
ATOM     26  H14 MOL d           7.081  28.296   3.484  0.00  0.00     0.083 H 
ATOM     27  C26 MOL d           5.986  28.162   0.283  0.00  0.00    -0.082 A 
ATOM     28  H15 MOL d           7.052  26.786   1.532  0.00  0.00     0.083 H 
ATOM     29  C27 MOL d           5.394  29.413   0.202  0.00  0.00    -0.072 A 
ATOM     30  H16 MOL d           5.976  27.499  -0.574  0.00  0.00     0.083 H 
ATOM     31  H17 MOL d           4.917  29.727  -0.719  0.00  0.00     0.084 H 
ENDBRANCH  19  21
ENDBRANCH   9  11
ENDBRANCH   5   9
BRANCH   4  32
ATOM     32  N04 MOL d           4.287  29.883   7.592  0.00  0.00    -0.188 N 
ATOM     33  H2  MOL d           3.751  29.760   8.462  0.00  0.00     0.184 HD
BRANCH  32  34
ATOM     34  C16 MOL d           5.510  29.145   7.477  0.00  0.00     0.049 A 
ATOM     35  C17 MOL d           6.240  28.900   8.633  0.00  0.00    -0.056 A 
ATOM     36  C18 MOL d           7.421  28.178   8.577  0.00  0.00    -0.064 A 
ATOM     37  H9  MOL d           5.882  29.275   9.585  0.00  0.00     0.087 H 
ATOM     38  C19 MOL d           7.877  27.695   7.358  0.00  0.00     0.041 A 
ATOM     39  H10 MOL d           7.988  27.990   9.483  0.00  0.00     0.085 H 
ATOM     40  C20 MOL d           7.147  27.933   6.199  0.00  0.00    -0.064 A 
ATOM     41  C21 MOL d           5.961  28.655   6.259  0.00  0.00    -0.056 A 
ATOM     42  H11 MOL d           7.503  27.555   5.247  0.00  0.00     0.085 H 
ATOM     43  H12 MOL d           5.389  28.835   5.356  0.00  0.00     0.087 H 
BRANCH  38  44
ATOM     44  C22 MOL d           9.152  26.921   7.303  0.00  0.00     0.209 C 
ATOM     45  O28 MOL d           9.644  26.606   6.186  0.00  0.00    -0.644 OA
ATOM     46  O29 MOL d           9.736  26.583   8.370  0.00  0.00    -0.644 OA
ENDBRANCH  38  44
ENDBRANCH  32  34
ENDBRANCH   4  32
TORSDOF 6
ENDMDL
MODEL 5
REMARK VINA RESULT:      -8.1      3.683      7.472
REMARK  6 active torsions:
REMARK  status: ('A' for Active; 'I' for Inactive)
REMARK    1  A    between atoms: C07_7  and  N03_3 
REMARK    2  A    between atoms: N03_3  and  C09_9 
REMARK    3  A    between atoms: C06_6  and  N04_4 
REMARK    4  A    between atoms: N04_4  and  C16_16 
REMARK    5  A    between atoms: C14_14  and  C15_15 
REMARK    6  A    between atoms: C19_19  and  C22_22 
ROOT
ATOM      1  N01 MOL d           5.433  28.915   8.671  0.00  0.00    -0.075 NA
ATOM      2  N02 MOL d           5.198  29.421   6.395  0.00  0.00    -0.045 NA
ATOM      3  C05 MOL d           4.372  29.682   8.971  0.00  0.00     0.025 A 
ATOM      4  C06 MOL d           5.832  28.800   7.400  0.00  0.00     0.728 A 
ATOM      5  C07 MOL d           4.126  30.201   6.650  0.00  0.00     0.148 A 
ATOM      6  C08 MOL d           3.684  30.351   7.964  0.00  0.00    -0.021 A 
ATOM      7  H3  MOL d           4.049  29.778  10.001  0.00  0.00     0.115 H 
ATOM      8  H4  MOL d           2.827  30.974   8.194  0.00  0.00     0.091 H 
ENDROOT
BRANCH   5   9
ATOM      9  N03 MOL d           3.426  30.887   5.595  0.00  0.00    -0.340 N 
ATOM     10  H1  MOL d           2.561  31.398   5.822  0.00  0.00     0.167 HD
BRANCH   9  11
ATOM     11  C09 MOL d           3.894  30.883   4.236  0.00  0.00     0.044 A 
ATOM     12  C10 MOL d           4.821  29.935   3.829  0.00  0.00    -0.056 A 
ATOM     13  C11 MOL d           5.280  29.931   2.520  0.00  0.00    -0.081 A 
ATOM     14  H5  MOL d           5.187  29.197   4.534  0.00  0.00     0.086 H 
ATOM     15  C12 MOL d           4.824  30.869   1.609  0.00  0.00    -0.082 A 
ATOM     16  H6  MOL d           6.002  29.185   2.207  0.00  0.00     0.083 H 
ATOM     17  C13 MOL d           3.901  31.819   2.016  0.00  0.00    -0.070 A 
ATOM     18  H7  MOL d           5.187  30.860   0.587  0.00  0.00     0.083 H 
ATOM     19  C14 MOL d           3.437  31.830   3.324  0.00  0.00     0.001 A 
ATOM     20  H8  MOL d           3.541  32.557   1.309  0.00  0.00     0.084 H 
BRANCH  19  21
ATOM     21  C15 MOL d           2.437  32.866   3.724  0.00  0.00    -0.024 A 
ATOM     22  C23 MOL d           1.964  32.925   5.027  0.00  0.00    -0.072 A 
ATOM     23  C24 MOL d           1.041  33.897   5.382  0.00  0.00    -0.082 A 
ATOM     24  H13 MOL d           2.314  32.213   5.766  0.00  0.00     0.084 H 
ATOM     25  C25 MOL d           0.596  34.808   4.437  0.00  0.00    -0.083 A 
ATOM     26  H14 MOL d           0.668  33.944   6.399  0.00  0.00     0.083 H 
ATOM     27  C26 MOL d           1.068  34.753   3.135  0.00  0.00    -0.082 A 
ATOM     28  H15 MOL d          -0.126  35.568   4.717  0.00  0.00     0.083 H 
ATOM     29  C27 MOL d           1.991  33.782   2.781  0.00  0.00    -0.072 A 
ATOM     30  H16 MOL d           0.717  35.466   2.398  0.00  0.00     0.083 H 
ATOM     31  H17 MOL d           2.366  33.738   1.765  0.00  0.00     0.084 H 
ENDBRANCH  19  21
ENDBRANCH   9  11
ENDBRANCH   5   9
BRANCH   4  32
ATOM     32  N04 MOL d           6.969  27.955   7.160  0.00  0.00    -0.188 N 
ATOM     33  H2  MOL d           7.282  27.365   7.943  0.00  0.00     0.184 HD
BRANCH  32  34
ATOM     34  C16 MOL d           7.711  27.853   5.938  0.00  0.00     0.049 A 
ATOM     35  C17 MOL d           8.646  28.839   5.653  0.00  0.00    -0.056 A 
ATOM     36  C18 MOL d           9.400  28.777   4.492  0.00  0.00    -0.064 A 
ATOM     37  H9  MOL d           8.788  29.662   6.345  0.00  0.00     0.087 H 
ATOM     38  C19 MOL d           9.220  27.721   3.609  0.00  0.00     0.041 A 
ATOM     39  H10 MOL d          10.128  29.550   4.274  0.00  0.00     0.085 H 
ATOM     40  C20 MOL d           8.288  26.728   3.893  0.00  0.00    -0.064 A 
ATOM     41  C21 MOL d           7.537  26.791   5.059  0.00  0.00    -0.056 A 
ATOM     42  H11 MOL d           8.149  25.904   3.203  0.00  0.00     0.085 H 
ATOM     43  H12 MOL d           6.815  26.014   5.284  0.00  0.00     0.087 H 
BRANCH  38  44
ATOM     44  C22 MOL d          10.031  27.661   2.357  0.00  0.00     0.209 C 
ATOM     45  O28 MOL d          10.459  26.551   1.943  0.00  0.00    -0.644 OA
ATOM     46  O29 MOL d          10.288  28.718   1.716  0.00  0.00    -0.644 OA
ENDBRANCH  38  44
ENDBRANCH  32  34
ENDBRANCH   4  32
TORSDOF 6
ENDMDL
MODEL 6
REMARK VINA RESULT:      -7.9      3.677      6.026
REMARK  6 active torsions:
REMARK  status: ('A' for Active; 'I' for Inactive)
REMARK    1  A    between atoms: C07_7  and  N03_3 
REMARK    2  A    between atoms: N03_3  and  C09_9 
REMARK    3  A    between atoms: C06_6  and  N04_4 
REMARK    4  A    between atoms: N04_4  and  C16_16 
REMARK    5  A    between atoms: C14_14  and  C15_15 
REMARK    6  A    between atoms: C19_19  and  C22_22 
ROOT
ATOM      1  N01 MOL d           3.590  32.688   2.751  0.00  0.00    -0.075 NA
ATOM      2  N02 MOL d           3.993  30.523   3.550  0.00  0.00    -0.045 NA
ATOM      3  C05 MOL d           3.075  33.051   3.937  0.00  0.00     0.025 A 
ATOM      4  C06 MOL d           4.034  31.439   2.573  0.00  0.00     0.728 A 
ATOM      5  C07 MOL d           3.485  30.843   4.758  0.00  0.00     0.148 A 
ATOM      6  C08 MOL d           3.006  32.133   4.981  0.00  0.00    -0.021 A 
ATOM      7  H3  MOL d           2.713  34.062   4.082  0.00  0.00     0.115 H 
ATOM      8  H4  MOL d           2.591  32.415   5.942  0.00  0.00     0.091 H 
ENDROOT
BRANCH   5   9
ATOM      9  N03 MOL d           3.421  29.880   5.828  0.00  0.00    -0.340 N 
ATOM     10  H1  MOL d           3.205  28.899   5.602  0.00  0.00     0.167 HD
BRANCH   9  11
ATOM     11  C09 MOL d           3.647  30.244   7.199  0.00  0.00     0.044 A 
ATOM     12  C10 MOL d           2.798  31.145   7.824  0.00  0.00    -0.056 A 
ATOM     13  C11 MOL d           3.016  31.503   9.146  0.00  0.00    -0.081 A 
ATOM     14  H5  MOL d           1.963  31.570   7.278  0.00  0.00     0.086 H 
ATOM     15  C12 MOL d           4.081  30.972   9.855  0.00  0.00    -0.082 A 
ATOM     16  H6  MOL d           2.347  32.206   9.629  0.00  0.00     0.083 H 
ATOM     17  C13 MOL d           4.933  30.074   9.231  0.00  0.00    -0.070 A 
ATOM     18  H7  MOL d           4.246  31.255  10.888  0.00  0.00     0.083 H 
ATOM     19  C14 MOL d           4.721  29.710   7.908  0.00  0.00     0.001 A 
ATOM     20  H8  MOL d           5.768  29.655   9.779  0.00  0.00     0.084 H 
BRANCH  19  21
ATOM     21  C15 MOL d           5.657  28.736   7.271  0.00  0.00    -0.024 A 
ATOM     22  C23 MOL d           5.786  27.449   7.773  0.00  0.00    -0.072 A 
ATOM     23  C24 MOL d           6.655  26.556   7.166  0.00  0.00    -0.082 A 
ATOM     24  H13 MOL d           5.209  27.142   8.638  0.00  0.00     0.084 H 
ATOM     25  C25 MOL d           7.392  26.949   6.059  0.00  0.00    -0.083 A 
ATOM     26  H14 MOL d           6.760  25.550   7.556  0.00  0.00     0.083 H 
ATOM     27  C26 MOL d           7.264  28.233   5.554  0.00  0.00    -0.082 A 
ATOM     28  H15 MOL d           8.071  26.248   5.585  0.00  0.00     0.083 H 
ATOM     29  C27 MOL d           6.394  29.125   6.161  0.00  0.00    -0.072 A 
ATOM     30  H16 MOL d           7.843  28.539   4.690  0.00  0.00     0.083 H 
ATOM     31  H17 MOL d           6.288  30.129   5.767  0.00  0.00     0.084 H 
ENDBRANCH  19  21
ENDBRANCH   9  11
ENDBRANCH   5   9
BRANCH   4  32
ATOM     32  N04 MOL d           4.578  31.132   1.279  0.00  0.00    -0.188 N 
ATOM     33  H2  MOL d           4.079  31.513   0.463  0.00  0.00     0.184 HD
BRANCH  32  34
ATOM     34  C16 MOL d           5.747  30.346   1.011  0.00  0.00     0.049 A 
ATOM     35  C17 MOL d           5.730  29.004   1.366  0.00  0.00    -0.056 A 
ATOM     36  C18 MOL d           6.830  28.198   1.115  0.00  0.00    -0.064 A 
ATOM     37  H9  MOL d           4.852  28.583   1.843  0.00  0.00     0.087 H 
ATOM     38  C19 MOL d           7.953  28.737   0.503  0.00  0.00     0.041 A 
ATOM     39  H10 MOL d           6.812  27.150   1.395  0.00  0.00     0.085 H 
ATOM     40  C20 MOL d           7.971  30.079   0.140  0.00  0.00    -0.064 A 
ATOM     41  C21 MOL d           6.866  30.883   0.390  0.00  0.00    -0.056 A 
ATOM     42  H11 MOL d           8.848  30.499  -0.339  0.00  0.00     0.085 H 
ATOM     43  H12 MOL d           6.878  31.928   0.102  0.00  0.00     0.087 H 
BRANCH  38  44
ATOM     44  C22 MOL d           9.136  27.866   0.237  0.00  0.00     0.209 C 
ATOM     45  O28 MOL d           8.983  26.620   0.127  0.00  0.00    -0.644 OA
ATOM     46  O29 MOL d          10.286  28.375   0.125  0.00  0.00    -0.644 OA
ENDBRANCH  38  44
ENDBRANCH  32  34
ENDBRANCH   4  32
TORSDOF 6
ENDMDL
MODEL 7
REMARK VINA RESULT:      -7.3      3.925      6.415
REMARK  6 active torsions:
REMARK  status: ('A' for Active; 'I' for Inactive)
REMARK    1  A    between atoms: C07_7  and  N03_3 
REMARK    2  A    between atoms: N03_3  and  C09_9 
REMARK    3  A    between atoms: C06_6  and  N04_4 
REMARK    4  A    between atoms: N04_4  and  C16_16 
REMARK    5  A    between atoms: C14_14  and  C15_15 
REMARK    6  A    between atoms: C19_19  and  C22_22 
ROOT
ATOM      1  N01 MOL d           3.870  33.719   0.906  0.00  0.00    -0.075 NA
ATOM      2  N02 MOL d           4.147  31.668   2.003  0.00  0.00    -0.045 NA
ATOM      3  C05 MOL d           2.866  34.049   1.734  0.00  0.00     0.025 A 
ATOM      4  C06 MOL d           4.488  32.542   1.046  0.00  0.00     0.728 A 
ATOM      5  C07 MOL d           3.145  31.958   2.859  0.00  0.00     0.148 A 
ATOM      6  C08 MOL d           2.472  33.173   2.740  0.00  0.00    -0.021 A 
ATOM      7  H3  MOL d           2.362  35.002   1.619  0.00  0.00     0.115 H 
ATOM      8  H4  MOL d           1.662  33.429   3.414  0.00  0.00     0.091 H 
ENDROOT
BRANCH   5   9
ATOM      9  N03 MOL d           2.749  31.039   3.896  0.00  0.00    -0.340 N 
ATOM     10  H1  MOL d           2.202  30.205   3.639  0.00  0.00     0.167 HD
BRANCH   9  11
ATOM     11  C09 MOL d           3.092  31.247   5.276  0.00  0.00     0.044 A 
ATOM     12  C10 MOL d           2.315  32.086   6.061  0.00  0.00    -0.056 A 
ATOM     13  C11 MOL d           2.646  32.294   7.392  0.00  0.00    -0.081 A 
ATOM     14  H5  MOL d           1.449  32.578   5.634  0.00  0.00     0.086 H 
ATOM     15  C12 MOL d           3.752  31.674   7.950  0.00  0.00    -0.082 A 
ATOM     16  H6  MOL d           2.032  32.948   8.001  0.00  0.00     0.083 H 
ATOM     17  C13 MOL d           4.532  30.840   7.165  0.00  0.00    -0.070 A 
ATOM     18  H7  MOL d           4.005  31.841   8.991  0.00  0.00     0.083 H 
ATOM     19  C14 MOL d           4.207  30.626   5.832  0.00  0.00     0.001 A 
ATOM     20  H8  MOL d           5.399  30.352   7.594  0.00  0.00     0.084 H 
BRANCH  19  21
ATOM     21  C15 MOL d           5.069  29.715   5.019  0.00  0.00    -0.024 A 
ATOM     22  C23 MOL d           4.501  28.736   4.217  0.00  0.00    -0.072 A 
ATOM     23  C24 MOL d           5.315  27.903   3.465  0.00  0.00    -0.082 A 
ATOM     24  H13 MOL d           3.423  28.621   4.178  0.00  0.00     0.084 H 
ATOM     25  C25 MOL d           6.693  28.052   3.514  0.00  0.00    -0.083 A 
ATOM     26  H14 MOL d           4.875  27.136   2.839  0.00  0.00     0.083 H 
ATOM     27  C26 MOL d           7.263  29.030   4.313  0.00  0.00    -0.082 A 
ATOM     28  H15 MOL d           7.327  27.400   2.924  0.00  0.00     0.083 H 
ATOM     29  C27 MOL d           6.448  29.863   5.063  0.00  0.00    -0.072 A 
ATOM     30  H16 MOL d           8.340  29.143   4.351  0.00  0.00     0.083 H 
ATOM     31  H17 MOL d           6.889  30.632   5.687  0.00  0.00     0.084 H 
ENDBRANCH  19  21
ENDBRANCH   9  11
ENDBRANCH   5   9
BRANCH   4  32
ATOM     32  N04 MOL d           5.557  32.266   0.126  0.00  0.00    -0.188 N 
ATOM     33  H2  MOL d           5.697  32.942  -0.638  0.00  0.00     0.184 HD
BRANCH  32  34
ATOM     34  C16 MOL d           6.447  31.143   0.167  0.00  0.00     0.049 A 
ATOM     35  C17 MOL d           5.897  29.868   0.125  0.00  0.00    -0.056 A 
ATOM     36  C18 MOL d           6.716  28.750   0.146  0.00  0.00    -0.064 A 
ATOM     37  H9  MOL d           4.821  29.747   0.074  0.00  0.00     0.087 H 
ATOM     38  C19 MOL d           8.094  28.906   0.207  0.00  0.00     0.041 A 
ATOM     39  H10 MOL d           6.282  27.757   0.114  0.00  0.00     0.085 H 
ATOM     40  C20 MOL d           8.649  30.181   0.243  0.00  0.00    -0.064 A 
ATOM     41  C21 MOL d           7.825  31.300   0.219  0.00  0.00    -0.056 A 
ATOM     42  H11 MOL d           9.725  30.302   0.291  0.00  0.00     0.085 H 
ATOM     43  H12 MOL d           8.258  32.293   0.240  0.00  0.00     0.087 H 
BRANCH  38  44
ATOM     44  C22 MOL d           8.972  27.699   0.234  0.00  0.00     0.209 C 
ATOM     45  O28 MOL d           8.459  26.552   0.144  0.00  0.00    -0.644 OA
ATOM     46  O29 MOL d          10.223  27.827   0.346  0.00  0.00    -0.644 OA
ENDBRANCH  38  44
ENDBRANCH  32  34
ENDBRANCH   4  32
TORSDOF 6
ENDMDL
