MODEL 1
REMARK VINA RESULT:      -9.5      0.000      0.000
REMARK  18 active torsions:
REMARK  status: ('A' for Active; 'I' for Inactive)
REMARK    1  A    between atoms: CBB_7  and  CBP_6 
REMARK    2  A    between atoms: OBJ_8  and  CBB_7 
REMARK    3  A    between atoms: CBM_9  and  OBJ_8 
REMARK       I    between atoms: NBI_11  and  CBM_9 
REMARK    4  A    between atoms: CBX_12  and  NBI_11 
REMARK    5  A    between atoms: CBX_12  and  CBE_13 
REMARK    6  A    between atoms: PBY_20  and  CBX_12 
REMARK    7  A    between atoms: CBE_13  and  CBQ_14 
REMARK    8  A    between atoms: CBF_36  and  PBY_20 
REMARK    9  A    between atoms: N_23  and  CA_24 
REMARK       I    between atoms: CBN_38  and  N_23 
REMARK   10  A    between atoms: CA_24  and  C_25 
REMARK   11  A    between atoms: CA_24  and  CB_28 
REMARK   12  A    between atoms: CB_28  and  CG_29 
REMARK   13  A    between atoms: CZ_32  and  OH_33 
REMARK   14  A    between atoms: CBV_37  and  CBF_36 
REMARK   15  A    between atoms: CBV_37  and  CBN_38 
REMARK   16  A    between atoms: CBV_37  and  CBC_40 
REMARK   17  A    between atoms: CBC_40  and  CBS_41 
REMARK   18  A    between atoms: CBU_45  and  CBT_46 
ROOT
ATOM      1  CBV MOL d          15.051  -5.009 -22.591  0.00  0.00     0.038 C 
ATOM      2  H28 MOL d          15.836  -4.326 -22.948  0.00  0.00     0.056 H 
ENDROOT
BRANCH   1   3
ATOM      3  CBF MOL d          15.490  -6.443 -22.961  0.00  0.00     0.021 C 
ATOM      4  H26 MOL d          15.933  -6.909 -22.069  0.00  0.00     0.050 H 
ATOM      5  H27 MOL d          14.597  -7.009 -23.267  0.00  0.00     0.050 H 
BRANCH   3   6
ATOM      6  PBY MOL d          16.704  -6.523 -24.310  0.00  0.00     0.130 P 
ATOM      7  OAG MOL d          16.277  -5.371 -25.315  0.00  0.00    -0.666 OA
ATOM      8  OAD MOL d          18.120  -6.460 -23.874  0.00  0.00    -0.666 OA
BRANCH   6   9
ATOM      9  CBX MOL d          16.428  -8.068 -25.267  0.00  0.00     0.093 C 
ATOM     10  H9  MOL d          17.397  -8.557 -25.441  0.00  0.00     0.089 H 
BRANCH   9  11
ATOM     11  NBI MOL d          15.571  -8.945 -24.463  0.00  0.00    -0.322 N 
ATOM     12  CBM MOL d          15.836 -10.225 -24.206  0.00  0.00     0.361 C 
ATOM     13  OAB MOL d          16.832 -10.825 -24.623  0.00  0.00    -0.238 OA
ATOM     14  H8  MOL d          14.732  -8.556 -24.082  0.00  0.00     0.165 HD
BRANCH  12  15
ATOM     15  OBJ MOL d          14.888 -10.846 -23.452  0.00  0.00    -0.299 OA
BRANCH  15  16
ATOM     16  CBB MOL d          13.887 -11.701 -24.036  0.00  0.00     0.054 C 
ATOM     17  H6  MOL d          14.297 -12.720 -24.095  0.00  0.00     0.082 H 
ATOM     18  H7  MOL d          13.007 -11.698 -23.376  0.00  0.00     0.082 H 
BRANCH  16  19
ATOM     19  CBP MOL d          13.472 -11.320 -25.322  0.00  0.00    -0.034 A 
ATOM     20  CAQ MOL d          12.545 -10.282 -25.463  0.00  0.00    -0.075 A 
ATOM     21  CAK MOL d          12.132  -9.873 -26.735  0.00  0.00    -0.082 A 
ATOM     22  H1  MOL d          12.146  -9.792 -24.583  0.00  0.00     0.084 H 
ATOM     23  CAH MOL d          12.644 -10.498 -27.869  0.00  0.00    -0.083 A 
ATOM     24  H2  MOL d          11.413  -9.068 -26.838  0.00  0.00     0.083 H 
ATOM     25  CAL MOL d          13.572 -11.528 -27.728  0.00  0.00    -0.082 A 
ATOM     26  H3  MOL d          12.322 -10.185 -28.856  0.00  0.00     0.083 H 
ATOM     27  CAR MOL d          13.989 -11.938 -26.459  0.00  0.00    -0.075 A 
ATOM     28  H4  MOL d          13.973 -12.014 -28.610  0.00  0.00     0.083 H 
ATOM     29  H5  MOL d          14.714 -12.737 -26.359  0.00  0.00     0.084 H 
ENDBRANCH  16  19
ENDBRANCH  15  16
ENDBRANCH  12  15
ENDBRANCH   9  11
BRANCH   9  30
ATOM     30  CBE MOL d          15.755  -7.816 -26.624  0.00  0.00    -0.013 C 
ATOM     31  H10 MOL d          15.517  -6.745 -26.713  0.00  0.00     0.044 H 
ATOM     32  H11 MOL d          14.827  -8.403 -26.679  0.00  0.00     0.044 H 
BRANCH  30  33
ATOM     33  CBQ MOL d          16.679  -8.224 -27.787  0.00  0.00    -0.056 A 
ATOM     34  CAS MOL d          16.325  -9.293 -28.614  0.00  0.00    -0.077 A 
ATOM     35  CAM MOL d          17.158  -9.663 -29.672  0.00  0.00    -0.082 A 
ATOM     36  H12 MOL d          15.403  -9.834 -28.436  0.00  0.00     0.084 H 
ATOM     37  CAI MOL d          18.343  -8.964 -29.908  0.00  0.00    -0.083 A 
ATOM     38  H13 MOL d          16.885 -10.494 -30.312  0.00  0.00     0.083 H 
ATOM     39  CAN MOL d          18.696  -7.889 -29.088  0.00  0.00    -0.082 A 
ATOM     40  H14 MOL d          18.990  -9.255 -30.727  0.00  0.00     0.083 H 
ATOM     41  CAT MOL d          17.864  -7.523 -28.027  0.00  0.00    -0.077 A 
ATOM     42  H15 MOL d          19.613  -7.341 -29.274  0.00  0.00     0.083 H 
ATOM     43  H16 MOL d          18.137  -6.692 -27.387  0.00  0.00     0.084 H 
ENDBRANCH  30  33
ENDBRANCH   9  30
ENDBRANCH   6   9
ENDBRANCH   3   6
ENDBRANCH   1   3
BRANCH   1  44
ATOM     44  CBN MOL d          13.750  -4.633 -23.326  0.00  0.00     0.223 C 
ATOM     45  N   MOL d          13.801  -4.663 -24.660  0.00  0.00    -0.346 N 
ATOM     46  H17 MOL d          14.679  -4.824 -25.111  0.00  0.00     0.163 HD
ATOM     47  OAC MOL d          12.732  -4.356 -22.691  0.00  0.00    -0.273 OA
BRANCH  45  48
ATOM     48  CA  MOL d          12.599  -4.466 -25.483  0.00  0.00     0.100 C 
ATOM     49  H18 MOL d          11.832  -3.967 -24.871  0.00  0.00     0.090 H 
BRANCH  48  50
ATOM     50  C   MOL d          12.086  -5.864 -25.891  0.00  0.00     0.197 C 
ATOM     51  OXT MOL d          12.665  -6.839 -25.379  0.00  0.00    -0.646 OA
ATOM     52  O   MOL d          11.093  -5.946 -26.646  0.00  0.00    -0.646 OA
ENDBRANCH  48  50
BRANCH  48  53
ATOM     53  CB  MOL d          12.861  -3.593 -26.717  0.00  0.00    -0.013 C 
ATOM     54  H19 MOL d          12.757  -2.542 -26.410  0.00  0.00     0.043 H 
ATOM     55  H20 MOL d          12.090  -3.834 -27.464  0.00  0.00     0.043 H 
BRANCH  53  56
ATOM     56  CG  MOL d          14.227  -3.746 -27.395  0.00  0.00    -0.056 A 
ATOM     57  CD1 MOL d          14.437  -4.767 -28.321  0.00  0.00    -0.074 A 
ATOM     58  CE1 MOL d          15.680  -4.898 -28.950  0.00  0.00    -0.051 A 
ATOM     59  H21 MOL d          13.636  -5.461 -28.553  0.00  0.00     0.084 H 
ATOM     60  CZ  MOL d          16.705  -3.995 -28.658  0.00  0.00     0.065 A 
ATOM     61  H22 MOL d          15.847  -5.699 -29.661  0.00  0.00     0.087 H 
ATOM     62  CE2 MOL d          16.493  -2.968 -27.740  0.00  0.00    -0.051 A 
ATOM     63  CD2 MOL d          15.255  -2.842 -27.108  0.00  0.00    -0.074 A 
ATOM     64  H24 MOL d          17.289  -2.267 -27.517  0.00  0.00     0.087 H 
ATOM     65  H25 MOL d          15.091  -2.043 -26.394  0.00  0.00     0.084 H 
BRANCH  60  66
ATOM     66  OH  MOL d          17.919  -4.105 -29.273  0.00  0.00    -0.361 OA
ATOM     67  H23 MOL d          18.186  -3.254 -29.598  0.00  0.00     0.217 HD
ENDBRANCH  60  66
ENDBRANCH  53  56
ENDBRANCH  48  53
ENDBRANCH  45  48
ENDBRANCH   1  44
BRANCH   1  68
ATOM     68  CBC MOL d          14.945  -4.813 -21.069  0.00  0.00    -0.006 C 
ATOM     69  H29 MOL d          15.788  -5.344 -20.602  0.00  0.00     0.044 H 
ATOM     70  H30 MOL d          13.999  -5.264 -20.737  0.00  0.00     0.044 H 
BRANCH  68  71
ATOM     71  CBS MOL d          14.972  -3.354 -20.569  0.00  0.00     0.082 A 
ATOM     72  CBA MOL d          15.428  -2.795 -19.443  0.00  0.00    -0.021 A 
ATOM     73  CBU MOL d          15.229  -1.463 -19.495  0.00  0.00     0.097 A 
ATOM     74  H31 MOL d          15.887  -3.331 -18.615  0.00  0.00     0.091 H 
ATOM     75  NBG MOL d          14.642  -1.169 -20.649  0.00  0.00    -0.128 NA
ATOM     76  OBK MOL d          14.467  -2.367 -21.354  0.00  0.00    -0.217 OA
BRANCH  73  77
ATOM     77  CBT MOL d          15.550  -0.507 -18.527  0.00  0.00    -0.005 A 
ATOM     78  CAU MOL d          14.875   0.709 -18.465  0.00  0.00    -0.071 A 
ATOM     79  CAO MOL d          15.211   1.662 -17.502  0.00  0.00    -0.082 A 
ATOM     80  H32 MOL d          14.079   0.918 -19.171  0.00  0.00     0.084 H 
ATOM     81  CAJ MOL d          16.230   1.406 -16.589  0.00  0.00    -0.083 A 
ATOM     82  H33 MOL d          14.676   2.603 -17.465  0.00  0.00     0.083 H 
ATOM     83  CAP MOL d          16.915   0.188 -16.646  0.00  0.00    -0.082 A 
ATOM     84  H34 MOL d          16.491   2.145 -15.840  0.00  0.00     0.083 H 
ATOM     85  CAV MOL d          16.580  -0.759 -17.618  0.00  0.00    -0.071 A 
ATOM     86  H35 MOL d          17.706  -0.021 -15.935  0.00  0.00     0.083 H 
ATOM     87  H36 MOL d          17.123  -1.697 -17.666  0.00  0.00     0.084 H 
ENDBRANCH  73  77
ENDBRANCH  68  71
ENDBRANCH   1  68
TORSDOF 18
ENDMDL
MODEL 2
REMARK VINA RESULT:      -8.8      2.795      7.439
REMARK  18 active torsions:
REMARK  status: ('A' for Active; 'I' for Inactive)
REMARK    1  A    between atoms: CBB_7  and  CBP_6 
REMARK    2  A    between atoms: OBJ_8  and  CBB_7 
REMARK    3  A    between atoms: CBM_9  and  OBJ_8 
REMARK       I    between atoms: NBI_11  and  CBM_9 
REMARK    4  A    between atoms: CBX_12  and  NBI_11 
REMARK    5  A    between atoms: CBX_12  and  CBE_13 
REMARK    6  A    between atoms: PBY_20  and  CBX_12 
REMARK    7  A    between atoms: CBE_13  and  CBQ_14 
REMARK    8  A    between atoms: CBF_36  and  PBY_20 
REMARK    9  A    between atoms: N_23  and  CA_24 
REMARK       I    between atoms: CBN_38  and  N_23 
REMARK   10  A    between atoms: CA_24  and  C_25 
REMARK   11  A    between atoms: CA_24  and  CB_28 
REMARK   12  A    between atoms: CB_28  and  CG_29 
REMARK   13  A    between atoms: CZ_32  and  OH_33 
REMARK   14  A    between atoms: CBV_37  and  CBF_36 
REMARK   15  A    between atoms: CBV_37  and  CBN_38 
REMARK   16  A    between atoms: CBV_37  and  CBC_40 
REMARK   17  A    between atoms: CBC_40  and  CBS_41 
REMARK   18  A    between atoms: CBU_45  and  CBT_46 
ROOT
ATOM      1  CBV MOL d          14.144  -3.396 -20.769  0.00  0.00     0.038 C 
ATOM      2  H28 MOL d          13.945  -2.589 -21.488  0.00  0.00     0.056 H 
ENDROOT
BRANCH   1   3
ATOM      3  CBF MOL d          13.908  -4.733 -21.505  0.00  0.00     0.021 C 
ATOM      4  H26 MOL d          14.113  -5.555 -20.802  0.00  0.00     0.050 H 
ATOM      5  H27 MOL d          12.854  -4.773 -21.818  0.00  0.00     0.050 H 
BRANCH   3   6
ATOM      6  PBY MOL d          14.948  -4.966 -22.975  0.00  0.00     0.130 P 
ATOM      7  OAG MOL d          14.881  -3.581 -23.749  0.00  0.00    -0.666 OA
ATOM      8  OAD MOL d          16.325  -5.441 -22.691  0.00  0.00    -0.666 OA
BRANCH   6   9
ATOM      9  CBX MOL d          14.117  -6.147 -24.111  0.00  0.00     0.093 C 
ATOM     10  H9  MOL d          13.271  -6.612 -23.585  0.00  0.00     0.089 H 
BRANCH   9  11
ATOM     11  NBI MOL d          13.622  -5.385 -25.263  0.00  0.00    -0.322 N 
ATOM     12  CBM MOL d          12.583  -5.748 -26.013  0.00  0.00     0.361 C 
ATOM     13  OAB MOL d          11.918  -6.774 -25.830  0.00  0.00    -0.238 OA
ATOM     14  H8  MOL d          14.096  -4.538 -25.500  0.00  0.00     0.165 HD
BRANCH  12  15
ATOM     15  OBJ MOL d          12.316  -4.895 -27.040  0.00  0.00    -0.299 OA
BRANCH  15  16
ATOM     16  CBB MOL d          13.059  -4.928 -28.273  0.00  0.00     0.054 C 
ATOM     17  H6  MOL d          13.159  -5.978 -28.586  0.00  0.00     0.082 H 
ATOM     18  H7  MOL d          12.489  -4.373 -29.032  0.00  0.00     0.082 H 
BRANCH  16  19
ATOM     19  CBP MOL d          14.345  -4.370 -28.195  0.00  0.00    -0.034 A 
ATOM     20  CAQ MOL d          14.484  -3.011 -27.897  0.00  0.00    -0.075 A 
ATOM     21  CAK MOL d          15.756  -2.438 -27.795  0.00  0.00    -0.082 A 
ATOM     22  H1  MOL d          13.603  -2.399 -27.744  0.00  0.00     0.084 H 
ATOM     23  CAH MOL d          16.891  -3.220 -27.989  0.00  0.00    -0.083 A 
ATOM     24  H2  MOL d          15.857  -1.383 -27.565  0.00  0.00     0.083 H 
ATOM     25  CAL MOL d          16.752  -4.575 -28.279  0.00  0.00    -0.082 A 
ATOM     26  H3  MOL d          17.878  -2.777 -27.914  0.00  0.00     0.083 H 
ATOM     27  CAR MOL d          15.483  -5.152 -28.380  0.00  0.00    -0.075 A 
ATOM     28  H4  MOL d          17.635  -5.187 -28.428  0.00  0.00     0.083 H 
ATOM     29  H5  MOL d          15.384  -6.209 -28.601  0.00  0.00     0.084 H 
ENDBRANCH  16  19
ENDBRANCH  15  16
ENDBRANCH  12  15
ENDBRANCH   9  11
BRANCH   9  30
ATOM     30  CBE MOL d          15.054  -7.256 -24.609  0.00  0.00    -0.013 C 
ATOM     31  H10 MOL d          16.061  -7.088 -24.197  0.00  0.00     0.044 H 
ATOM     32  H11 MOL d          15.099  -7.224 -25.707  0.00  0.00     0.044 H 
BRANCH  30  33
ATOM     33  CBQ MOL d          14.556  -8.645 -24.167  0.00  0.00    -0.056 A 
ATOM     34  CAS MOL d          13.855  -9.452 -25.067  0.00  0.00    -0.077 A 
ATOM     35  CAM MOL d          13.406 -10.713 -24.671  0.00  0.00    -0.082 A 
ATOM     36  H12 MOL d          13.661  -9.099 -26.074  0.00  0.00     0.084 H 
ATOM     37  CAI MOL d          13.659 -11.173 -23.378  0.00  0.00    -0.083 A 
ATOM     38  H13 MOL d          12.859 -11.337 -25.368  0.00  0.00     0.083 H 
ATOM     39  CAN MOL d          14.368 -10.373 -22.477  0.00  0.00    -0.082 A 
ATOM     40  H14 MOL d          13.306 -12.151 -23.071  0.00  0.00     0.083 H 
ATOM     41  CAT MOL d          14.813  -9.109 -22.874  0.00  0.00    -0.077 A 
ATOM     42  H15 MOL d          14.572 -10.731 -21.475  0.00  0.00     0.083 H 
ATOM     43  H16 MOL d          15.359  -8.485 -22.176  0.00  0.00     0.084 H 
ENDBRANCH  30  33
ENDBRANCH   9  30
ENDBRANCH   6   9
ENDBRANCH   3   6
ENDBRANCH   1   3
BRANCH   1  44
ATOM     44  CBN MOL d          13.144  -3.231 -19.608  0.00  0.00     0.223 C 
ATOM     45  N   MOL d          13.628  -3.444 -18.383  0.00  0.00    -0.346 N 
ATOM     46  H17 MOL d          14.561  -3.789 -18.280  0.00  0.00     0.163 HD
ATOM     47  OAC MOL d          11.981  -2.891 -19.830  0.00  0.00    -0.273 OA
BRANCH  45  48
ATOM     48  CA  MOL d          12.825  -3.184 -17.180  0.00  0.00     0.100 C 
ATOM     49  H18 MOL d          13.503  -2.925 -16.353  0.00  0.00     0.090 H 
BRANCH  48  50
ATOM     50  C   MOL d          12.082  -4.493 -16.831  0.00  0.00     0.197 C 
ATOM     51  OXT MOL d          11.037  -4.377 -16.164  0.00  0.00    -0.646 OA
ATOM     52  O   MOL d          12.518  -5.573 -17.283  0.00  0.00    -0.646 OA
ENDBRANCH  48  50
BRANCH  48  53
ATOM     53  CB  MOL d          11.838  -2.024 -17.363  0.00  0.00    -0.013 C 
ATOM     54  H19 MOL d          10.846  -2.376 -17.043  0.00  0.00     0.043 H 
ATOM     55  H20 MOL d          11.811  -1.775 -18.434  0.00  0.00     0.043 H 
BRANCH  53  56
ATOM     56  CG  MOL d          12.140  -0.732 -16.595  0.00  0.00    -0.056 A 
ATOM     57  CD1 MOL d          11.514   0.460 -16.960  0.00  0.00    -0.074 A 
ATOM     58  CE1 MOL d          11.780   1.636 -16.250  0.00  0.00    -0.051 A 
ATOM     59  H21 MOL d          10.822   0.475 -17.794  0.00  0.00     0.084 H 
ATOM     60  CZ  MOL d          12.661   1.611 -15.167  0.00  0.00     0.065 A 
ATOM     61  H22 MOL d          11.302   2.565 -16.540  0.00  0.00     0.087 H 
ATOM     62  CE2 MOL d          13.280   0.418 -14.796  0.00  0.00    -0.051 A 
ATOM     63  CD2 MOL d          13.020  -0.753 -15.508  0.00  0.00    -0.074 A 
ATOM     64  H24 MOL d          13.962   0.400 -13.953  0.00  0.00     0.087 H 
ATOM     65  H25 MOL d          13.501  -1.680 -15.218  0.00  0.00     0.084 H 
BRANCH  60  66
ATOM     66  OH  MOL d          12.920   2.749 -14.460  0.00  0.00    -0.361 OA
ATOM     67  H23 MOL d          13.076   2.526 -13.550  0.00  0.00     0.217 HD
ENDBRANCH  60  66
ENDBRANCH  53  56
ENDBRANCH  48  53
ENDBRANCH  45  48
ENDBRANCH   1  44
BRANCH   1  68
ATOM     68  CBC MOL d          15.605  -3.238 -20.313  0.00  0.00    -0.006 C 
ATOM     69  H29 MOL d          16.207  -2.982 -21.198  0.00  0.00     0.044 H 
ATOM     70  H30 MOL d          15.938  -4.207 -19.912  0.00  0.00     0.044 H 
BRANCH  68  71
ATOM     71  CBS MOL d          15.869  -2.166 -19.236  0.00  0.00     0.082 A 
ATOM     72  CBA MOL d          15.515  -0.881 -19.138  0.00  0.00    -0.021 A 
ATOM     73  CBU MOL d          15.985  -0.376 -17.980  0.00  0.00     0.097 A 
ATOM     74  H31 MOL d          14.938  -0.329 -19.878  0.00  0.00     0.091 H 
ATOM     75  NBG MOL d          16.644  -1.335 -17.340  0.00  0.00    -0.128 NA
ATOM     76  OBK MOL d          16.583  -2.491 -18.128  0.00  0.00    -0.217 OA
BRANCH  73  77
ATOM     77  CBT MOL d          15.847   0.926 -17.490  0.00  0.00    -0.005 A 
ATOM     78  CAU MOL d          15.041   1.857 -18.139  0.00  0.00    -0.071 A 
ATOM     79  CAO MOL d          14.919   3.158 -17.649  0.00  0.00    -0.082 A 
ATOM     80  H32 MOL d          14.502   1.569 -19.035  0.00  0.00     0.084 H 
ATOM     81  CAJ MOL d          15.606   3.541 -16.499  0.00  0.00    -0.083 A 
ATOM     82  H33 MOL d          14.288   3.873 -18.164  0.00  0.00     0.083 H 
ATOM     83  CAP MOL d          16.419   2.612 -15.843  0.00  0.00    -0.082 A 
ATOM     84  H34 MOL d          15.512   4.550 -16.117  0.00  0.00     0.083 H 
ATOM     85  CAV MOL d          16.544   1.312 -16.344  0.00  0.00    -0.071 A 
ATOM     86  H35 MOL d          16.953   2.900 -14.945  0.00  0.00     0.083 H 
ATOM     87  H36 MOL d          17.186   0.600 -15.838  0.00  0.00     0.084 H 
ENDBRANCH  73  77
ENDBRANCH  68  71
ENDBRANCH   1  68
TORSDOF 18
ENDMDL
MODEL 3
REMARK VINA RESULT:      -7.6      2.957      7.336
REMARK  18 active torsions:
REMARK  status: ('A' for Active; 'I' for Inactive)
REMARK    1  A    between atoms: CBB_7  and  CBP_6 
REMARK    2  A    between atoms: OBJ_8  and  CBB_7 
REMARK    3  A    between atoms: CBM_9  and  OBJ_8 
REMARK       I    between atoms: NBI_11  and  CBM_9 
REMARK    4  A    between atoms: CBX_12  and  NBI_11 
REMARK    5  A    between atoms: CBX_12  and  CBE_13 
REMARK    6  A    between atoms: PBY_20  and  CBX_12 
REMARK    7  A    between atoms: CBE_13  and  CBQ_14 
REMARK    8  A    between atoms: CBF_36  and  PBY_20 
REMARK    9  A    between atoms: N_23  and  CA_24 
REMARK       I    between atoms: CBN_38  and  N_23 
REMARK   10  A    between atoms: CA_24  and  C_25 
REMARK   11  A    between atoms: CA_24  and  CB_28 
REMARK   12  A    between atoms: CB_28  and  CG_29 
REMARK   13  A    between atoms: CZ_32  and  OH_33 
REMARK   14  A    between atoms: CBV_37  and  CBF_36 
REMARK   15  A    between atoms: CBV_37  and  CBN_38 
REMARK   16  A    between atoms: CBV_37  and  CBC_40 
REMARK   17  A    between atoms: CBC_40  and  CBS_41 
REMARK   18  A    between atoms: CBU_45  and  CBT_46 
ROOT
ATOM      1  CBV MOL d          13.848  -3.521 -20.734  0.00  0.00     0.038 C 
ATOM      2  H28 MOL d          13.262  -3.021 -21.520  0.00  0.00     0.056 H 
ENDROOT
BRANCH   1   3
ATOM      3  CBF MOL d          14.263  -4.904 -21.281  0.00  0.00     0.021 C 
ATOM      4  H26 MOL d          15.149  -5.243 -20.725  0.00  0.00     0.050 H 
ATOM      5  H27 MOL d          13.432  -5.605 -21.111  0.00  0.00     0.050 H 
BRANCH   3   6
ATOM      6  PBY MOL d          14.663  -4.912 -23.052  0.00  0.00     0.130 P 
ATOM      7  OAG MOL d          13.408  -4.242 -23.759  0.00  0.00    -0.666 OA
ATOM      8  OAD MOL d          15.963  -4.289 -23.398  0.00  0.00    -0.666 OA
BRANCH   6   9
ATOM      9  CBX MOL d          14.636  -6.647 -23.660  0.00  0.00     0.093 C 
ATOM     10  H9  MOL d          13.623  -7.054 -23.530  0.00  0.00     0.089 H 
BRANCH   9  11
ATOM     11  NBI MOL d          14.981  -6.626 -25.085  0.00  0.00    -0.322 N 
ATOM     12  CBM MOL d          14.090  -6.693 -26.074  0.00  0.00     0.361 C 
ATOM     13  OAB MOL d          12.870  -6.789 -25.905  0.00  0.00    -0.238 OA
ATOM     14  H8  MOL d          15.947  -6.557 -25.331  0.00  0.00     0.165 HD
BRANCH  12  15
ATOM     15  OBJ MOL d          14.642  -6.675 -27.318  0.00  0.00    -0.299 OA
BRANCH  15  16
ATOM     16  CBB MOL d          15.937  -7.244 -27.588  0.00  0.00     0.054 C 
ATOM     17  H6  MOL d          16.457  -7.385 -26.630  0.00  0.00     0.082 H 
ATOM     18  H7  MOL d          15.788  -8.221 -28.071  0.00  0.00     0.082 H 
BRANCH  16  19
ATOM     19  CBP MOL d          16.756  -6.464 -28.421  0.00  0.00    -0.034 A 
ATOM     20  CAQ MOL d          16.575  -6.520 -29.806  0.00  0.00    -0.075 A 
ATOM     21  CAK MOL d          17.365  -5.738 -30.654  0.00  0.00    -0.082 A 
ATOM     22  H1  MOL d          15.818  -7.173 -30.225  0.00  0.00     0.084 H 
ATOM     23  CAH MOL d          18.337  -4.896 -30.120  0.00  0.00    -0.083 A 
ATOM     24  H2  MOL d          17.221  -5.786 -31.727  0.00  0.00     0.083 H 
ATOM     25  CAL MOL d          18.513  -4.835 -28.739  0.00  0.00    -0.082 A 
ATOM     26  H3  MOL d          18.954  -4.291 -30.775  0.00  0.00     0.083 H 
ATOM     27  CAR MOL d          17.723  -5.614 -27.890  0.00  0.00    -0.075 A 
ATOM     28  H4  MOL d          19.267  -4.178 -28.321  0.00  0.00     0.083 H 
ATOM     29  H5  MOL d          17.863  -5.557 -26.816  0.00  0.00     0.084 H 
ENDBRANCH  16  19
ENDBRANCH  15  16
ENDBRANCH  12  15
ENDBRANCH   9  11
BRANCH   9  30
ATOM     30  CBE MOL d          15.628  -7.554 -22.917  0.00  0.00    -0.013 C 
ATOM     31  H10 MOL d          15.554  -7.357 -21.837  0.00  0.00     0.044 H 
ATOM     32  H11 MOL d          16.648  -7.328 -23.262  0.00  0.00     0.044 H 
BRANCH  30  33
ATOM     33  CBQ MOL d          15.325  -9.041 -23.180  0.00  0.00    -0.056 A 
ATOM     34  CAS MOL d          16.341  -9.991 -23.047  0.00  0.00    -0.077 A 
ATOM     35  CAM MOL d          16.069 -11.341 -23.280  0.00  0.00    -0.082 A 
ATOM     36  H12 MOL d          17.340  -9.681 -22.762  0.00  0.00     0.084 H 
ATOM     37  CAI MOL d          14.782 -11.744 -23.641  0.00  0.00    -0.083 A 
ATOM     38  H13 MOL d          16.858 -12.078 -23.181  0.00  0.00     0.083 H 
ATOM     39  CAN MOL d          13.762 -10.798 -23.766  0.00  0.00    -0.082 A 
ATOM     40  H14 MOL d          14.574 -12.792 -23.825  0.00  0.00     0.083 H 
ATOM     41  CAT MOL d          14.037  -9.447 -23.537  0.00  0.00    -0.077 A 
ATOM     42  H15 MOL d          12.761 -11.110 -24.040  0.00  0.00     0.083 H 
ATOM     43  H16 MOL d          13.248  -8.711 -23.637  0.00  0.00     0.084 H 
ENDBRANCH  30  33
ENDBRANCH   9  30
ENDBRANCH   6   9
ENDBRANCH   3   6
ENDBRANCH   1   3
BRANCH   1  44
ATOM     44  CBN MOL d          12.928  -3.675 -19.507  0.00  0.00     0.223 C 
ATOM     45  N   MOL d          13.533  -3.676 -18.317  0.00  0.00    -0.346 N 
ATOM     46  H17 MOL d          14.532  -3.679 -18.278  0.00  0.00     0.163 HD
ATOM     47  OAC MOL d          11.708  -3.759 -19.649  0.00  0.00    -0.273 OA
BRANCH  45  48
ATOM     48  CA  MOL d          12.768  -3.674 -17.063  0.00  0.00     0.100 C 
ATOM     49  H18 MOL d          13.436  -3.369 -16.243  0.00  0.00     0.090 H 
BRANCH  48  50
ATOM     50  C   MOL d          12.291  -5.122 -16.811  0.00  0.00     0.197 C 
ATOM     51  OXT MOL d          12.724  -5.991 -17.589  0.00  0.00    -0.646 OA
ATOM     52  O   MOL d          11.567  -5.355 -15.820  0.00  0.00    -0.646 OA
ENDBRANCH  48  50
BRANCH  48  53
ATOM     53  CB  MOL d          11.581  -2.702 -17.092  0.00  0.00    -0.013 C 
ATOM     54  H19 MOL d          10.722  -3.211 -16.632  0.00  0.00     0.043 H 
ATOM     55  H20 MOL d          11.356  -2.482 -18.146  0.00  0.00     0.043 H 
BRANCH  53  56
ATOM     56  CG  MOL d          11.768  -1.363 -16.368  0.00  0.00    -0.056 A 
ATOM     57  CD1 MOL d          12.626  -1.275 -15.273  0.00  0.00    -0.074 A 
ATOM     58  CE1 MOL d          12.807  -0.049 -14.622  0.00  0.00    -0.051 A 
ATOM     59  H21 MOL d          13.154  -2.155 -14.926  0.00  0.00     0.084 H 
ATOM     60  CZ  MOL d          12.136   1.087 -15.080  0.00  0.00     0.065 A 
ATOM     61  H22 MOL d          13.466   0.018 -13.763  0.00  0.00     0.087 H 
ATOM     62  CE2 MOL d          11.285   1.001 -16.180  0.00  0.00    -0.051 A 
ATOM     63  CD2 MOL d          11.100  -0.222 -16.825  0.00  0.00    -0.074 A 
ATOM     64  H24 MOL d          10.767   1.885 -16.535  0.00  0.00     0.087 H 
ATOM     65  H25 MOL d          10.438  -0.287 -17.681  0.00  0.00     0.084 H 
BRANCH  60  66
ATOM     66  OH  MOL d          12.311   2.290 -14.459  0.00  0.00    -0.361 OA
ATOM     67  H23 MOL d          11.584   2.449 -13.869  0.00  0.00     0.217 HD
ENDBRANCH  60  66
ENDBRANCH  53  56
ENDBRANCH  48  53
ENDBRANCH  45  48
ENDBRANCH   1  44
BRANCH   1  68
ATOM     68  CBC MOL d          15.066  -2.624 -20.447  0.00  0.00    -0.006 C 
ATOM     69  H29 MOL d          15.472  -2.290 -21.413  0.00  0.00     0.044 H 
ATOM     70  H30 MOL d          15.817  -3.236 -19.925  0.00  0.00     0.044 H 
BRANCH  68  71
ATOM     71  CBS MOL d          14.799  -1.371 -19.588  0.00  0.00     0.082 A 
ATOM     72  CBA MOL d          15.490  -0.789 -18.603  0.00  0.00    -0.021 A 
ATOM     73  CBU MOL d          14.831   0.309 -18.184  0.00  0.00     0.097 A 
ATOM     74  H31 MOL d          16.437  -1.146 -18.202  0.00  0.00     0.091 H 
ATOM     75  NBG MOL d          13.716   0.428 -18.895  0.00  0.00    -0.128 NA
ATOM     76  OBK MOL d          13.675  -0.639 -19.802  0.00  0.00    -0.217 OA
BRANCH  73  77
ATOM     77  CBT MOL d          15.199   1.199 -17.171  0.00  0.00    -0.005 A 
ATOM     78  CAU MOL d          14.831   2.541 -17.224  0.00  0.00    -0.071 A 
ATOM     79  CAO MOL d          15.213   3.424 -16.213  0.00  0.00    -0.082 A 
ATOM     80  H32 MOL d          14.243   2.903 -18.059  0.00  0.00     0.084 H 
ATOM     81  CAJ MOL d          15.970   2.971 -15.135  0.00  0.00    -0.083 A 
ATOM     82  H33 MOL d          14.920   4.466 -16.267  0.00  0.00     0.083 H 
ATOM     83  CAP MOL d          16.344   1.626 -15.075  0.00  0.00    -0.082 A 
ATOM     84  H34 MOL d          16.266   3.656 -14.350  0.00  0.00     0.083 H 
ATOM     85  CAV MOL d          15.966   0.746 -16.095  0.00  0.00    -0.071 A 
ATOM     86  H35 MOL d          16.928   1.263 -14.237  0.00  0.00     0.083 H 
ATOM     87  H36 MOL d          16.270  -0.294 -16.050  0.00  0.00     0.084 H 
ENDBRANCH  73  77
ENDBRANCH  68  71
ENDBRANCH   1  68
TORSDOF 18
ENDMDL
MODEL 4
REMARK VINA RESULT:      -7.4      1.686      3.074
REMARK  18 active torsions:
REMARK  status: ('A' for Active; 'I' for Inactive)
REMARK    1  A    between atoms: CBB_7  and  CBP_6 
REMARK    2  A    between atoms: OBJ_8  and  CBB_7 
REMARK    3  A    between atoms: CBM_9  and  OBJ_8 
REMARK       I    between atoms: NBI_11  and  CBM_9 
REMARK    4  A    between atoms: CBX_12  and  NBI_11 
REMARK    5  A    between atoms: CBX_12  and  CBE_13 
REMARK    6  A    between atoms: PBY_20  and  CBX_12 
REMARK    7  A    between atoms: CBE_13  and  CBQ_14 
REMARK    8  A    between atoms: CBF_36  and  PBY_20 
REMARK    9  A    between atoms: N_23  and  CA_24 
REMARK       I    between atoms: CBN_38  and  N_23 
REMARK   10  A    between atoms: CA_24  and  C_25 
REMARK   11  A    between atoms: CA_24  and  CB_28 
REMARK   12  A    between atoms: CB_28  and  CG_29 
REMARK   13  A    between atoms: CZ_32  and  OH_33 
REMARK   14  A    between atoms: CBV_37  and  CBF_36 
REMARK   15  A    between atoms: CBV_37  and  CBN_38 
REMARK   16  A    between atoms: CBV_37  and  CBC_40 
REMARK   17  A    between atoms: CBC_40  and  CBS_41 
REMARK   18  A    between atoms: CBU_45  and  CBT_46 
ROOT
ATOM      1  CBV MOL d          14.972  -5.300 -23.521  0.00  0.00     0.038 C 
ATOM      2  H28 MOL d          15.888  -4.715 -23.689  0.00  0.00     0.056 H 
ENDROOT
BRANCH   1   3
ATOM      3  CBF MOL d          15.193  -6.689 -24.157  0.00  0.00     0.021 C 
ATOM      4  H26 MOL d          15.341  -7.420 -23.348  0.00  0.00     0.050 H 
ATOM      5  H27 MOL d          14.293  -6.953 -24.731  0.00  0.00     0.050 H 
BRANCH   3   6
ATOM      6  PBY MOL d          16.624  -6.776 -25.272  0.00  0.00     0.130 P 
ATOM      7  OAG MOL d          16.837  -5.287 -25.783  0.00  0.00    -0.666 OA
ATOM      8  OAD MOL d          17.835  -7.397 -24.680  0.00  0.00    -0.666 OA
BRANCH   6   9
ATOM      9  CBX MOL d          16.143  -7.698 -26.788  0.00  0.00     0.093 C 
ATOM     10  H9  MOL d          16.887  -7.504 -27.574  0.00  0.00     0.089 H 
BRANCH   9  11
ATOM     11  NBI MOL d          16.136  -9.127 -26.457  0.00  0.00    -0.322 N 
ATOM     12  CBM MOL d          16.529 -10.091 -27.287  0.00  0.00     0.361 C 
ATOM     13  OAB MOL d          16.940  -9.895 -28.436  0.00  0.00    -0.238 OA
ATOM     14  H8  MOL d          15.814  -9.394 -25.550  0.00  0.00     0.165 HD
BRANCH  12  15
ATOM     15  OBJ MOL d          16.418 -11.346 -26.771  0.00  0.00    -0.299 OA
BRANCH  15  16
ATOM     16  CBB MOL d          16.761 -11.643 -25.404  0.00  0.00     0.054 C 
ATOM     17  H6  MOL d          16.994 -12.716 -25.334  0.00  0.00     0.082 H 
ATOM     18  H7  MOL d          17.653 -11.057 -25.139  0.00  0.00     0.082 H 
BRANCH  16  19
ATOM     19  CBP MOL d          15.751 -11.352 -24.473  0.00  0.00    -0.034 A 
ATOM     20  CAQ MOL d          14.525 -12.020 -24.562  0.00  0.00    -0.075 A 
ATOM     21  CAK MOL d          13.512 -11.761 -23.634  0.00  0.00    -0.082 A 
ATOM     22  H1  MOL d          14.360 -12.741 -25.353  0.00  0.00     0.084 H 
ATOM     23  CAH MOL d          13.720 -10.836 -22.614  0.00  0.00    -0.083 A 
ATOM     24  H2  MOL d          12.564 -12.281 -23.708  0.00  0.00     0.083 H 
ATOM     25  CAL MOL d          14.943 -10.176 -22.521  0.00  0.00    -0.082 A 
ATOM     26  H3  MOL d          12.934 -10.631 -21.895  0.00  0.00     0.083 H 
ATOM     27  CAR MOL d          15.959 -10.434 -23.446  0.00  0.00    -0.075 A 
ATOM     28  H4  MOL d          15.109  -9.457 -21.727  0.00  0.00     0.083 H 
ATOM     29  H5  MOL d          16.910  -9.919 -23.364  0.00  0.00     0.084 H 
ENDBRANCH  16  19
ENDBRANCH  15  16
ENDBRANCH  12  15
ENDBRANCH   9  11
BRANCH   9  30
ATOM     30  CBE MOL d          14.758  -7.297 -27.314  0.00  0.00    -0.013 C 
ATOM     31  H10 MOL d          14.813  -7.162 -28.404  0.00  0.00     0.044 H 
ATOM     32  H11 MOL d          14.454  -6.351 -26.842  0.00  0.00     0.044 H 
BRANCH  30  33
ATOM     33  CBQ MOL d          13.708  -8.378 -26.994  0.00  0.00    -0.056 A 
ATOM     34  CAS MOL d          12.976  -8.307 -25.806  0.00  0.00    -0.077 A 
ATOM     35  CAM MOL d          12.020  -9.283 -25.515  0.00  0.00    -0.082 A 
ATOM     36  H12 MOL d          13.149  -7.494 -25.110  0.00  0.00     0.084 H 
ATOM     37  CAI MOL d          11.791 -10.328 -26.411  0.00  0.00    -0.083 A 
ATOM     38  H13 MOL d          11.456  -9.230 -24.591  0.00  0.00     0.083 H 
ATOM     39  CAN MOL d          12.515 -10.397 -27.605  0.00  0.00    -0.082 A 
ATOM     40  H14 MOL d          11.052 -11.086 -26.182  0.00  0.00     0.083 H 
ATOM     41  CAT MOL d          13.474  -9.422 -27.892  0.00  0.00    -0.077 A 
ATOM     42  H15 MOL d          12.333 -11.205 -28.305  0.00  0.00     0.083 H 
ATOM     43  H16 MOL d          14.039  -9.477 -28.815  0.00  0.00     0.084 H 
ENDBRANCH  30  33
ENDBRANCH   9  30
ENDBRANCH   6   9
ENDBRANCH   3   6
ENDBRANCH   1   3
BRANCH   1  44
ATOM     44  CBN MOL d          13.820  -4.557 -24.226  0.00  0.00     0.223 C 
ATOM     45  N   MOL d          13.938  -4.414 -25.548  0.00  0.00    -0.346 N 
ATOM     46  H17 MOL d          14.787  -4.695 -25.995  0.00  0.00     0.163 HD
ATOM     47  OAC MOL d          12.848  -4.160 -23.583  0.00  0.00    -0.273 OA
BRANCH  45  48
ATOM     48  CA  MOL d          12.851  -3.853 -26.363  0.00  0.00     0.100 C 
ATOM     49  H18 MOL d          12.274  -3.150 -25.744  0.00  0.00     0.090 H 
BRANCH  48  50
ATOM     50  C   MOL d          11.936  -5.026 -26.779  0.00  0.00     0.197 C 
ATOM     51  OXT MOL d          12.088  -5.465 -27.934  0.00  0.00    -0.646 OA
ATOM     52  O   MOL d          11.154  -5.510 -25.934  0.00  0.00    -0.646 OA
ENDBRANCH  48  50
BRANCH  48  53
ATOM     53  CB  MOL d          13.362  -3.090 -27.592  0.00  0.00    -0.013 C 
ATOM     54  H19 MOL d          13.324  -2.016 -27.357  0.00  0.00     0.043 H 
ATOM     55  H20 MOL d          12.680  -3.308 -28.426  0.00  0.00     0.043 H 
BRANCH  53  56
ATOM     56  CG  MOL d          14.786  -3.411 -28.061  0.00  0.00    -0.056 A 
ATOM     57  CD1 MOL d          15.000  -4.414 -29.006  0.00  0.00    -0.074 A 
ATOM     58  CE1 MOL d          16.298  -4.697 -29.445  0.00  0.00    -0.051 A 
ATOM     59  H21 MOL d          14.161  -4.975 -29.401  0.00  0.00     0.084 H 
ATOM     60  CZ  MOL d          17.377  -3.963 -28.945  0.00  0.00     0.065 A 
ATOM     61  H22 MOL d          16.467  -5.484 -30.172  0.00  0.00     0.087 H 
ATOM     62  CE2 MOL d          17.162  -2.954 -28.008  0.00  0.00    -0.051 A 
ATOM     63  CD2 MOL d          15.869  -2.677 -27.566  0.00  0.00    -0.074 A 
ATOM     64  H24 MOL d          18.001  -2.385 -27.623  0.00  0.00     0.087 H 
ATOM     65  H25 MOL d          15.703  -1.892 -26.837  0.00  0.00     0.084 H 
BRANCH  60  66
ATOM     66  OH  MOL d          18.647  -4.223 -29.373  0.00  0.00    -0.361 OA
ATOM     67  H23 MOL d          19.162  -4.554 -28.647  0.00  0.00     0.217 HD
ENDBRANCH  60  66
ENDBRANCH  53  56
ENDBRANCH  48  53
ENDBRANCH  45  48
ENDBRANCH   1  44
BRANCH   1  68
ATOM     68  CBC MOL d          14.771  -5.388 -21.998  0.00  0.00    -0.006 C 
ATOM     69  H29 MOL d          15.668  -5.855 -21.567  0.00  0.00     0.044 H 
ATOM     70  H30 MOL d          13.898  -6.031 -21.811  0.00  0.00     0.044 H 
BRANCH  68  71
ATOM     71  CBS MOL d          14.537  -4.051 -21.265  0.00  0.00     0.082 A 
ATOM     72  CBA MOL d          13.836  -3.732 -20.173  0.00  0.00    -0.021 A 
ATOM     73  CBU MOL d          13.964  -2.413 -19.930  0.00  0.00     0.097 A 
ATOM     74  H31 MOL d          13.252  -4.429 -19.573  0.00  0.00     0.091 H 
ATOM     75  NBG MOL d          14.742  -1.885 -20.868  0.00  0.00    -0.128 NA
ATOM     76  OBK MOL d          15.120  -2.918 -21.736  0.00  0.00    -0.217 OA
BRANCH  73  77
ATOM     77  CBT MOL d          13.391  -1.669 -18.895  0.00  0.00    -0.005 A 
ATOM     78  CAU MOL d          13.938  -0.453 -18.494  0.00  0.00    -0.071 A 
ATOM     79  CAO MOL d          13.365   0.277 -17.452  0.00  0.00    -0.082 A 
ATOM     80  H32 MOL d          14.818  -0.069 -18.997  0.00  0.00     0.084 H 
ATOM     81  CAJ MOL d          12.234  -0.205 -16.797  0.00  0.00    -0.083 A 
ATOM     82  H33 MOL d          13.801   1.222 -17.151  0.00  0.00     0.083 H 
ATOM     83  CAP MOL d          11.680  -1.426 -17.193  0.00  0.00    -0.082 A 
ATOM     84  H34 MOL d          11.788   0.361 -15.989  0.00  0.00     0.083 H 
ATOM     85  CAV MOL d          12.263  -2.157 -18.232  0.00  0.00    -0.071 A 
ATOM     86  H35 MOL d          10.796  -1.806 -16.692  0.00  0.00     0.083 H 
ATOM     87  H36 MOL d          11.836  -3.110 -18.525  0.00  0.00     0.084 H 
ENDBRANCH  73  77
ENDBRANCH  68  71
ENDBRANCH   1  68
TORSDOF 18
ENDMDL
