MODEL 1
REMARK VINA RESULT:     -11.0      0.000      0.000
REMARK  23 active torsions:
REMARK  status: ('A' for Active; 'I' for Inactive)
REMARK    1  A    between atoms: CBK_1  and  CBL_2 
REMARK    2  A    between atoms: CBL_2  and  CBM_3 
REMARK    3  A    between atoms: CBL_2  and  CBN_4 
REMARK    4  A    between atoms: CBN_4  and  NBO_5 
REMARK       I    between atoms: NBO_5  and  CBP_6 
REMARK    5  A    between atoms: CBP_6  and  CBG_8 
REMARK    6  A    between atoms: CBG_8  and  CBH_9 
REMARK    7  A    between atoms: CBG_8  and  NBF_12 
REMARK    8  A    between atoms: CBH_9  and  CBJ_10 
REMARK    9  A    between atoms: CBH_9  and  OBI_11 
REMARK   10  A    between atoms: NBF_12  and  CAX_13 
REMARK   11  A    between atoms: CAX_13  and  CAW_14 
REMARK   12  A    between atoms: CAW_14  and  CAY_15 
REMARK   13  A    between atoms: CAW_14  and  NAV_22 
REMARK   14  A    between atoms: CAY_15  and  CAZ_16 
REMARK       I    between atoms: NAV_22  and  CAT_23 
REMARK   15  A    between atoms: CAT_23  and  CAP_25 
REMARK   16  A    between atoms: CAN_28  and  NAE_29 
REMARK   17  A    between atoms: NAE_29  and  CBT_30 
REMARK   18  A    between atoms: NAE_29  and  SAB_31 
REMARK   19  A    between atoms: SAB_31  and  CAA_34 
REMARK   20  A    between atoms: CAR_36  and  CAL_37 
REMARK       I    between atoms: CAL_37  and  NBQ_39 
REMARK   21  A    between atoms: NBQ_39  and  CBR_40 
REMARK   22  A    between atoms: CBR_40  and  CBS_41 
REMARK   23  A    between atoms: CBR_40  and  CAI_42 
ROOT
ATOM      1  CAW MOL d          42.639  -4.348  10.234  0.00  0.00     0.039 C 
ATOM      2  H21 MOL d          43.285  -4.740  11.034  0.00  0.00     0.075 H 
ENDROOT
BRANCH   1   3
ATOM      3  CAX MOL d          43.323  -3.110   9.646  0.00  0.00     0.101 C 
ATOM      4  H19 MOL d          44.142  -3.440   8.991  0.00  0.00     0.079 H 
ATOM      5  H20 MOL d          42.584  -2.549   9.055  0.00  0.00     0.079 H 
BRANCH   3   6
ATOM      6  NBF MOL d          43.877  -2.213  10.673  0.00  0.00    -0.058 N 
ATOM      7  H17 MOL d          43.204  -1.493  10.883  0.00  0.00     0.278 HD
ATOM      8  H18 MOL d          44.072  -2.744  11.507  0.00  0.00     0.278 HD
BRANCH   6   9
ATOM      9  CBG MOL d          45.121  -1.591  10.192  0.00  0.00     0.201 C 
ATOM     10  H11 MOL d          45.122  -1.686   9.096  0.00  0.00     0.103 H 
BRANCH   9  11
ATOM     11  CBP MOL d          46.410  -2.255  10.708  0.00  0.00     0.251 C 
ATOM     12  NBO MOL d          47.529  -2.116   9.763  0.00  0.00    -0.359 N 
ATOM     13  H10 MOL d          47.467  -1.702   8.855  0.00  0.00     0.162 HD
ATOM     14  OBV MOL d          46.627  -2.381  11.916  0.00  0.00    -0.271 OA
BRANCH  12  15
ATOM     15  CBN MOL d          48.754  -2.680  10.356  0.00  0.00    -0.002 C 
ATOM     16  H8  MOL d          49.032  -2.087  11.240  0.00  0.00     0.064 H 
ATOM     17  H9  MOL d          48.562  -3.720  10.658  0.00  0.00     0.064 H 
BRANCH  15  18
ATOM     18  CBL MOL d          49.907  -2.654   9.352  0.00  0.00    -0.046 C 
ATOM     19  H4  MOL d          50.597  -1.846   9.637  0.00  0.00     0.041 H 
BRANCH  18  20
ATOM     20  CBK MOL d          50.653  -3.987   9.398  0.00  0.00    -0.072 C 
ATOM     21  H1  MOL d          51.125  -4.108  10.384  0.00  0.00     0.028 H 
ATOM     22  H2  MOL d          51.426  -4.001   8.616  0.00  0.00     0.028 H 
ATOM     23  H3  MOL d          49.943  -4.810   9.228  0.00  0.00     0.028 H 
ENDBRANCH  18  20
BRANCH  18  24
ATOM     24  CBM MOL d          49.424  -2.396   7.921  0.00  0.00    -0.072 C 
ATOM     25  H5  MOL d          50.135  -2.838   7.208  0.00  0.00     0.028 H 
ATOM     26  H6  MOL d          49.355  -1.312   7.746  0.00  0.00     0.028 H 
ATOM     27  H7  MOL d          48.433  -2.854   7.781  0.00  0.00     0.028 H 
ENDBRANCH  18  24
ENDBRANCH  15  18
ENDBRANCH  12  15
ENDBRANCH   9  11
BRANCH   9  28
ATOM     28  CBH MOL d          45.151  -0.095  10.537  0.00  0.00     0.068 C 
ATOM     29  H12 MOL d          44.988   0.446   9.593  0.00  0.00     0.086 H 
BRANCH  28  30
ATOM     30  CBJ MOL d          44.007   0.308  11.470  0.00  0.00    -0.050 C 
ATOM     31  H13 MOL d          43.115  -0.292  11.236  0.00  0.00     0.031 H 
ATOM     32  H14 MOL d          43.779   1.375  11.330  0.00  0.00     0.031 H 
ATOM     33  H15 MOL d          44.305   0.130  12.514  0.00  0.00     0.031 H 
ENDBRANCH  28  30
BRANCH  28  34
ATOM     34  OBI MOL d          46.431   0.324  11.027  0.00  0.00    -0.393 OA
ATOM     35  H16 MOL d          46.680  -0.219  11.766  0.00  0.00     0.210 HD
ENDBRANCH  28  34
ENDBRANCH   9  28
ENDBRANCH   6   9
ENDBRANCH   3   6
ENDBRANCH   1   3
BRANCH   1  36
ATOM     36  CAY MOL d          42.485  -5.431   9.160  0.00  0.00    -0.021 C 
ATOM     37  H22 MOL d          43.482  -5.815   8.898  0.00  0.00     0.043 H 
ATOM     38  H23 MOL d          42.019  -4.983   8.270  0.00  0.00     0.043 H 
BRANCH  36  39
ATOM     39  CAZ MOL d          41.695  -6.494   9.594  0.00  0.00    -0.056 A 
ATOM     40  CBA MOL d          40.593  -6.902   8.849  0.00  0.00    -0.077 A 
ATOM     41  CBB MOL d          39.764  -7.921   9.307  0.00  0.00    -0.082 A 
ATOM     42  H24 MOL d          40.379  -6.422   7.901  0.00  0.00     0.084 H 
ATOM     43  CBC MOL d          40.026  -8.539  10.525  0.00  0.00    -0.083 A 
ATOM     44  H25 MOL d          38.912  -8.234   8.714  0.00  0.00     0.083 H 
ATOM     45  CBD MOL d          41.124  -8.128  11.274  0.00  0.00    -0.082 A 
ATOM     46  H26 MOL d          39.380  -9.331  10.888  0.00  0.00     0.083 H 
ATOM     47  CBE MOL d          41.959  -7.119  10.808  0.00  0.00    -0.077 A 
ATOM     48  H27 MOL d          41.329  -8.599  12.229  0.00  0.00     0.083 H 
ATOM     49  H28 MOL d          42.819  -6.817  11.395  0.00  0.00     0.084 H 
ENDBRANCH  36  39
ENDBRANCH   1  36
BRANCH   1  50
ATOM     50  NAV MOL d          41.321  -4.058  10.816  0.00  0.00    -0.350 N 
ATOM     51  CAT MOL d          41.194  -3.808  12.127  0.00  0.00     0.252 C 
ATOM     52  OAU MOL d          42.160  -3.742  12.885  0.00  0.00    -0.268 OA
ATOM     53  H29 MOL d          40.512  -4.047  10.229  0.00  0.00     0.163 HD
BRANCH  51  54
ATOM     54  CAP MOL d          39.888  -3.615  12.573  0.00  0.00     0.034 A 
ATOM     55  CAQ MOL d          38.904  -4.466  12.083  0.00  0.00    -0.052 A 
ATOM     56  CAR MOL d          37.650  -4.514  12.682  0.00  0.00     0.034 A 
ATOM     57  H30 MOL d          39.116  -5.098  11.228  0.00  0.00     0.086 H 
ATOM     58  CAS MOL d          37.379  -3.686  13.767  0.00  0.00    -0.046 A 
ATOM     59  CAN MOL d          38.333  -2.795  14.249  0.00  0.00     0.026 A 
ATOM     60  H38 MOL d          36.408  -3.737  14.246  0.00  0.00     0.087 H 
ATOM     61  CAO MOL d          39.599  -2.798  13.664  0.00  0.00    -0.046 A 
ATOM     62  H31 MOL d          40.372  -2.154  14.066  0.00  0.00     0.087 H 
BRANCH  56  63
ATOM     63  CAL MOL d          36.630  -5.265  12.111  0.00  0.00     0.252 C 
ATOM     64  OAM MOL d          35.889  -5.950  12.815  0.00  0.00    -0.268 OA
ATOM     65  NBQ MOL d          36.616  -5.329  10.772  0.00  0.00    -0.349 N 
ATOM     66  H39 MOL d          37.316  -4.846  10.246  0.00  0.00     0.163 HD
BRANCH  65  67
ATOM     67  CBR MOL d          35.581  -6.102  10.068  0.00  0.00     0.034 C 
ATOM     68  H40 MOL d          34.905  -6.532  10.822  0.00  0.00     0.079 H 
BRANCH  67  69
ATOM     69  CBS MOL d          36.225  -7.250   9.289  0.00  0.00    -0.053 C 
ATOM     70  H41 MOL d          36.578  -8.019   9.992  0.00  0.00     0.030 H 
ATOM     71  H42 MOL d          37.077  -6.867   8.707  0.00  0.00     0.030 H 
ATOM     72  H43 MOL d          35.484  -7.692   8.606  0.00  0.00     0.030 H 
ENDBRANCH  67  69
BRANCH  67  73
ATOM     73  CAI MOL d          34.820  -5.300   9.219  0.00  0.00    -0.036 A 
ATOM     74  CAH MOL d          35.375  -4.846   8.028  0.00  0.00    -0.075 A 
ATOM     75  CAG MOL d          34.592  -4.173   7.092  0.00  0.00    -0.082 A 
ATOM     76  H44 MOL d          36.427  -5.016   7.826  0.00  0.00     0.084 H 
ATOM     77  CAF MOL d          33.243  -3.953   7.344  0.00  0.00    -0.083 A 
ATOM     78  H45 MOL d          35.035  -3.822   6.167  0.00  0.00     0.083 H 
ATOM     79  CAK MOL d          32.684  -4.400   8.539  0.00  0.00    -0.082 A 
ATOM     80  H46 MOL d          32.630  -3.436   6.615  0.00  0.00     0.083 H 
ATOM     81  CAJ MOL d          33.473  -5.062   9.475  0.00  0.00    -0.075 A 
ATOM     82  H47 MOL d          31.632  -4.232   8.740  0.00  0.00     0.083 H 
ATOM     83  H48 MOL d          33.035  -5.395  10.410  0.00  0.00     0.084 H 
ENDBRANCH  67  73
ENDBRANCH  65  67
ENDBRANCH  56  63
BRANCH  59  84
ATOM     84  NAE MOL d          38.100  -2.169  15.405  0.00  0.00    -0.181 NA
BRANCH  84  85
ATOM     85  CBT MOL d          39.252  -1.399  15.897  0.00  0.00    -0.015 C 
ATOM     86  H32 MOL d          38.899  -0.588  16.551  0.00  0.00     0.050 H 
ATOM     87  H33 MOL d          39.797  -0.970  15.043  0.00  0.00     0.050 H 
ATOM     88  H34 MOL d          39.921  -2.063  16.464  0.00  0.00     0.050 H 
ENDBRANCH  84  85
BRANCH  84  89
ATOM     89  SAB MOL d          36.724  -1.274  15.494  0.00  0.00     0.211 S 
ATOM     90  OAC MOL d          36.979   0.011  16.283  0.00  0.00    -0.211 OA
ATOM     91  OAD MOL d          36.210  -0.914  14.098  0.00  0.00    -0.211 OA
BRANCH  89  92
ATOM     92  CAA MOL d          35.474  -2.230  16.329  0.00  0.00     0.029 C 
ATOM     93  H35 MOL d          35.074  -2.989  15.641  0.00  0.00     0.050 H 
ATOM     94  H36 MOL d          34.661  -1.566  16.655  0.00  0.00     0.050 H 
ATOM     95  H37 MOL d          35.917  -2.727  17.205  0.00  0.00     0.050 H 
ENDBRANCH  89  92
ENDBRANCH  84  89
ENDBRANCH  59  84
ENDBRANCH  51  54
ENDBRANCH   1  50
TORSDOF 23
ENDMDL
