MODEL 1
REMARK VINA RESULT:      -7.4      0.000      0.000
REMARK  6 active torsions:
REMARK  status: ('A' for Active; 'I' for Inactive)
REMARK    1  A    between atoms: CAX_6  and  CAW_7 
REMARK       I    between atoms: CAW_7  and  NAR_9 
REMARK    2  A    between atoms: CAO_16  and  CAN_18 
REMARK    3  A    between atoms: CAN_18  and  CAL_19 
REMARK    4  A    between atoms: CAL_19  and  NAM_20 
REMARK    5  A    between atoms: CAL_19  and  CAK_21 
REMARK    6  A    between atoms: CAK_21  and  CAG_22 
ROOT
ATOM      1  CAW KR2 d          -2.438   3.735  -8.816  0.00  0.00     0.250 C 
ATOM      2  OAA KR2 d          -1.199   4.387  -8.514  0.00  0.00    -0.199 OA
ATOM      3  NAR KR2 d          -3.580   4.659  -8.703  0.00  0.00    -0.181 NA
ATOM      4  CAV KR2 d          -4.133   4.915 -10.043  0.00  0.00     0.001 C 
ATOM      5  CDD KR2 d          -4.423   6.388 -10.343  0.00  0.00    -0.052 C 
ATOM      6  CNN KR2 d          -3.157   7.219 -10.563  0.00  0.00    -0.062 C 
ATOM      7  CAT KR2 d          -2.542   7.738  -9.259  0.00  0.00    -0.049 C 
ATOM      8  CAS KR2 d          -2.058   6.619  -8.329  0.00  0.00     0.013 C 
ATOM      9  NAQ KR2 d          -3.184   5.738  -7.974  0.00  0.00    -0.288 N 
ATOM     10  CAO KR2 d          -4.062   6.109  -7.049  0.00  0.00     0.170 C 
ATOM     11  OAP KR2 d          -5.327   5.620  -6.980  0.00  0.00    -0.176 OA
ATOM     12  H6  KR2 d          -5.074   4.354 -10.139  0.00  0.00     0.058 H 
ATOM     13  H7  KR2 d          -3.411   4.550 -10.787  0.00  0.00     0.058 H 
ATOM     14  H8  KR2 d          -4.978   6.814  -9.494  0.00  0.00     0.034 H 
ATOM     15  H9  KR2 d          -5.041   6.444 -11.250  0.00  0.00     0.034 H 
ATOM     16  H10 KR2 d          -3.411   8.082 -11.197  0.00  0.00     0.033 H 
ATOM     17  H11 KR2 d          -2.412   6.593 -11.076  0.00  0.00     0.033 H 
ATOM     18  H12 KR2 d          -3.301   8.330  -8.726  0.00  0.00     0.035 H 
ATOM     19  H13 KR2 d          -1.685   8.380  -9.508  0.00  0.00     0.035 H 
ATOM     20  H14 KR2 d          -1.639   7.061  -7.414  0.00  0.00     0.066 H 
ATOM     21  H15 KR2 d          -1.282   6.031  -8.841  0.00  0.00     0.066 H 
ENDROOT
BRANCH  10  22
ATOM     22  CAN KR2 d          -3.680   7.205  -6.059  0.00  0.00     0.025 C 
ATOM     23  H16 KR2 d          -4.553   7.851  -5.878  0.00  0.00     0.048 H 
ATOM     24  H17 KR2 d          -2.860   7.806  -6.480  0.00  0.00     0.048 H 
BRANCH  22  25
ATOM     25  CAL KR2 d          -3.226   6.590  -4.735  0.00  0.00     0.111 C 
ATOM     26  H18 KR2 d          -3.220   7.368  -3.958  0.00  0.00     0.085 H 
BRANCH  25  27
ATOM     27  NAM KR2 d          -1.888   6.034  -4.979  0.00  0.00    -0.074 N 
ATOM     28  H19 KR2 d          -1.750   5.224  -4.396  0.00  0.00     0.274 HD
ATOM     29  H20 KR2 d          -1.191   6.728  -4.761  0.00  0.00     0.274 HD
ATOM     30  H21 KR2 d          -1.806   5.769  -5.949  0.00  0.00     0.274 HD
ENDBRANCH  25  27
BRANCH  25  31
ATOM     31  CAK KR2 d          -3.991   5.362  -4.243  0.00  0.00    -0.011 C 
ATOM     32  H22 KR2 d          -3.612   4.505  -4.818  0.00  0.00     0.043 H 
ATOM     33  H23 KR2 d          -5.049   5.533  -4.493  0.00  0.00     0.043 H 
BRANCH  31  34
ATOM     34  CAG KR2 d          -3.958   4.985  -2.904  0.00  0.00    -0.015 A 
ATOM     35  CAH KR2 d          -4.274   5.897  -1.909  0.00  0.00    -0.034 A 
ATOM     36  CAC KR2 d          -4.034   5.629  -0.563  0.00  0.00     0.155 A 
ATOM     37  H24 KR2 d          -4.721   6.845  -2.185  0.00  0.00     0.089 H 
ATOM     38  FAB KR2 d          -4.512   6.483   0.360  0.00  0.00    -0.203 F 
ATOM     39  CAD KR2 d          -3.436   4.422  -0.213  0.00  0.00     0.157 A 
ATOM     40  FAI KR2 d          -2.850   4.248   0.988  0.00  0.00    -0.203 F 
ATOM     41  CAE KR2 d          -3.199   3.473  -1.198  0.00  0.00    -0.005 A 
ATOM     42  CAF KR2 d          -3.468   3.735  -2.537  0.00  0.00     0.125 A 
ATOM     43  H25 KR2 d          -2.796   2.507  -0.917  0.00  0.00     0.093 H 
ATOM     44  FAJ KR2 d          -3.149   2.792  -3.440  0.00  0.00    -0.205 F 
ENDBRANCH  31  34
ENDBRANCH  25  31
ENDBRANCH  22  25
ENDBRANCH  10  22
BRANCH   1  45
ATOM     45  CAX KR2 d          -2.719   2.694  -7.726  0.00  0.00     0.001 A 
ATOM     46  CAY KR2 d          -1.829   1.641  -7.527  0.00  0.00    -0.072 A 
ATOM     47  CBC KR2 d          -2.193   0.560  -6.729  0.00  0.00    -0.082 A 
ATOM     48  H1  KR2 d          -0.851   1.665  -7.993  0.00  0.00     0.084 H 
ATOM     49  CBB KR2 d          -3.450   0.530  -6.127  0.00  0.00    -0.083 A 
ATOM     50  H2  KR2 d          -1.500  -0.259  -6.577  0.00  0.00     0.083 H 
ATOM     51  CBA KR2 d          -4.335   1.589  -6.316  0.00  0.00    -0.082 A 
ATOM     52  H3  KR2 d          -3.737  -0.315  -5.513  0.00  0.00     0.083 H 
ATOM     53  CAZ KR2 d          -3.968   2.672  -7.110  0.00  0.00    -0.072 A 
ATOM     54  H4  KR2 d          -5.311   1.570  -5.844  0.00  0.00     0.083 H 
ATOM     55  H5  KR2 d          -4.655   3.500  -7.249  0.00  0.00     0.084 H 
ENDBRANCH   1  45
TORSDOF 6
ENDMDL
MODEL 2
REMARK VINA RESULT:      -7.4      1.610      2.179
REMARK  6 active torsions:
REMARK  status: ('A' for Active; 'I' for Inactive)
REMARK    1  A    between atoms: CAX_6  and  CAW_7 
REMARK       I    between atoms: CAW_7  and  NAR_9 
REMARK    2  A    between atoms: CAO_16  and  CAN_18 
REMARK    3  A    between atoms: CAN_18  and  CAL_19 
REMARK    4  A    between atoms: CAL_19  and  NAM_20 
REMARK    5  A    between atoms: CAL_19  and  CAK_21 
REMARK    6  A    between atoms: CAK_21  and  CAG_22 
ROOT
ATOM      1  CAW KR2 d          -4.087   2.250  -7.336  0.00  0.00     0.250 C 
ATOM      2  OAA KR2 d          -2.698   2.599  -7.357  0.00  0.00    -0.199 OA
ATOM      3  NAR KR2 d          -4.949   3.440  -7.428  0.00  0.00    -0.181 NA
ATOM      4  CAV KR2 d          -5.634   3.446  -8.732  0.00  0.00     0.001 C 
ATOM      5  CDD KR2 d          -5.617   4.794  -9.456  0.00  0.00    -0.052 C 
ATOM      6  CNN KR2 d          -4.244   5.153 -10.029  0.00  0.00    -0.062 C 
ATOM      7  CAT KR2 d          -3.325   5.834  -9.009  0.00  0.00    -0.049 C 
ATOM      8  CAS KR2 d          -2.973   4.938  -7.817  0.00  0.00     0.013 C 
ATOM      9  NAQ KR2 d          -4.201   4.532  -7.112  0.00  0.00    -0.288 N 
ATOM     10  CAO KR2 d          -4.809   5.374  -6.284  0.00  0.00     0.170 C 
ATOM     11  OAP KR2 d          -6.125   5.286  -5.962  0.00  0.00    -0.176 OA
ATOM     12  H6  KR2 d          -6.682   3.157  -8.570  0.00  0.00     0.058 H 
ATOM     13  H7  KR2 d          -5.145   2.703  -9.379  0.00  0.00     0.058 H 
ATOM     14  H8  KR2 d          -5.914   5.577  -8.743  0.00  0.00     0.034 H 
ATOM     15  H9  KR2 d          -6.341   4.755 -10.282  0.00  0.00     0.034 H 
ATOM     16  H10 KR2 d          -4.388   5.836 -10.880  0.00  0.00     0.033 H 
ATOM     17  H11 KR2 d          -3.757   4.230 -10.377  0.00  0.00     0.033 H 
ATOM     18  H12 KR2 d          -3.830   6.735  -8.631  0.00  0.00     0.035 H 
ATOM     19  H13 KR2 d          -2.393   6.122  -9.517  0.00  0.00     0.035 H 
ATOM     20  H14 KR2 d          -2.321   5.491  -7.125  0.00  0.00     0.066 H 
ATOM     21  H15 KR2 d          -2.447   4.041  -8.178  0.00  0.00     0.066 H 
ENDROOT
BRANCH  10  22
ATOM     22  CAN KR2 d          -4.029   6.560  -5.723  0.00  0.00     0.025 C 
ATOM     23  H16 KR2 d          -4.693   7.435  -5.664  0.00  0.00     0.048 H 
ATOM     24  H17 KR2 d          -3.184   6.786  -6.391  0.00  0.00     0.048 H 
BRANCH  22  25
ATOM     25  CAL KR2 d          -3.497   6.234  -4.328  0.00  0.00     0.111 C 
ATOM     26  H18 KR2 d          -3.653   7.101  -3.670  0.00  0.00     0.085 H 
BRANCH  25  27
ATOM     27  NAM KR2 d          -2.074   5.912  -4.497  0.00  0.00    -0.074 N 
ATOM     28  H19 KR2 d          -1.519   6.529  -3.926  0.00  0.00     0.274 HD
ATOM     29  H20 KR2 d          -1.816   6.026  -5.465  0.00  0.00     0.274 HD
ATOM     30  H21 KR2 d          -1.910   4.957  -4.217  0.00  0.00     0.274 HD
ENDBRANCH  25  27
BRANCH  25  31
ATOM     31  CAK KR2 d          -4.030   4.967  -3.662  0.00  0.00    -0.011 C 
ATOM     32  H22 KR2 d          -3.355   4.150  -3.958  0.00  0.00     0.043 H 
ATOM     33  H23 KR2 d          -5.030   4.788  -4.085  0.00  0.00     0.043 H 
BRANCH  31  34
ATOM     34  CAG KR2 d          -4.165   4.885  -2.279  0.00  0.00    -0.015 A 
ATOM     35  CAH KR2 d          -5.175   5.578  -1.630  0.00  0.00    -0.034 A 
ATOM     36  CAC KR2 d          -5.205   5.705  -0.243  0.00  0.00     0.155 A 
ATOM     37  H24 KR2 d          -5.964   6.034  -2.217  0.00  0.00     0.089 H 
ATOM     38  FAB KR2 d          -6.294   6.247   0.331  0.00  0.00    -0.203 F 
ATOM     39  CAD KR2 d          -4.177   5.142   0.507  0.00  0.00     0.157 A 
ATOM     40  FAI KR2 d          -3.941   5.524   1.778  0.00  0.00    -0.203 F 
ATOM     41  CAE KR2 d          -3.214   4.375  -0.133  0.00  0.00    -0.005 A 
ATOM     42  CAF KR2 d          -3.205   4.227  -1.516  0.00  0.00     0.125 A 
ATOM     43  H25 KR2 d          -2.451   3.880   0.458  0.00  0.00     0.093 H 
ATOM     44  FAJ KR2 d          -2.202   3.524  -2.068  0.00  0.00    -0.205 F 
ENDBRANCH  31  34
ENDBRANCH  25  31
ENDBRANCH  22  25
ENDBRANCH  10  22
BRANCH   1  45
ATOM     45  CAX KR2 d          -4.425   1.677  -5.955  0.00  0.00     0.001 A 
ATOM     46  CAY KR2 d          -5.755   1.546  -5.565  0.00  0.00    -0.072 A 
ATOM     47  CBC KR2 d          -6.070   1.274  -4.236  0.00  0.00    -0.082 A 
ATOM     48  H1  KR2 d          -6.547   1.656  -6.297  0.00  0.00     0.084 H 
ATOM     49  CBB KR2 d          -5.053   1.130  -3.294  0.00  0.00    -0.083 A 
ATOM     50  H2  KR2 d          -7.106   1.175  -3.934  0.00  0.00     0.083 H 
ATOM     51  CBA KR2 d          -3.722   1.249  -3.687  0.00  0.00    -0.082 A 
ATOM     52  H3  KR2 d          -5.297   0.928  -2.258  0.00  0.00     0.083 H 
ATOM     53  CAZ KR2 d          -3.408   1.516  -5.017  0.00  0.00    -0.072 A 
ATOM     54  H4  KR2 d          -2.929   1.132  -2.957  0.00  0.00     0.083 H 
ATOM     55  H5  KR2 d          -2.371   1.599  -5.323  0.00  0.00     0.084 H 
ENDBRANCH   1  45
TORSDOF 6
ENDMDL
MODEL 3
REMARK VINA RESULT:      -7.3      2.092      4.521
REMARK  6 active torsions:
REMARK  status: ('A' for Active; 'I' for Inactive)
REMARK    1  A    between atoms: CAX_6  and  CAW_7 
REMARK       I    between atoms: CAW_7  and  NAR_9 
REMARK    2  A    between atoms: CAO_16  and  CAN_18 
REMARK    3  A    between atoms: CAN_18  and  CAL_19 
REMARK    4  A    between atoms: CAL_19  and  NAM_20 
REMARK    5  A    between atoms: CAL_19  and  CAK_21 
REMARK    6  A    between atoms: CAK_21  and  CAG_22 
ROOT
ATOM      1  CAW KR2 d          -4.397   6.664  -5.449  0.00  0.00     0.250 C 
ATOM      2  OAA KR2 d          -5.478   5.957  -6.070  0.00  0.00    -0.199 OA
ATOM      3  NAR KR2 d          -3.109   6.369  -6.099  0.00  0.00    -0.181 NA
ATOM      4  CAV KR2 d          -2.635   7.570  -6.806  0.00  0.00     0.001 C 
ATOM      5  CDD KR2 d          -2.123   7.316  -8.225  0.00  0.00    -0.052 C 
ATOM      6  CNN KR2 d          -3.242   7.011  -9.224  0.00  0.00    -0.062 C 
ATOM      7  CAT KR2 d          -3.648   5.533  -9.242  0.00  0.00    -0.049 C 
ATOM      8  CAS KR2 d          -4.236   5.049  -7.912  0.00  0.00     0.013 C 
ATOM      9  NAQ KR2 d          -3.253   5.230  -6.831  0.00  0.00    -0.288 N 
ATOM     10  CAO KR2 d          -2.249   4.372  -6.684  0.00  0.00     0.170 C 
ATOM     11  OAP KR2 d          -1.085   4.682  -6.058  0.00  0.00    -0.176 OA
ATOM     12  H6  KR2 d          -1.815   8.012  -6.220  0.00  0.00     0.058 H 
ATOM     13  H7  KR2 d          -3.469   8.285  -6.865  0.00  0.00     0.058 H 
ATOM     14  H8  KR2 d          -1.434   6.458  -8.200  0.00  0.00     0.034 H 
ATOM     15  H9  KR2 d          -1.583   8.210  -8.568  0.00  0.00     0.034 H 
ATOM     16  H10 KR2 d          -2.898   7.291 -10.231  0.00  0.00     0.033 H 
ATOM     17  H11 KR2 d          -4.124   7.612  -8.956  0.00  0.00     0.033 H 
ATOM     18  H12 KR2 d          -2.757   4.929  -9.469  0.00  0.00     0.035 H 
ATOM     19  H13 KR2 d          -4.401   5.387 -10.030  0.00  0.00     0.035 H 
ATOM     20  H14 KR2 d          -4.496   3.984  -7.994  0.00  0.00     0.066 H 
ATOM     21  H15 KR2 d          -5.142   5.630  -7.682  0.00  0.00     0.066 H 
ENDROOT
BRANCH  10  22
ATOM     22  CAN KR2 d          -2.354   2.990  -7.324  0.00  0.00     0.025 C 
ATOM     23  H16 KR2 d          -1.357   2.671  -7.661  0.00  0.00     0.048 H 
ATOM     24  H17 KR2 d          -3.034   3.041  -8.187  0.00  0.00     0.048 H 
BRANCH  22  25
ATOM     25  CAL KR2 d          -2.893   1.978  -6.314  0.00  0.00     0.111 C 
ATOM     26  H18 KR2 d          -2.130   1.795  -5.542  0.00  0.00     0.085 H 
BRANCH  25  27
ATOM     27  NAM KR2 d          -3.213   0.765  -7.080  0.00  0.00    -0.074 N 
ATOM     28  H19 KR2 d          -2.608   0.014  -6.788  0.00  0.00     0.274 HD
ATOM     29  H20 KR2 d          -3.077   0.943  -8.063  0.00  0.00     0.274 HD
ATOM     30  H21 KR2 d          -4.173   0.508  -6.915  0.00  0.00     0.274 HD
ENDBRANCH  25  27
BRANCH  25  31
ATOM     31  CAK KR2 d          -4.235   2.299  -5.659  0.00  0.00    -0.011 C 
ATOM     32  H22 KR2 d          -5.002   1.763  -6.237  0.00  0.00     0.043 H 
ATOM     33  H23 KR2 d          -4.385   3.384  -5.770  0.00  0.00     0.043 H 
BRANCH  31  34
ATOM     34  CAG KR2 d          -4.471   2.002  -4.320  0.00  0.00    -0.015 A 
ATOM     35  CAH KR2 d          -3.604   2.454  -3.337  0.00  0.00    -0.034 A 
ATOM     36  CAC KR2 d          -3.676   1.992  -2.025  0.00  0.00     0.155 A 
ATOM     37  H24 KR2 d          -2.850   3.188  -3.596  0.00  0.00     0.089 H 
ATOM     38  FAB KR2 d          -2.916   2.590  -1.089  0.00  0.00    -0.203 F 
ATOM     39  CAD KR2 d          -4.628   1.031  -1.701  0.00  0.00     0.157 A 
ATOM     40  FAI KR2 d          -4.524   0.284  -0.583  0.00  0.00    -0.203 F 
ATOM     41  CAE KR2 d          -5.551   0.642  -2.661  0.00  0.00    -0.005 A 
ATOM     42  CAF KR2 d          -5.494   1.128  -3.963  0.00  0.00     0.125 A 
ATOM     43  H25 KR2 d          -6.335  -0.056  -2.391  0.00  0.00     0.093 H 
ATOM     44  FAJ KR2 d          -6.382   0.654  -4.853  0.00  0.00    -0.205 F 
ENDBRANCH  31  34
ENDBRANCH  25  31
ENDBRANCH  22  25
ENDBRANCH  10  22
BRANCH   1  45
ATOM     45  CAX KR2 d          -4.209   6.115  -4.030  0.00  0.00     0.001 A 
ATOM     46  CAY KR2 d          -5.308   5.639  -3.319  0.00  0.00    -0.072 A 
ATOM     47  CBC KR2 d          -5.198   5.381  -1.955  0.00  0.00    -0.082 A 
ATOM     48  H1  KR2 d          -6.249   5.469  -3.828  0.00  0.00     0.084 H 
ATOM     49  CBB KR2 d          -3.988   5.597  -1.300  0.00  0.00    -0.083 A 
ATOM     50  H2  KR2 d          -6.055   5.013  -1.402  0.00  0.00     0.083 H 
ATOM     51  CBA KR2 d          -2.885   6.061  -2.014  0.00  0.00    -0.082 A 
ATOM     52  H3  KR2 d          -3.904   5.405  -0.236  0.00  0.00     0.083 H 
ATOM     53  CAZ KR2 d          -2.994   6.315  -3.378  0.00  0.00    -0.072 A 
ATOM     54  H4  KR2 d          -1.941   6.225  -1.506  0.00  0.00     0.083 H 
ATOM     55  H5  KR2 d          -2.132   6.667  -3.934  0.00  0.00     0.084 H 
ENDBRANCH   1  45
TORSDOF 6
ENDMDL
MODEL 4
REMARK VINA RESULT:      -7.0      2.300      3.733
REMARK  6 active torsions:
REMARK  status: ('A' for Active; 'I' for Inactive)
REMARK    1  A    between atoms: CAX_6  and  CAW_7 
REMARK       I    between atoms: CAW_7  and  NAR_9 
REMARK    2  A    between atoms: CAO_16  and  CAN_18 
REMARK    3  A    between atoms: CAN_18  and  CAL_19 
REMARK    4  A    between atoms: CAL_19  and  NAM_20 
REMARK    5  A    between atoms: CAL_19  and  CAK_21 
REMARK    6  A    between atoms: CAK_21  and  CAG_22 
ROOT
ATOM      1  CAW KR2 d          -2.943   1.045  -7.233  0.00  0.00     0.250 C 
ATOM      2  OAA KR2 d          -1.612   1.516  -6.992  0.00  0.00    -0.199 OA
ATOM      3  NAR KR2 d          -3.509   1.620  -8.464  0.00  0.00    -0.181 NA
ATOM      4  CAV KR2 d          -3.643   0.562  -9.479  0.00  0.00     0.001 C 
ATOM      5  CDD KR2 d          -3.145   0.948 -10.873  0.00  0.00    -0.052 C 
ATOM      6  CNN KR2 d          -1.620   1.027 -10.968  0.00  0.00    -0.062 C 
ATOM      7  CAT KR2 d          -1.058   2.383 -10.531  0.00  0.00    -0.049 C 
ATOM      8  CAS KR2 d          -1.325   2.704  -9.056  0.00  0.00     0.013 C 
ATOM      9  NAQ KR2 d          -2.775   2.716  -8.798  0.00  0.00    -0.288 N 
ATOM     10  CAO KR2 d          -3.510   3.766  -9.147  0.00  0.00     0.170 C 
ATOM     11  OAP KR2 d          -4.847   3.700  -9.375  0.00  0.00    -0.176 OA
ATOM     12  H6  KR2 d          -4.707   0.295  -9.557  0.00  0.00     0.058 H 
ATOM     13  H7  KR2 d          -3.070  -0.312  -9.140  0.00  0.00     0.058 H 
ATOM     14  H8  KR2 d          -3.563   1.933 -11.134  0.00  0.00     0.034 H 
ATOM     15  H9  KR2 d          -3.502   0.197 -11.592  0.00  0.00     0.034 H 
ATOM     16  H10 KR2 d          -1.324   0.846 -12.013  0.00  0.00     0.033 H 
ATOM     17  H11 KR2 d          -1.188   0.245 -10.324  0.00  0.00     0.033 H 
ATOM     18  H12 KR2 d          -1.520   3.168 -11.148  0.00  0.00     0.035 H 
ATOM     19  H13 KR2 d           0.030   2.381 -10.696  0.00  0.00     0.035 H 
ATOM     20  H14 KR2 d          -0.903   3.691  -8.815  0.00  0.00     0.066 H 
ATOM     21  H15 KR2 d          -0.849   1.939  -8.425  0.00  0.00     0.066 H 
ENDROOT
BRANCH  10  22
ATOM     22  CAN KR2 d          -2.823   5.106  -9.395  0.00  0.00     0.025 C 
ATOM     23  H16 KR2 d          -3.386   5.666 -10.156  0.00  0.00     0.048 H 
ATOM     24  H17 KR2 d          -1.799   4.927  -9.755  0.00  0.00     0.048 H 
BRANCH  22  25
ATOM     25  CAL KR2 d          -2.769   5.922  -8.104  0.00  0.00     0.111 C 
ATOM     26  H18 KR2 d          -3.641   6.593  -8.063  0.00  0.00     0.085 H 
BRANCH  25  27
ATOM     27  NAM KR2 d          -1.499   6.660  -8.139  0.00  0.00    -0.074 N 
ATOM     28  H19 KR2 d          -0.975   6.465  -7.300  0.00  0.00     0.274 HD
ATOM     29  H20 KR2 d          -1.686   7.649  -8.196  0.00  0.00     0.274 HD
ATOM     30  H21 KR2 d          -0.965   6.372  -8.944  0.00  0.00     0.274 HD
ENDBRANCH  25  27
BRANCH  25  31
ATOM     31  CAK KR2 d          -2.645   5.143  -6.796  0.00  0.00    -0.011 C 
ATOM     32  H22 KR2 d          -1.581   5.168  -6.517  0.00  0.00     0.043 H 
ATOM     33  H23 KR2 d          -2.942   4.107  -7.020  0.00  0.00     0.043 H 
BRANCH  31  34
ATOM     34  CAG KR2 d          -3.359   5.522  -5.663  0.00  0.00    -0.015 A 
ATOM     35  CAH KR2 d          -2.694   5.860  -4.495  0.00  0.00    -0.034 A 
ATOM     36  CAC KR2 d          -3.368   6.021  -3.286  0.00  0.00     0.155 A 
ATOM     37  H24 KR2 d          -1.620   6.004  -4.521  0.00  0.00     0.089 H 
ATOM     38  FAB KR2 d          -2.691   6.508  -2.230  0.00  0.00    -0.203 F 
ATOM     39  CAD KR2 d          -4.743   5.810  -3.249  0.00  0.00     0.157 A 
ATOM     40  FAI KR2 d          -5.392   5.589  -2.088  0.00  0.00    -0.203 F 
ATOM     41  CAE KR2 d          -5.422   5.558  -4.433  0.00  0.00    -0.005 A 
ATOM     42  CAF KR2 d          -4.748   5.426  -5.642  0.00  0.00     0.125 A 
ATOM     43  H25 KR2 d          -6.501   5.460  -4.415  0.00  0.00     0.093 H 
ATOM     44  FAJ KR2 d          -5.466   5.116  -6.734  0.00  0.00    -0.205 F 
ENDBRANCH  31  34
ENDBRANCH  25  31
ENDBRANCH  22  25
ENDBRANCH  10  22
BRANCH   1  45
ATOM     45  CAX KR2 d          -3.860   1.593  -6.133  0.00  0.00     0.001 A 
ATOM     46  CAY KR2 d          -3.350   1.834  -4.860  0.00  0.00    -0.072 A 
ATOM     47  CBC KR2 d          -4.214   2.082  -3.797  0.00  0.00    -0.082 A 
ATOM     48  H1  KR2 d          -2.278   1.828  -4.697  0.00  0.00     0.084 H 
ATOM     49  CBB KR2 d          -5.591   2.093  -4.006  0.00  0.00    -0.083 A 
ATOM     50  H2  KR2 d          -3.815   2.268  -2.806  0.00  0.00     0.083 H 
ATOM     51  CBA KR2 d          -6.101   1.865  -5.282  0.00  0.00    -0.082 A 
ATOM     52  H3  KR2 d          -6.265   2.278  -3.178  0.00  0.00     0.083 H 
ATOM     53  CAZ KR2 d          -5.236   1.621  -6.346  0.00  0.00    -0.072 A 
ATOM     54  H4  KR2 d          -7.173   1.877  -5.448  0.00  0.00     0.083 H 
ATOM     55  H5  KR2 d          -5.635   1.452  -7.340  0.00  0.00     0.084 H 
ENDBRANCH   1  45
TORSDOF 6
ENDMDL
MODEL 5
REMARK VINA RESULT:      -6.3      2.056      4.591
REMARK  6 active torsions:
REMARK  status: ('A' for Active; 'I' for Inactive)
REMARK    1  A    between atoms: CAX_6  and  CAW_7 
REMARK       I    between atoms: CAW_7  and  NAR_9 
REMARK    2  A    between atoms: CAO_16  and  CAN_18 
REMARK    3  A    between atoms: CAN_18  and  CAL_19 
REMARK    4  A    between atoms: CAL_19  and  NAM_20 
REMARK    5  A    between atoms: CAL_19  and  CAK_21 
REMARK    6  A    between atoms: CAK_21  and  CAG_22 
ROOT
ATOM      1  CAW KR2 d          -4.768   6.141  -7.110  0.00  0.00     0.250 C 
ATOM      2  OAA KR2 d          -5.631   5.088  -7.559  0.00  0.00    -0.199 OA
ATOM      3  NAR KR2 d          -3.469   6.112  -7.803  0.00  0.00    -0.181 NA
ATOM      4  CAV KR2 d          -3.366   7.281  -8.692  0.00  0.00     0.001 C 
ATOM      5  CDD KR2 d          -2.846   6.970 -10.098  0.00  0.00    -0.052 C 
ATOM      6  CNN KR2 d          -3.868   6.236 -10.969  0.00  0.00    -0.062 C 
ATOM      7  CAT KR2 d          -3.851   4.717 -10.765  0.00  0.00    -0.049 C 
ATOM      8  CAS KR2 d          -4.244   4.290  -9.346  0.00  0.00     0.013 C 
ATOM      9  NAQ KR2 d          -3.316   4.883  -8.368  0.00  0.00    -0.288 N 
ATOM     10  CAO KR2 d          -2.111   4.356  -8.180  0.00  0.00     0.170 C 
ATOM     11  OAP KR2 d          -1.059   5.054  -7.680  0.00  0.00    -0.176 OA
ATOM     12  H6  KR2 d          -2.682   8.006  -8.227  0.00  0.00     0.058 H 
ATOM     13  H7  KR2 d          -4.365   7.729  -8.787  0.00  0.00     0.058 H 
ATOM     14  H8  KR2 d          -1.947   6.342 -10.007  0.00  0.00     0.034 H 
ATOM     15  H9  KR2 d          -2.584   7.918 -10.590  0.00  0.00     0.034 H 
ATOM     16  H10 KR2 d          -3.645   6.450 -12.025  0.00  0.00     0.033 H 
ATOM     17  H11 KR2 d          -4.873   6.611 -10.722  0.00  0.00     0.033 H 
ATOM     18  H12 KR2 d          -2.836   4.348 -10.972  0.00  0.00     0.035 H 
ATOM     19  H13 KR2 d          -4.558   4.262 -11.474  0.00  0.00     0.035 H 
ATOM     20  H14 KR2 d          -4.202   3.194  -9.271  0.00  0.00     0.066 H 
ATOM     21  H15 KR2 d          -5.267   4.634  -9.133  0.00  0.00     0.066 H 
ENDROOT
BRANCH  10  22
ATOM     22  CAN KR2 d          -1.850   2.920  -8.624  0.00  0.00     0.025 C 
ATOM     23  H16 KR2 d          -0.791   2.812  -8.901  0.00  0.00     0.048 H 
ATOM     24  H17 KR2 d          -2.482   2.689  -9.496  0.00  0.00     0.048 H 
BRANCH  22  25
ATOM     25  CAL KR2 d          -2.177   1.946  -7.492  0.00  0.00     0.111 C 
ATOM     26  H18 KR2 d          -1.829   2.370  -6.539  0.00  0.00     0.085 H 
BRANCH  25  27
ATOM     27  NAM KR2 d          -1.496   0.687  -7.825  0.00  0.00    -0.074 N 
ATOM     28  H19 KR2 d          -1.240   0.209  -6.976  0.00  0.00     0.274 HD
ATOM     29  H20 KR2 d          -0.668   0.885  -8.363  0.00  0.00     0.274 HD
ATOM     30  H21 KR2 d          -2.116   0.103  -8.365  0.00  0.00     0.274 HD
ENDBRANCH  25  27
BRANCH  25  31
ATOM     31  CAK KR2 d          -3.631   1.493  -7.366  0.00  0.00    -0.011 C 
ATOM     32  H22 KR2 d          -3.673   0.465  -7.753  0.00  0.00     0.043 H 
ATOM     33  H23 KR2 d          -4.222   2.155  -8.017  0.00  0.00     0.043 H 
BRANCH  31  34
ATOM     34  CAG KR2 d          -4.273   1.477  -6.131  0.00  0.00    -0.015 A 
ATOM     35  CAH KR2 d          -3.553   1.262  -4.967  0.00  0.00    -0.034 A 
ATOM     36  CAC KR2 d          -4.181   1.012  -3.749  0.00  0.00     0.155 A 
ATOM     37  H24 KR2 d          -2.469   1.288  -5.004  0.00  0.00     0.089 H 
ATOM     38  FAB KR2 d          -3.431   0.975  -2.633  0.00  0.00    -0.203 F 
ATOM     39  CAD KR2 d          -5.571   0.953  -3.708  0.00  0.00     0.157 A 
ATOM     40  FAI KR2 d          -6.222   0.369  -2.682  0.00  0.00    -0.203 F 
ATOM     41  CAE KR2 d          -6.295   1.254  -4.853  0.00  0.00    -0.005 A 
ATOM     42  CAF KR2 d          -5.663   1.531  -6.060  0.00  0.00     0.125 A 
ATOM     43  H25 KR2 d          -7.378   1.274  -4.805  0.00  0.00     0.093 H 
ATOM     44  FAJ KR2 d          -6.432   1.748  -7.140  0.00  0.00    -0.205 F 
ENDBRANCH  31  34
ENDBRANCH  25  31
ENDBRANCH  22  25
ENDBRANCH  10  22
BRANCH   1  45
ATOM     45  CAX KR2 d          -4.393   5.874  -5.648  0.00  0.00     0.001 A 
ATOM     46  CAY KR2 d          -3.161   6.301  -5.159  0.00  0.00    -0.072 A 
ATOM     47  CBC KR2 d          -2.704   5.847  -3.925  0.00  0.00    -0.082 A 
ATOM     48  H1  KR2 d          -2.557   6.988  -5.741  0.00  0.00     0.084 H 
ATOM     49  CBB KR2 d          -3.481   4.965  -3.176  0.00  0.00    -0.083 A 
ATOM     50  H2  KR2 d          -1.744   6.178  -3.547  0.00  0.00     0.083 H 
ATOM     51  CBA KR2 d          -4.719   4.549  -3.659  0.00  0.00    -0.082 A 
ATOM     52  H3  KR2 d          -3.122   4.605  -2.219  0.00  0.00     0.083 H 
ATOM     53  CAZ KR2 d          -5.177   5.007  -4.891  0.00  0.00    -0.072 A 
ATOM     54  H4  KR2 d          -5.327   3.867  -3.075  0.00  0.00     0.083 H 
ATOM     55  H5  KR2 d          -6.146   4.688  -5.262  0.00  0.00     0.084 H 
ENDBRANCH   1  45
TORSDOF 6
ENDMDL
MODEL 6
REMARK VINA RESULT:      -6.2      1.857      4.460
REMARK  6 active torsions:
REMARK  status: ('A' for Active; 'I' for Inactive)
REMARK    1  A    between atoms: CAX_6  and  CAW_7 
REMARK       I    between atoms: CAW_7  and  NAR_9 
REMARK    2  A    between atoms: CAO_16  and  CAN_18 
REMARK    3  A    between atoms: CAN_18  and  CAL_19 
REMARK    4  A    between atoms: CAL_19  and  NAM_20 
REMARK    5  A    between atoms: CAL_19  and  CAK_21 
REMARK    6  A    between atoms: CAK_21  and  CAG_22 
ROOT
ATOM      1  CAW KR2 d          -4.162   6.907  -6.659  0.00  0.00     0.250 C 
ATOM      2  OAA KR2 d          -5.296   6.368  -7.350  0.00  0.00    -0.199 OA
ATOM      3  NAR KR2 d          -2.898   6.530  -7.313  0.00  0.00    -0.181 NA
ATOM      4  CAV KR2 d          -2.286   7.726  -7.915  0.00  0.00     0.001 C 
ATOM      5  CDD KR2 d          -1.772   7.530  -9.343  0.00  0.00    -0.052 C 
ATOM      6  CNN KR2 d          -2.894   7.424 -10.378  0.00  0.00    -0.062 C 
ATOM      7  CAT KR2 d          -3.450   6.003 -10.519  0.00  0.00    -0.049 C 
ATOM      8  CAS KR2 d          -4.115   5.481  -9.240  0.00  0.00     0.013 C 
ATOM      9  NAQ KR2 d          -3.142   5.473  -8.135  0.00  0.00    -0.288 N 
ATOM     10  CAO KR2 d          -2.237   4.505  -8.044  0.00  0.00     0.170 C 
ATOM     11  OAP KR2 d          -1.061   4.641  -7.378  0.00  0.00    -0.176 OA
ATOM     12  H6  KR2 d          -1.438   8.032  -7.284  0.00  0.00     0.058 H 
ATOM     13  H7  KR2 d          -3.039   8.527  -7.929  0.00  0.00     0.058 H 
ATOM     14  H8  KR2 d          -1.176   6.605  -9.376  0.00  0.00     0.034 H 
ATOM     15  H9  KR2 d          -1.135   8.387  -9.605  0.00  0.00     0.034 H 
ATOM     16  H10 KR2 d          -2.501   7.744 -11.355  0.00  0.00     0.033 H 
ATOM     17  H11 KR2 d          -3.714   8.092 -10.075  0.00  0.00     0.033 H 
ATOM     18  H12 KR2 d          -2.622   5.328 -10.782  0.00  0.00     0.035 H 
ATOM     19  H13 KR2 d          -4.197   5.998 -11.327  0.00  0.00     0.035 H 
ATOM     20  H14 KR2 d          -4.482   4.459  -9.411  0.00  0.00     0.066 H 
ATOM     21  H15 KR2 d          -4.960   6.135  -8.977  0.00  0.00     0.066 H 
ENDROOT
BRANCH  10  22
ATOM     22  CAN KR2 d          -2.470   3.196  -8.793  0.00  0.00     0.025 C 
ATOM     23  H16 KR2 d          -1.500   2.772  -9.092  0.00  0.00     0.048 H 
ATOM     24  H17 KR2 d          -3.076   3.394  -9.690  0.00  0.00     0.048 H 
BRANCH  22  25
ATOM     25  CAL KR2 d          -3.203   2.197  -7.899  0.00  0.00     0.111 C 
ATOM     26  H18 KR2 d          -2.469   1.537  -7.414  0.00  0.00     0.085 H 
BRANCH  25  27
ATOM     27  NAM KR2 d          -4.122   1.459  -8.777  0.00  0.00    -0.074 N 
ATOM     28  H19 KR2 d          -4.710   0.859  -8.220  0.00  0.00     0.274 HD
ATOM     29  H20 KR2 d          -3.590   0.899  -9.425  0.00  0.00     0.274 HD
ATOM     30  H21 KR2 d          -4.695   2.111  -9.288  0.00  0.00     0.274 HD
ENDBRANCH  25  27
BRANCH  25  31
ATOM     31  CAK KR2 d          -4.160   2.772  -6.856  0.00  0.00    -0.011 C 
ATOM     32  H22 KR2 d          -5.168   2.718  -7.293  0.00  0.00     0.043 H 
ATOM     33  H23 KR2 d          -3.876   3.826  -6.719  0.00  0.00     0.043 H 
BRANCH  31  34
ATOM     34  CAG KR2 d          -4.252   2.218  -5.582  0.00  0.00    -0.015 A 
ATOM     35  CAH KR2 d          -5.374   1.494  -5.210  0.00  0.00    -0.034 A 
ATOM     36  CAC KR2 d          -5.604   1.123  -3.887  0.00  0.00     0.155 A 
ATOM     37  H24 KR2 d          -6.092   1.207  -5.969  0.00  0.00     0.089 H 
ATOM     38  FAB KR2 d          -6.621   0.284  -3.621  0.00  0.00    -0.203 F 
ATOM     39  CAD KR2 d          -4.694   1.515  -2.910  0.00  0.00     0.157 A 
ATOM     40  FAI KR2 d          -5.021   1.517  -1.602  0.00  0.00    -0.203 F 
ATOM     41  CAE KR2 d          -3.528   2.164  -3.292  0.00  0.00    -0.005 A 
ATOM     42  CAF KR2 d          -3.289   2.507  -4.619  0.00  0.00     0.125 A 
ATOM     43  H25 KR2 d          -2.787   2.410  -2.540  0.00  0.00     0.093 H 
ATOM     44  FAJ KR2 d          -2.169   3.193  -4.901  0.00  0.00    -0.205 F 
ENDBRANCH  31  34
ENDBRANCH  25  31
ENDBRANCH  22  25
ENDBRANCH  10  22
BRANCH   1  45
ATOM     45  CAX KR2 d          -4.063   6.233  -5.286  0.00  0.00     0.001 A 
ATOM     46  CAY KR2 d          -5.203   5.694  -4.694  0.00  0.00    -0.072 A 
ATOM     47  CBC KR2 d          -5.181   5.314  -3.354  0.00  0.00    -0.082 A 
ATOM     48  H1  KR2 d          -6.109   5.570  -5.277  0.00  0.00     0.084 H 
ATOM     49  CBB KR2 d          -4.017   5.471  -2.605  0.00  0.00    -0.083 A 
ATOM     50  H2  KR2 d          -6.070   4.898  -2.894  0.00  0.00     0.083 H 
ATOM     51  CBA KR2 d          -2.873   5.997  -3.200  0.00  0.00    -0.082 A 
ATOM     52  H3  KR2 d          -4.002   5.184  -1.560  0.00  0.00     0.083 H 
ATOM     53  CAZ KR2 d          -2.895   6.373  -4.541  0.00  0.00    -0.072 A 
ATOM     54  H4  KR2 d          -1.965   6.115  -2.620  0.00  0.00     0.083 H 
ATOM     55  H5  KR2 d          -2.001   6.774  -5.005  0.00  0.00     0.084 H 
ENDBRANCH   1  45
TORSDOF 6
ENDMDL
MODEL 7
REMARK VINA RESULT:      -6.1      2.144      3.344
REMARK  6 active torsions:
REMARK  status: ('A' for Active; 'I' for Inactive)
REMARK    1  A    between atoms: CAX_6  and  CAW_7 
REMARK       I    between atoms: CAW_7  and  NAR_9 
REMARK    2  A    between atoms: CAO_16  and  CAN_18 
REMARK    3  A    between atoms: CAN_18  and  CAL_19 
REMARK    4  A    between atoms: CAL_19  and  NAM_20 
REMARK    5  A    between atoms: CAL_19  and  CAK_21 
REMARK    6  A    between atoms: CAK_21  and  CAG_22 
ROOT
ATOM      1  CAW KR2 d          -3.523   0.411  -7.093  0.00  0.00     0.250 C 
ATOM      2  OAA KR2 d          -2.125   0.440  -6.781  0.00  0.00    -0.199 OA
ATOM      3  NAR KR2 d          -3.923   1.573  -7.905  0.00  0.00    -0.181 NA
ATOM      4  CAV KR2 d          -4.271   1.121  -9.262  0.00  0.00     0.001 C 
ATOM      5  CDD KR2 d          -3.673   1.966 -10.389  0.00  0.00    -0.052 C 
ATOM      6  CNN KR2 d          -2.167   1.757 -10.565  0.00  0.00    -0.062 C 
ATOM      7  CAT KR2 d          -1.324   2.634  -9.633  0.00  0.00    -0.049 C 
ATOM      8  CAS KR2 d          -1.541   2.323  -8.147  0.00  0.00     0.013 C 
ATOM      9  NAQ KR2 d          -2.956   2.524  -7.792  0.00  0.00    -0.288 N 
ATOM     10  CAO KR2 d          -3.432   3.748  -7.593  0.00  0.00     0.170 C 
ATOM     11  OAP KR2 d          -4.745   4.069  -7.718  0.00  0.00    -0.176 OA
ATOM     12  H6  KR2 d          -5.366   1.144  -9.361  0.00  0.00     0.058 H 
ATOM     13  H7  KR2 d          -3.914   0.088  -9.382  0.00  0.00     0.058 H 
ATOM     14  H8  KR2 d          -3.855   3.028 -10.164  0.00  0.00     0.034 H 
ATOM     15  H9  KR2 d          -4.175   1.699 -11.330  0.00  0.00     0.034 H 
ATOM     16  H10 KR2 d          -1.900   1.995 -11.606  0.00  0.00     0.033 H 
ATOM     17  H11 KR2 d          -1.934   0.702 -10.359  0.00  0.00     0.033 H 
ATOM     18  H12 KR2 d          -1.588   3.687  -9.811  0.00  0.00     0.035 H 
ATOM     19  H13 KR2 d          -0.262   2.477  -9.871  0.00  0.00     0.035 H 
ATOM     20  H14 KR2 d          -0.914   2.992  -7.540  0.00  0.00     0.066 H 
ATOM     21  H15 KR2 d          -1.260   1.278  -7.950  0.00  0.00     0.066 H 
ENDROOT
BRANCH  10  22
ATOM     22  CAN KR2 d          -2.458   4.885  -7.294  0.00  0.00     0.025 C 
ATOM     23  H16 KR2 d          -2.766   5.781  -7.852  0.00  0.00     0.048 H 
ATOM     24  H17 KR2 d          -1.446   4.587  -7.608  0.00  0.00     0.048 H 
BRANCH  22  25
ATOM     25  CAL KR2 d          -2.451   5.199  -5.799  0.00  0.00     0.111 C 
ATOM     26  H18 KR2 d          -2.838   6.217  -5.641  0.00  0.00     0.085 H 
BRANCH  25  27
ATOM     27  NAM KR2 d          -1.058   5.057  -5.356  0.00  0.00    -0.074 N 
ATOM     28  H19 KR2 d          -0.830   4.079  -5.270  0.00  0.00     0.274 HD
ATOM     29  H20 KR2 d          -0.941   5.509  -4.463  0.00  0.00     0.274 HD
ATOM     30  H21 KR2 d          -0.445   5.487  -6.032  0.00  0.00     0.274 HD
ENDBRANCH  25  27
BRANCH  25  31
ATOM     31  CAK KR2 d          -3.175   4.215  -4.880  0.00  0.00    -0.011 C 
ATOM     32  H22 KR2 d          -2.514   3.342  -4.775  0.00  0.00     0.043 H 
ATOM     33  H23 KR2 d          -4.095   3.917  -5.405  0.00  0.00     0.043 H 
BRANCH  31  34
ATOM     34  CAG KR2 d          -3.554   4.580  -3.593  0.00  0.00    -0.015 A 
ATOM     35  CAH KR2 d          -2.923   4.027  -2.490  0.00  0.00    -0.034 A 
ATOM     36  CAC KR2 d          -3.420   4.189  -1.199  0.00  0.00     0.155 A 
ATOM     37  H24 KR2 d          -2.016   3.451  -2.635  0.00  0.00     0.089 H 
ATOM     38  FAB KR2 d          -2.674   3.767  -0.162  0.00  0.00    -0.203 F 
ATOM     39  CAD KR2 d          -4.599   4.906  -1.017  0.00  0.00     0.157 A 
ATOM     40  FAI KR2 d          -5.322   4.799   0.115  0.00  0.00    -0.203 F 
ATOM     41  CAE KR2 d          -5.185   5.534  -2.107  0.00  0.00    -0.005 A 
ATOM     42  CAF KR2 d          -4.667   5.392  -3.391  0.00  0.00     0.125 A 
ATOM     43  H25 KR2 d          -6.065   6.149  -1.956  0.00  0.00     0.093 H 
ATOM     44  FAJ KR2 d          -5.328   5.976  -4.405  0.00  0.00    -0.205 F 
ENDBRANCH  31  34
ENDBRANCH  25  31
ENDBRANCH  22  25
ENDBRANCH  10  22
BRANCH   1  45
ATOM     45  CAX KR2 d          -4.315   0.600  -5.794  0.00  0.00     0.001 A 
ATOM     46  CAY KR2 d          -5.560   1.223  -5.826  0.00  0.00    -0.072 A 
ATOM     47  CBC KR2 d          -6.169   1.629  -4.641  0.00  0.00    -0.082 A 
ATOM     48  H1  KR2 d          -6.057   1.392  -6.774  0.00  0.00     0.084 H 
ATOM     49  CBB KR2 d          -5.532   1.410  -3.420  0.00  0.00    -0.083 A 
ATOM     50  H2  KR2 d          -7.137   2.115  -4.667  0.00  0.00     0.083 H 
ATOM     51  CBA KR2 d          -4.293   0.775  -3.388  0.00  0.00    -0.082 A 
ATOM     52  H3  KR2 d          -6.001   1.733  -2.498  0.00  0.00     0.083 H 
ATOM     53  CAZ KR2 d          -3.687   0.366  -4.573  0.00  0.00    -0.072 A 
ATOM     54  H4  KR2 d          -3.799   0.600  -2.439  0.00  0.00     0.083 H 
ATOM     55  H5  KR2 d          -2.727  -0.136  -4.545  0.00  0.00     0.084 H 
ENDBRANCH   1  45
TORSDOF 6
ENDMDL
MODEL 8
REMARK VINA RESULT:      -6.0      3.024      6.549
REMARK  6 active torsions:
REMARK  status: ('A' for Active; 'I' for Inactive)
REMARK    1  A    between atoms: CAX_6  and  CAW_7 
REMARK       I    between atoms: CAW_7  and  NAR_9 
REMARK    2  A    between atoms: CAO_16  and  CAN_18 
REMARK    3  A    between atoms: CAN_18  and  CAL_19 
REMARK    4  A    between atoms: CAL_19  and  NAM_20 
REMARK    5  A    between atoms: CAL_19  and  CAK_21 
REMARK    6  A    between atoms: CAK_21  and  CAG_22 
ROOT
ATOM      1  CAW KR2 d          -5.791   3.092  -4.525  0.00  0.00     0.250 C 
ATOM      2  OAA KR2 d          -6.634   4.221  -4.272  0.00  0.00    -0.199 OA
ATOM      3  NAR KR2 d          -4.406   3.338  -4.090  0.00  0.00    -0.181 NA
ATOM      4  CAV KR2 d          -4.102   2.488  -2.927  0.00  0.00     0.001 C 
ATOM      5  CDD KR2 d          -3.396   3.208  -1.776  0.00  0.00    -0.052 C 
ATOM      6  CNN KR2 d          -4.314   4.159  -1.005  0.00  0.00    -0.062 C 
ATOM      7  CAT KR2 d          -4.415   5.548  -1.644  0.00  0.00    -0.049 C 
ATOM      8  CAS KR2 d          -5.041   5.529  -3.043  0.00  0.00     0.013 C 
ATOM      9  NAQ KR2 d          -4.239   4.681  -3.942  0.00  0.00    -0.288 N 
ATOM     10  CAO KR2 d          -3.108   5.139  -4.467  0.00  0.00     0.170 C 
ATOM     11  OAP KR2 d          -2.106   4.334  -4.903  0.00  0.00    -0.176 OA
ATOM     12  H6  KR2 d          -3.456   1.664  -3.263  0.00  0.00     0.058 H 
ATOM     13  H7  KR2 d          -5.049   2.079  -2.545  0.00  0.00     0.058 H 
ATOM     14  H8  KR2 d          -2.558   3.789  -2.190  0.00  0.00     0.034 H 
ATOM     15  H9  KR2 d          -3.008   2.453  -1.077  0.00  0.00     0.034 H 
ATOM     16  H10 KR2 d          -3.923   4.272   0.017  0.00  0.00     0.033 H 
ATOM     17  H11 KR2 d          -5.322   3.718  -0.966  0.00  0.00     0.033 H 
ATOM     18  H12 KR2 d          -3.403   5.972  -1.721  0.00  0.00     0.035 H 
ATOM     19  H13 KR2 d          -5.032   6.187  -0.995  0.00  0.00     0.035 H 
ATOM     20  H14 KR2 d          -5.074   6.553  -3.442  0.00  0.00     0.066 H 
ATOM     21  H15 KR2 d          -6.063   5.127  -2.979  0.00  0.00     0.066 H 
ENDROOT
BRANCH  10  22
ATOM     22  CAN KR2 d          -2.866   6.645  -4.510  0.00  0.00     0.025 C 
ATOM     23  H16 KR2 d          -1.788   6.842  -4.419  0.00  0.00     0.048 H 
ATOM     24  H17 KR2 d          -3.398   7.123  -3.673  0.00  0.00     0.048 H 
BRANCH  22  25
ATOM     25  CAL KR2 d          -3.374   7.227  -5.829  0.00  0.00     0.111 C 
ATOM     26  H18 KR2 d          -3.754   8.245  -5.653  0.00  0.00     0.085 H 
BRANCH  25  27
ATOM     27  NAM KR2 d          -4.424   6.315  -6.302  0.00  0.00    -0.074 N 
ATOM     28  H19 KR2 d          -4.999   6.032  -5.525  0.00  0.00     0.274 HD
ATOM     29  H20 KR2 d          -3.999   5.501  -6.719  0.00  0.00     0.274 HD
ATOM     30  H21 KR2 d          -4.993   6.785  -6.989  0.00  0.00     0.274 HD
ENDBRANCH  25  27
BRANCH  25  31
ATOM     31  CAK KR2 d          -2.402   7.227  -7.008  0.00  0.00    -0.011 C 
ATOM     32  H22 KR2 d          -1.446   6.840  -6.624  0.00  0.00     0.043 H 
ATOM     33  H23 KR2 d          -2.278   8.277  -7.311  0.00  0.00     0.043 H 
BRANCH  31  34
ATOM     34  CAG KR2 d          -2.680   6.511  -8.168  0.00  0.00    -0.015 A 
ATOM     35  CAH KR2 d          -3.679   6.932  -9.032  0.00  0.00    -0.034 A 
ATOM     36  CAC KR2 d          -4.139   6.129 -10.072  0.00  0.00     0.155 A 
ATOM     37  H24 KR2 d          -4.115   7.915  -8.894  0.00  0.00     0.089 H 
ATOM     38  FAB KR2 d          -4.989   6.659 -10.969  0.00  0.00    -0.203 F 
ATOM     39  CAD KR2 d          -3.597   4.857 -10.231  0.00  0.00     0.157 A 
ATOM     40  FAI KR2 d          -4.223   3.908 -10.955  0.00  0.00    -0.203 F 
ATOM     41  CAE KR2 d          -2.538   4.467  -9.423  0.00  0.00    -0.005 A 
ATOM     42  CAF KR2 d          -2.062   5.285  -8.404  0.00  0.00     0.125 A 
ATOM     43  H25 KR2 d          -2.070   3.503  -9.590  0.00  0.00     0.093 H 
ATOM     44  FAJ KR2 d          -1.079   4.811  -7.621  0.00  0.00    -0.205 F 
ENDBRANCH  31  34
ENDBRANCH  25  31
ENDBRANCH  22  25
ENDBRANCH  10  22
BRANCH   1  45
ATOM     45  CAX KR2 d          -5.656   2.914  -6.042  0.00  0.00     0.001 A 
ATOM     46  CAY KR2 d          -6.576   3.519  -6.895  0.00  0.00    -0.072 A 
ATOM     47  CBC KR2 d          -6.621   3.161  -8.240  0.00  0.00    -0.082 A 
ATOM     48  H1  KR2 d          -7.259   4.268  -6.511  0.00  0.00     0.084 H 
ATOM     49  CBB KR2 d          -5.743   2.199  -8.735  0.00  0.00    -0.083 A 
ATOM     50  H2  KR2 d          -7.339   3.631  -8.902  0.00  0.00     0.083 H 
ATOM     51  CBA KR2 d          -4.814   1.604  -7.884  0.00  0.00    -0.082 A 
ATOM     52  H3  KR2 d          -5.783   1.914  -9.780  0.00  0.00     0.083 H 
ATOM     53  CAZ KR2 d          -4.767   1.965  -6.540  0.00  0.00    -0.072 A 
ATOM     54  H4  KR2 d          -4.127   0.859  -8.269  0.00  0.00     0.083 H 
ATOM     55  H5  KR2 d          -4.037   1.507  -5.882  0.00  0.00     0.084 H 
ENDBRANCH   1  45
TORSDOF 6
ENDMDL
MODEL 9
REMARK VINA RESULT:      -5.7      3.509      6.999
REMARK  6 active torsions:
REMARK  status: ('A' for Active; 'I' for Inactive)
REMARK    1  A    between atoms: CAX_6  and  CAW_7 
REMARK       I    between atoms: CAW_7  and  NAR_9 
REMARK    2  A    between atoms: CAO_16  and  CAN_18 
REMARK    3  A    between atoms: CAN_18  and  CAL_19 
REMARK    4  A    between atoms: CAL_19  and  NAM_20 
REMARK    5  A    between atoms: CAL_19  and  CAK_21 
REMARK    6  A    between atoms: CAK_21  and  CAG_22 
ROOT
ATOM      1  CAW KR2 d          -2.856   4.179  -3.988  0.00  0.00     0.250 C 
ATOM      2  OAA KR2 d          -2.048   3.324  -4.805  0.00  0.00    -0.199 OA
ATOM      3  NAR KR2 d          -4.159   3.566  -3.680  0.00  0.00    -0.181 NA
ATOM      4  CAV KR2 d          -4.211   3.228  -2.248  0.00  0.00     0.001 C 
ATOM      5  CDD KR2 d          -4.752   1.830  -1.942  0.00  0.00    -0.052 C 
ATOM      6  CNN KR2 d          -3.773   0.711  -2.304  0.00  0.00    -0.062 C 
ATOM      7  CAT KR2 d          -3.861   0.285  -3.773  0.00  0.00    -0.049 C 
ATOM      8  CAS KR2 d          -3.482   1.401  -4.753  0.00  0.00     0.013 C 
ATOM      9  NAQ KR2 d          -4.375   2.558  -4.568  0.00  0.00    -0.288 N 
ATOM     10  CAO KR2 d          -5.603   2.547  -5.075  0.00  0.00     0.170 C 
ATOM     11  OAP KR2 d          -6.617   3.312  -4.595  0.00  0.00    -0.176 OA
ATOM     12  H6  KR2 d          -4.856   3.963  -1.745  0.00  0.00     0.058 H 
ATOM     13  H7  KR2 d          -3.191   3.297  -1.842  0.00  0.00     0.058 H 
ATOM     14  H8  KR2 d          -5.680   1.681  -2.514  0.00  0.00     0.034 H 
ATOM     15  H9  KR2 d          -4.971   1.768  -0.866  0.00  0.00     0.034 H 
ATOM     16  H10 KR2 d          -3.991  -0.163  -1.672  0.00  0.00     0.033 H 
ATOM     17  H11 KR2 d          -2.749   1.063  -2.103  0.00  0.00     0.033 H 
ATOM     18  H12 KR2 d          -4.895  -0.028  -3.984  0.00  0.00     0.035 H 
ATOM     19  H13 KR2 d          -3.181  -0.565  -3.932  0.00  0.00     0.035 H 
ATOM     20  H14 KR2 d          -3.576   1.029  -5.784  0.00  0.00     0.066 H 
ATOM     21  H15 KR2 d          -2.442   1.709  -4.568  0.00  0.00     0.066 H 
ENDROOT
BRANCH  10  22
ATOM     22  CAN KR2 d          -5.935   1.567  -6.197  0.00  0.00     0.025 C 
ATOM     23  H16 KR2 d          -6.923   1.122  -6.008  0.00  0.00     0.048 H 
ATOM     24  H17 KR2 d          -5.174   0.773  -6.222  0.00  0.00     0.048 H 
BRANCH  22  25
ATOM     25  CAL KR2 d          -5.956   2.289  -7.543  0.00  0.00     0.111 C 
ATOM     26  H18 KR2 d          -6.480   3.250  -7.431  0.00  0.00     0.085 H 
BRANCH  25  27
ATOM     27  NAM KR2 d          -6.640   1.389  -8.481  0.00  0.00    -0.074 N 
ATOM     28  H19 KR2 d          -6.157   0.505  -8.511  0.00  0.00     0.274 HD
ATOM     29  H20 KR2 d          -6.644   1.800  -9.401  0.00  0.00     0.274 HD
ATOM     30  H21 KR2 d          -7.590   1.242  -8.175  0.00  0.00     0.274 HD
ENDBRANCH  25  27
BRANCH  25  31
ATOM     31  CAK KR2 d          -4.612   2.503  -8.237  0.00  0.00    -0.011 C 
ATOM     32  H22 KR2 d          -4.609   1.851  -9.122  0.00  0.00     0.043 H 
ATOM     33  H23 KR2 d          -3.839   2.165  -7.530  0.00  0.00     0.043 H 
BRANCH  31  34
ATOM     34  CAG KR2 d          -4.222   3.765  -8.675  0.00  0.00    -0.015 A 
ATOM     35  CAH KR2 d          -2.987   4.282  -8.318  0.00  0.00    -0.034 A 
ATOM     36  CAC KR2 d          -2.656   5.617  -8.541  0.00  0.00     0.155 A 
ATOM     37  H24 KR2 d          -2.257   3.631  -7.851  0.00  0.00     0.089 H 
ATOM     38  FAB KR2 d          -1.389   6.013  -8.321  0.00  0.00    -0.203 F 
ATOM     39  CAD KR2 d          -3.604   6.459  -9.115  0.00  0.00     0.157 A 
ATOM     40  FAI KR2 d          -3.502   7.800  -9.027  0.00  0.00    -0.203 F 
ATOM     41  CAE KR2 d          -4.807   5.923  -9.553  0.00  0.00    -0.005 A 
ATOM     42  CAF KR2 d          -5.121   4.583  -9.354  0.00  0.00     0.125 A 
ATOM     43  H25 KR2 d          -5.519   6.564 -10.061  0.00  0.00     0.093 H 
ATOM     44  FAJ KR2 d          -6.333   4.154  -9.745  0.00  0.00    -0.205 F 
ENDBRANCH  31  34
ENDBRANCH  25  31
ENDBRANCH  22  25
ENDBRANCH  10  22
BRANCH   1  45
ATOM     45  CAX KR2 d          -3.235   5.419  -4.807  0.00  0.00     0.001 A 
ATOM     46  CAY KR2 d          -2.255   6.345  -5.157  0.00  0.00    -0.072 A 
ATOM     47  CBC KR2 d          -2.620   7.587  -5.670  0.00  0.00    -0.082 A 
ATOM     48  H1  KR2 d          -1.208   6.099  -5.029  0.00  0.00     0.084 H 
ATOM     49  CBB KR2 d          -3.967   7.904  -5.837  0.00  0.00    -0.083 A 
ATOM     50  H2  KR2 d          -1.857   8.308  -5.940  0.00  0.00     0.083 H 
ATOM     51  CBA KR2 d          -4.946   6.972  -5.499  0.00  0.00    -0.082 A 
ATOM     52  H3  KR2 d          -4.252   8.873  -6.228  0.00  0.00     0.083 H 
ATOM     53  CAZ KR2 d          -4.580   5.729  -4.990  0.00  0.00    -0.072 A 
ATOM     54  H4  KR2 d          -5.994   7.215  -5.633  0.00  0.00     0.083 H 
ATOM     55  H5  KR2 d          -5.343   5.001  -4.737  0.00  0.00     0.084 H 
ENDBRANCH   1  45
TORSDOF 6
ENDMDL
MODEL 10
REMARK VINA RESULT:      -5.6      1.525      2.140
REMARK  6 active torsions:
REMARK  status: ('A' for Active; 'I' for Inactive)
REMARK    1  A    between atoms: CAX_6  and  CAW_7 
REMARK       I    between atoms: CAW_7  and  NAR_9 
REMARK    2  A    between atoms: CAO_16  and  CAN_18 
REMARK    3  A    between atoms: CAN_18  and  CAL_19 
REMARK    4  A    between atoms: CAL_19  and  NAM_20 
REMARK    5  A    between atoms: CAL_19  and  CAK_21 
REMARK    6  A    between atoms: CAK_21  and  CAG_22 
ROOT
ATOM      1  CAW KR2 d          -3.632   3.503  -9.528  0.00  0.00     0.250 C 
ATOM      2  OAA KR2 d          -2.205   3.441  -9.431  0.00  0.00    -0.199 OA
ATOM      3  NAR KR2 d          -4.182   4.629  -8.754  0.00  0.00    -0.181 NA
ATOM      4  CAV KR2 d          -4.721   5.639  -9.679  0.00  0.00     0.001 C 
ATOM      5  CDD KR2 d          -4.324   7.080  -9.351  0.00  0.00    -0.052 C 
ATOM      6  CNN KR2 d          -2.857   7.388  -9.663  0.00  0.00    -0.062 C 
ATOM      7  CAT KR2 d          -1.906   7.002  -8.525  0.00  0.00    -0.049 C 
ATOM      8  CAS KR2 d          -1.885   5.497  -8.235  0.00  0.00     0.013 C 
ATOM      9  NAQ KR2 d          -3.235   5.037  -7.866  0.00  0.00    -0.288 N 
ATOM     10  CAO KR2 d          -3.707   5.253  -6.643  0.00  0.00     0.170 C 
ATOM     11  OAP KR2 d          -5.032   5.292  -6.349  0.00  0.00    -0.176 OA
ATOM     12  H6  KR2 d          -5.818   5.573  -9.658  0.00  0.00     0.058 H 
ATOM     13  H7  KR2 d          -4.359   5.406 -10.690  0.00  0.00     0.058 H 
ATOM     14  H8  KR2 d          -4.498   7.256  -8.279  0.00  0.00     0.034 H 
ATOM     15  H9  KR2 d          -4.956   7.759  -9.941  0.00  0.00     0.034 H 
ATOM     16  H10 KR2 d          -2.758   8.467  -9.851  0.00  0.00     0.033 H 
ATOM     17  H11 KR2 d          -2.567   6.830 -10.566  0.00  0.00     0.033 H 
ATOM     18  H12 KR2 d          -2.222   7.528  -7.612  0.00  0.00     0.035 H 
ATOM     19  H13 KR2 d          -0.889   7.318  -8.798  0.00  0.00     0.035 H 
ATOM     20  H14 KR2 d          -1.191   5.294  -7.406  0.00  0.00     0.066 H 
ATOM     21  H15 KR2 d          -1.550   4.958  -9.134  0.00  0.00     0.066 H 
ENDROOT
BRANCH  10  22
ATOM     22  CAN KR2 d          -2.730   5.564  -5.513  0.00  0.00     0.025 C 
ATOM     23  H16 KR2 d          -3.093   6.436  -4.949  0.00  0.00     0.048 H 
ATOM     24  H17 KR2 d          -1.741   5.789  -5.940  0.00  0.00     0.048 H 
BRANCH  22  25
ATOM     25  CAL KR2 d          -2.612   4.368  -4.569  0.00  0.00     0.111 C 
ATOM     26  H18 KR2 d          -1.685   4.458  -3.984  0.00  0.00     0.085 H 
BRANCH  25  27
ATOM     27  NAM KR2 d          -2.618   3.171  -5.422  0.00  0.00    -0.074 N 
ATOM     28  H19 KR2 d          -2.757   2.352  -4.850  0.00  0.00     0.274 HD
ATOM     29  H20 KR2 d          -1.738   3.098  -5.906  0.00  0.00     0.274 HD
ATOM     30  H21 KR2 d          -3.366   3.242  -6.094  0.00  0.00     0.274 HD
ENDBRANCH  25  27
BRANCH  25  31
ATOM     31  CAK KR2 d          -3.794   4.098  -3.640  0.00  0.00    -0.011 C 
ATOM     32  H22 KR2 d          -3.876   3.005  -3.547  0.00  0.00     0.043 H 
ATOM     33  H23 KR2 d          -4.687   4.491  -4.149  0.00  0.00     0.043 H 
BRANCH  31  34
ATOM     34  CAG KR2 d          -3.821   4.607  -2.345  0.00  0.00    -0.015 A 
ATOM     35  CAH KR2 d          -2.960   4.113  -1.378  0.00  0.00    -0.034 A 
ATOM     36  CAC KR2 d          -3.110   4.430  -0.029  0.00  0.00     0.155 A 
ATOM     37  H24 KR2 d          -2.147   3.461  -1.678  0.00  0.00     0.089 H 
ATOM     38  FAB KR2 d          -2.148   4.051   0.832  0.00  0.00    -0.203 F 
ATOM     39  CAD KR2 d          -4.169   5.245   0.358  0.00  0.00     0.157 A 
ATOM     40  FAI KR2 d          -4.590   5.295   1.637  0.00  0.00    -0.203 F 
ATOM     41  CAE KR2 d          -4.979   5.810  -0.618  0.00  0.00    -0.005 A 
ATOM     42  CAF KR2 d          -4.807   5.514  -1.966  0.00  0.00     0.125 A 
ATOM     43  H25 KR2 d          -5.762   6.499  -0.322  0.00  0.00     0.093 H 
ATOM     44  FAJ KR2 d          -5.672   6.048  -2.844  0.00  0.00    -0.205 F 
ENDBRANCH  31  34
ENDBRANCH  25  31
ENDBRANCH  22  25
ENDBRANCH  10  22
BRANCH   1  45
ATOM     45  CAX KR2 d          -4.223   2.273  -8.829  0.00  0.00     0.001 A 
ATOM     46  CAY KR2 d          -5.561   2.270  -8.444  0.00  0.00    -0.072 A 
ATOM     47  CBC KR2 d          -6.040   1.280  -7.590  0.00  0.00    -0.082 A 
ATOM     48  H1  KR2 d          -6.231   3.040  -8.810  0.00  0.00     0.084 H 
ATOM     49  CBB KR2 d          -5.180   0.288  -7.122  0.00  0.00    -0.083 A 
ATOM     50  H2  KR2 d          -7.081   1.280  -7.290  0.00  0.00     0.083 H 
ATOM     51  CBA KR2 d          -3.844   0.284  -7.517  0.00  0.00    -0.082 A 
ATOM     52  H3  KR2 d          -5.550  -0.478  -6.450  0.00  0.00     0.083 H 
ATOM     53  CAZ KR2 d          -3.367   1.272  -8.374  0.00  0.00    -0.072 A 
ATOM     54  H4  KR2 d          -3.175  -0.489  -7.157  0.00  0.00     0.083 H 
ATOM     55  H5  KR2 d          -2.329   1.263  -8.688  0.00  0.00     0.084 H 
ENDBRANCH   1  45
TORSDOF 6
ENDMDL
