REMARK  10 active torsions:
REMARK  status: ('A' for Active; 'I' for Inactive)
REMARK    1  A    between atoms: C12_12  and  C21_21 
REMARK    2  A    between atoms: C13_13  and  C22_22 
REMARK    3  A    between atoms: C24_24  and  C14_14 
REMARK    4  A    between atoms: C25_25  and  C15_15 
REMARK    5  A    between atoms: C26_26  and  C16_16 
REMARK    6  A    between atoms: C27_27  and  C20_20 
REMARK       I    between atoms: C21_21  and  N28_28 
REMARK    7  A    between atoms: N28_28  and  C24_24 
REMARK    8  A    between atoms: N29_29  and  C25_25 
REMARK    9  A    between atoms: N29_29  and  C26_26 
REMARK   10  A    between atoms: C27_27  and  N29_29 
ROOT
ATOM      1  C25 N44 d         -10.260  48.639   1.757  0.00  0.00     0.109 C 
ATOM      2  H19 N44 d          -9.248  48.378   1.413  0.00  0.00     0.083 H 
ATOM      3  H20 N44 d         -10.438  49.712   1.591  0.00  0.00     0.083 H 
ENDROOT
BRANCH   1   4
ATOM      4  C15 N44 d         -10.328  48.382   3.222  0.00  0.00    -0.017 A 
ATOM      5  C9  N44 d         -11.316  49.026   3.942  0.00  0.00    -0.074 A 
ATOM      6  C5  N44 d         -11.443  48.843   5.308  0.00  0.00    -0.082 A 
ATOM      7  H9  N44 d         -12.004  49.687   3.428  0.00  0.00     0.084 H 
ATOM      8  C2  N44 d         -10.561  48.006   5.946  0.00  0.00    -0.082 A 
ATOM      9  H5  N44 d         -12.223  49.350   5.863  0.00  0.00     0.083 H 
ATOM     10  C6  N44 d          -9.569  47.355   5.237  0.00  0.00    -0.067 A 
ATOM     11  H2  N44 d         -10.643  47.854   7.016  0.00  0.00     0.083 H 
ATOM     12  C12 N44 d          -9.442  47.532   3.870  0.00  0.00     0.040 A 
ATOM     13  H6  N44 d          -8.882  46.698   5.758  0.00  0.00     0.085 H 
BRANCH  12  14
ATOM     14  C21 N44 d          -8.353  46.817   3.140  0.00  0.00     0.252 C 
ATOM     15  N28 N44 d          -8.114  45.485   3.450  0.00  0.00    -0.353 N 
ATOM     16  H25 N44 d          -8.671  45.028   4.143  0.00  0.00     0.163 HD
ATOM     17  O31 N44 d          -7.701  47.422   2.303  0.00  0.00    -0.268 OA
BRANCH  15  18
ATOM     18  C24 N44 d          -7.061  44.755   2.774  0.00  0.00     0.019 C 
ATOM     19  H17 N44 d          -6.372  45.471   2.303  0.00  0.00     0.071 H 
ATOM     20  H18 N44 d          -6.513  44.149   3.511  0.00  0.00     0.071 H 
BRANCH  18  21
ATOM     21  C14 N44 d          -7.625  43.854   1.721  0.00  0.00    -0.041 A 
ATOM     22  C7  N44 d          -7.831  42.517   1.982  0.00  0.00    -0.075 A 
ATOM     23  C3  N44 d          -8.366  41.688   1.024  0.00  0.00    -0.082 A 
ATOM     24  H7  N44 d          -7.568  42.114   2.953  0.00  0.00     0.084 H 
ATOM     25  C1  N44 d          -8.699  42.190  -0.216  0.00  0.00    -0.083 A 
ATOM     26  H3  N44 d          -8.526  40.639   1.244  0.00  0.00     0.083 H 
ATOM     27  C4  N44 d          -8.479  43.521  -0.493  0.00  0.00    -0.082 A 
ATOM     28  H1  N44 d          -9.132  41.541  -0.969  0.00  0.00     0.083 H 
ATOM     29  C8  N44 d          -7.950  44.351   0.473  0.00  0.00    -0.075 A 
ATOM     30  H4  N44 d          -8.722  43.917  -1.472  0.00  0.00     0.083 H 
ATOM     31  H8  N44 d          -7.788  45.400   0.252  0.00  0.00     0.084 H 
ENDBRANCH  18  21
ENDBRANCH  15  18
ENDBRANCH  12  14
ENDBRANCH   1   4
BRANCH   1  32
ATOM     32  N29 N44 d         -11.236  47.879   0.933  0.00  0.00    -0.060 N 
ATOM     33  H26 N44 d         -12.090  47.917   1.467  0.00  0.00     0.281 HD
BRANCH  32  34
ATOM     34  C26 N44 d         -10.979  46.401   0.795  0.00  0.00     0.109 C 
ATOM     35  H21 N44 d          -9.947  46.244   0.450  0.00  0.00     0.083 H 
ATOM     36  H22 N44 d         -11.116  45.917   1.773  0.00  0.00     0.083 H 
BRANCH  34  37
ATOM     37  C16 N44 d         -11.930  45.792  -0.196  0.00  0.00    -0.013 A 
ATOM     38  C10 N44 d         -11.415  45.410  -1.435  0.00  0.00    -0.071 A 
ATOM     39  C11 N44 d         -12.224  44.844  -2.412  0.00  0.00    -0.047 A 
ATOM     40  H10 N44 d         -10.361  45.558  -1.640  0.00  0.00     0.084 H 
ATOM     41  C17 N44 d         -13.554  44.685  -2.097  0.00  0.00     0.106 A 
ATOM     42  H11 N44 d         -11.827  44.542  -3.375  0.00  0.00     0.087 H 
ATOM     43  C18 N44 d         -14.072  45.058  -0.882  0.00  0.00     0.122 A 
ATOM     44  O33 N44 d         -14.497  44.151  -2.940  0.00  0.00    -0.323 OA
ATOM     45  C13 N44 d         -13.284  45.628   0.109  0.00  0.00     0.085 A 
ATOM     46  O34 N44 d         -15.442  44.802  -0.811  0.00  0.00    -0.322 OA
ATOM     47  C23 N44 d         -15.678  44.229  -2.110  0.00  0.00     0.115 A 
ATOM     48  H15 N44 d         -16.073  43.211  -1.973  0.00  0.00     0.118 H 
ATOM     49  H16 N44 d         -16.426  44.846  -2.630  0.00  0.00     0.118 H 
BRANCH  45  50
ATOM     50  C22 N44 d         -13.863  46.014   1.447  0.00  0.00     0.212 C 
ATOM     51  O30 N44 d         -14.825  45.312   1.866  0.00  0.00    -0.644 OA
ATOM     52  O32 N44 d         -13.362  46.969   2.113  0.00  0.00    -0.644 OA
ENDBRANCH  45  50
ENDBRANCH  34  37
ENDBRANCH  32  34
BRANCH  32  53
ATOM     53  C27 N44 d         -11.565  48.604  -0.340  0.00  0.00     0.099 C 
ATOM     54  H23 N44 d         -12.407  48.086  -0.822  0.00  0.00     0.082 H 
ATOM     55  H24 N44 d         -11.864  49.631  -0.083  0.00  0.00     0.082 H 
BRANCH  53  56
ATOM     56  C20 N44 d         -10.442  48.677  -1.317  0.00  0.00    -0.087 C 
ATOM     57  C19 N44 d          -9.775  49.815  -1.544  0.00  0.00    -0.123 C 
ATOM     58  H12 N44 d          -8.959  49.833  -2.265  0.00  0.00     0.066 H 
ATOM     59  H13 N44 d         -10.048  50.722  -1.008  0.00  0.00     0.066 H 
ATOM     60  H14 N44 d         -10.156  47.779  -1.862  0.00  0.00     0.078 H 
ENDBRANCH  53  56
ENDBRANCH  32  53
ENDBRANCH   1  32
TORSDOF 10
