MODEL 1
REMARK VINA RESULT:      -5.9      0.000      0.000
REMARK  2 active torsions:
REMARK  status: ('A' for Active; 'I' for Inactive)
REMARK    1  A    between atoms: OAH_8  and  CAA_1 
REMARK    2  A    between atoms: OAH_8  and  CAI_9 
ROOT
ATOM      1  CAB BZ3 d          12.387   9.284  -4.587  0.00  0.00    -0.022 A 
ATOM      2  CAC BZ3 d          14.445  10.742  -0.758  0.00  0.00    -0.049 A 
ATOM      3  CAD BZ3 d          13.774   9.239  -4.634  0.00  0.00    -0.056 A 
ATOM      4  CAE BZ3 d          13.166  10.556  -1.283  0.00  0.00    -0.054 A 
ATOM      5  CAF BZ3 d          15.423   9.923  -2.821  0.00  0.00    -0.039 A 
ATOM      6  NAG BZ3 d          11.977   9.753  -3.375  0.00  0.00    -0.365 N 
ATOM      7  CAI BZ3 d          15.566  10.418  -1.519  0.00  0.00     0.069 A 
ATOM      8  CAJ BZ3 d          14.141   9.734  -3.347  0.00  0.00    -0.005 A 
ATOM      9  CAK BZ3 d          13.034  10.054  -2.587  0.00  0.00     0.042 A 
ATOM     10  H4  BZ3 d          11.724   8.988  -5.399  0.00  0.00     0.111 H 
ATOM     11  H5  BZ3 d          14.568  11.139   0.244  0.00  0.00     0.087 H 
ATOM     12  H6  BZ3 d          14.419   8.909  -5.447  0.00  0.00     0.086 H 
ATOM     13  H7  BZ3 d          12.288  10.796  -0.694  0.00  0.00     0.087 H 
ATOM     14  H8  BZ3 d          16.298   9.689  -3.416  0.00  0.00     0.089 H 
ATOM     15  H9  BZ3 d          10.991   9.863  -3.095  0.00  0.00     0.165 HD
ENDROOT
BRANCH   7  16
ATOM     16  OAH BZ3 d          16.817  10.615  -0.983  0.00  0.00    -0.356 OA
BRANCH  16  17
ATOM     17  CAA BZ3 d          16.976  11.171   0.324  0.00  0.00     0.010 C 
ATOM     18  H1  BZ3 d          18.020  11.491   0.462  0.00  0.00     0.066 H 
ATOM     19  H2  BZ3 d          16.722  10.412   1.078  0.00  0.00     0.066 H 
ATOM     20  H3  BZ3 d          16.310  12.039   0.437  0.00  0.00     0.066 H 
ENDBRANCH  16  17
ENDBRANCH   7  16
TORSDOF 2
ENDMDL
MODEL 2
REMARK VINA RESULT:      -5.8      2.549      4.554
REMARK  2 active torsions:
REMARK  status: ('A' for Active; 'I' for Inactive)
REMARK    1  A    between atoms: OAH_8  and  CAA_1 
REMARK    2  A    between atoms: OAH_8  and  CAI_9 
ROOT
ATOM      1  CAB BZ3 d          14.907  10.431  -0.109  0.00  0.00    -0.022 A 
ATOM      2  CAC BZ3 d          14.526   9.717  -4.623  0.00  0.00    -0.049 A 
ATOM      3  CAD BZ3 d          13.601  10.267  -0.551  0.00  0.00    -0.056 A 
ATOM      4  CAE BZ3 d          15.504   9.933  -3.650  0.00  0.00    -0.054 A 
ATOM      5  CAF BZ3 d          12.795   9.852  -2.928  0.00  0.00    -0.039 A 
ATOM      6  NAG BZ3 d          15.771  10.324  -1.158  0.00  0.00    -0.365 N 
ATOM      7  CAI BZ3 d          13.181   9.667  -4.261  0.00  0.00     0.069 A 
ATOM      8  CAJ BZ3 d          13.775  10.066  -1.953  0.00  0.00    -0.005 A 
ATOM      9  CAK BZ3 d          15.106  10.111  -2.316  0.00  0.00     0.042 A 
ATOM     10  H4  BZ3 d          15.199  10.618   0.924  0.00  0.00     0.111 H 
ATOM     11  H5  BZ3 d          14.813   9.588  -5.660  0.00  0.00     0.087 H 
ATOM     12  H6  BZ3 d          12.678  10.287   0.026  0.00  0.00     0.086 H 
ATOM     13  H7  BZ3 d          16.553   9.962  -3.920  0.00  0.00     0.087 H 
ATOM     14  H8  BZ3 d          11.747   9.830  -2.655  0.00  0.00     0.089 H 
ATOM     15  H9  BZ3 d          16.796  10.395  -1.079  0.00  0.00     0.165 HD
ENDROOT
BRANCH   7  16
ATOM     16  OAH BZ3 d          12.235   9.459  -5.238  0.00  0.00    -0.356 OA
BRANCH  16  17
ATOM     17  CAA BZ3 d          10.842   9.596  -4.950  0.00  0.00     0.010 C 
ATOM     18  H1  BZ3 d          10.345  10.117  -5.782  0.00  0.00     0.066 H 
ATOM     19  H2  BZ3 d          10.714  10.177  -4.025  0.00  0.00     0.066 H 
ATOM     20  H3  BZ3 d          10.394   8.600  -4.822  0.00  0.00     0.066 H 
ENDBRANCH  16  17
ENDBRANCH   7  16
TORSDOF 2
ENDMDL
MODEL 3
REMARK VINA RESULT:      -5.1      2.272      4.224
REMARK  2 active torsions:
REMARK  status: ('A' for Active; 'I' for Inactive)
REMARK    1  A    between atoms: OAH_8  and  CAA_1 
REMARK    2  A    between atoms: OAH_8  and  CAI_9 
ROOT
ATOM      1  CAB BZ3 d          16.476  10.888   0.072  0.00  0.00    -0.022 A 
ATOM      2  CAC BZ3 d          12.627  10.118  -2.298  0.00  0.00    -0.049 A 
ATOM      3  CAD BZ3 d          16.686  10.467  -1.234  0.00  0.00    -0.056 A 
ATOM      4  CAE BZ3 d          13.041  10.532  -1.031  0.00  0.00    -0.054 A 
ATOM      5  CAF BZ3 d          14.940   9.891  -2.992  0.00  0.00    -0.039 A 
ATOM      6  NAG BZ3 d          15.139  10.980   0.323  0.00  0.00    -0.365 N 
ATOM      7  CAI BZ3 d          13.571   9.810  -3.275  0.00  0.00     0.069 A 
ATOM      8  CAJ BZ3 d          15.356  10.308  -1.724  0.00  0.00    -0.005 A 
ATOM      9  CAK BZ3 d          14.416  10.616  -0.761  0.00  0.00     0.042 A 
ATOM     10  H4  BZ3 d          17.263  11.113   0.791  0.00  0.00     0.111 H 
ATOM     11  H5  BZ3 d          11.570  10.037  -2.522  0.00  0.00     0.087 H 
ATOM     12  H6  BZ3 d          17.629  10.300  -1.753  0.00  0.00     0.086 H 
ATOM     13  H7  BZ3 d          12.314  10.785  -0.268  0.00  0.00     0.087 H 
ATOM     14  H8  BZ3 d          15.671   9.633  -3.750  0.00  0.00     0.089 H 
ATOM     15  H9  BZ3 d          14.733  11.286   1.219  0.00  0.00     0.165 HD
ENDROOT
BRANCH   7  16
ATOM     16  OAH BZ3 d          13.140   9.398  -4.514  0.00  0.00    -0.356 OA
BRANCH  16  17
ATOM     17  CAA BZ3 d          11.746   9.339  -4.823  0.00  0.00     0.010 C 
ATOM     18  H1  BZ3 d          11.342   8.364  -4.513  0.00  0.00     0.066 H 
ATOM     19  H2  BZ3 d          11.605   9.467  -5.907  0.00  0.00     0.066 H 
ATOM     20  H3  BZ3 d          11.217  10.141  -4.288  0.00  0.00     0.066 H 
ENDBRANCH  16  17
ENDBRANCH   7  16
TORSDOF 2
ENDMDL
MODEL 4
REMARK VINA RESULT:      -4.5      1.275      2.143
REMARK  2 active torsions:
REMARK  status: ('A' for Active; 'I' for Inactive)
REMARK    1  A    between atoms: OAH_8  and  CAA_1 
REMARK    2  A    between atoms: OAH_8  and  CAI_9 
ROOT
ATOM      1  CAB BZ3 d          11.262   9.354  -4.663  0.00  0.00    -0.022 A 
ATOM      2  CAC BZ3 d          15.591  10.136  -3.370  0.00  0.00    -0.049 A 
ATOM      3  CAD BZ3 d          11.438   9.445  -3.289  0.00  0.00    -0.056 A 
ATOM      4  CAE BZ3 d          14.833   9.962  -4.529  0.00  0.00    -0.054 A 
ATOM      5  CAF BZ3 d          13.600   9.858  -2.013  0.00  0.00    -0.039 A 
ATOM      6  NAG BZ3 d          12.454   9.537  -5.299  0.00  0.00    -0.365 N 
ATOM      7  CAI BZ3 d          14.976  10.094  -2.121  0.00  0.00     0.069 A 
ATOM      8  CAJ BZ3 d          12.839   9.686  -3.174  0.00  0.00    -0.005 A 
ATOM      9  CAK BZ3 d          13.454   9.731  -4.409  0.00  0.00     0.042 A 
ATOM     10  H4  BZ3 d          10.311   9.165  -5.160  0.00  0.00     0.111 H 
ATOM     11  H5  BZ3 d          16.660  10.304  -3.442  0.00  0.00     0.087 H 
ATOM     12  H6  BZ3 d          10.694   9.356  -2.498  0.00  0.00     0.086 H 
ATOM     13  H7  BZ3 d          15.302  10.003  -5.506  0.00  0.00     0.087 H 
ATOM     14  H8  BZ3 d          13.129   9.808  -1.038  0.00  0.00     0.089 H 
ATOM     15  H9  BZ3 d          12.577   9.528  -6.322  0.00  0.00     0.165 HD
ENDROOT
BRANCH   7  16
ATOM     16  OAH BZ3 d          15.744  10.262  -0.992  0.00  0.00    -0.356 OA
BRANCH  16  17
ATOM     17  CAA BZ3 d          15.177  10.108   0.311  0.00  0.00     0.010 C 
ATOM     18  H1  BZ3 d          15.723   9.325   0.858  0.00  0.00     0.066 H 
ATOM     19  H2  BZ3 d          14.119   9.821   0.219  0.00  0.00     0.066 H 
ATOM     20  H3  BZ3 d          15.252  11.058   0.859  0.00  0.00     0.066 H 
ENDBRANCH  16  17
ENDBRANCH   7  16
TORSDOF 2
ENDMDL
MODEL 5
REMARK VINA RESULT:      -3.5      2.153      3.840
REMARK  2 active torsions:
REMARK  status: ('A' for Active; 'I' for Inactive)
REMARK    1  A    between atoms: OAH_8  and  CAA_1 
REMARK    2  A    between atoms: OAH_8  and  CAI_9 
ROOT
ATOM      1  CAB BZ3 d          14.582  10.707  -0.118  0.00  0.00    -0.022 A 
ATOM      2  CAC BZ3 d          13.109   9.570  -4.309  0.00  0.00    -0.049 A 
ATOM      3  CAD BZ3 d          15.584  10.654  -1.079  0.00  0.00    -0.056 A 
ATOM      4  CAE BZ3 d          12.617   9.778  -3.019  0.00  0.00    -0.054 A 
ATOM      5  CAF BZ3 d          15.355  10.076  -3.546  0.00  0.00    -0.039 A 
ATOM      6  NAG BZ3 d          13.378  10.411  -0.684  0.00  0.00    -0.365 N 
ATOM      7  CAI BZ3 d          14.468   9.728  -4.571  0.00  0.00     0.069 A 
ATOM      8  CAJ BZ3 d          14.863  10.288  -2.254  0.00  0.00    -0.005 A 
ATOM      9  CAK BZ3 d          13.515  10.133  -2.000  0.00  0.00     0.042 A 
ATOM     10  H4  BZ3 d          14.736  10.951   0.932  0.00  0.00     0.111 H 
ATOM     11  H5  BZ3 d          12.433   9.284  -5.107  0.00  0.00     0.087 H 
ATOM     12  H6  BZ3 d          16.650  10.843  -0.964  0.00  0.00     0.086 H 
ATOM     13  H7  BZ3 d          11.560   9.668  -2.808  0.00  0.00     0.087 H 
ATOM     14  H8  BZ3 d          16.414  10.181  -3.751  0.00  0.00     0.089 H 
ATOM     15  H9  BZ3 d          12.482  10.399  -0.175  0.00  0.00     0.165 HD
ENDROOT
BRANCH   7  16
ATOM     16  OAH BZ3 d          14.931   9.512  -5.848  0.00  0.00    -0.356 OA
BRANCH  16  17
ATOM     17  CAA BZ3 d          16.301   9.180  -6.086  0.00  0.00     0.010 C 
ATOM     18  H1  BZ3 d          16.796  10.015  -6.603  0.00  0.00     0.066 H 
ATOM     19  H2  BZ3 d          16.356   8.276  -6.711  0.00  0.00     0.066 H 
ATOM     20  H3  BZ3 d          16.805   8.993  -5.126  0.00  0.00     0.066 H 
ENDBRANCH  16  17
ENDBRANCH   7  16
TORSDOF 2
ENDMDL
