MODEL 1
REMARK VINA RESULT:      -7.0      0.000      0.000
REMARK  6 active torsions:
REMARK  status: ('A' for Active; 'I' for Inactive)
REMARK    1  A    between atoms: OAE_1  and  CAK_2 
REMARK    2  A    between atoms: CAJ_3  and  OAD_4 
REMARK    3  A    between atoms: CAI_5  and  OAC_6 
REMARK    4  A    between atoms: CAH_7  and  CAA_8 
REMARK    5  A    between atoms: CAL_10  and  CAF_11 
REMARK    6  A    between atoms: CAF_11  and  NAB_12 
ROOT
ATOM      1  CAK ZWZ d          -1.914  26.392  24.813  0.00  0.00     0.091 C 
ATOM      2  CAJ ZWZ d          -1.704  27.464  23.742  0.00  0.00     0.089 C 
ATOM      3  CAI ZWZ d          -0.203  27.730  23.631  0.00  0.00     0.089 C 
ATOM      4  CAH ZWZ d           0.344  28.152  24.999  0.00  0.00     0.126 C 
ATOM      5  NAG ZWZ d           0.040  27.147  26.033  0.00  0.00    -0.060 N 
ATOM      6  CAL ZWZ d          -1.409  26.925  26.159  0.00  0.00     0.152 C 
ATOM      7  H2  ZWZ d          -1.326  25.501  24.546  0.00  0.00     0.090 H 
ATOM      8  H3  ZWZ d          -2.224  28.388  24.036  0.00  0.00     0.091 H 
ATOM      9  H5  ZWZ d          -0.017  28.536  22.905  0.00  0.00     0.090 H 
ATOM     10  H7  ZWZ d          -0.138  29.100  25.281  0.00  0.00     0.087 H 
ATOM     11  H11 ZWZ d           0.401  27.469  26.918  0.00  0.00     0.278 HD
ATOM     12  H12 ZWZ d           0.485  26.277  25.785  0.00  0.00     0.278 HD
ATOM     13  H13 ZWZ d          -1.918  27.870  26.397  0.00  0.00     0.091 H 
ENDROOT
BRANCH   6  14
ATOM     14  CAF ZWZ d          -1.658  25.916  27.283  0.00  0.00     0.108 C 
ATOM     15  H14 ZWZ d          -0.790  25.246  27.366  0.00  0.00     0.078 H 
ATOM     16  H15 ZWZ d          -2.557  25.326  27.046  0.00  0.00     0.078 H 
BRANCH  14  17
ATOM     17  NAB ZWZ d          -1.859  26.607  28.567  0.00  0.00    -0.077 N 
ATOM     18  H16 ZWZ d          -1.499  27.547  28.503  0.00  0.00     0.274 HD
ATOM     19  H17 ZWZ d          -1.371  26.110  29.296  0.00  0.00     0.274 HD
ATOM     20  H18 ZWZ d          -2.843  26.639  28.782  0.00  0.00     0.274 HD
ENDBRANCH  14  17
ENDBRANCH   6  14
BRANCH   1  21
ATOM     21  OAE ZWZ d          -3.292  26.021  24.872  0.00  0.00    -0.391 OA
ATOM     22  H1  ZWZ d          -3.703  26.198  24.034  0.00  0.00     0.210 HD
ENDBRANCH   1  21
BRANCH   2  23
ATOM     23  OAD ZWZ d          -2.211  27.020  22.483  0.00  0.00    -0.390 OA
ATOM     24  H4  ZWZ d          -1.614  27.281  21.792  0.00  0.00     0.210 HD
ENDBRANCH   2  23
BRANCH   4  25
ATOM     25  CAA ZWZ d           1.856  28.370  24.951  0.00  0.00    -0.047 C 
ATOM     26  H8  ZWZ d           2.346  27.461  24.573  0.00  0.00     0.030 H 
ATOM     27  H9  ZWZ d           2.227  28.593  25.962  0.00  0.00     0.030 H 
ATOM     28  H10 ZWZ d           2.085  29.214  24.283  0.00  0.00     0.030 H 
ENDBRANCH   4  25
BRANCH   3  29
ATOM     29  OAC ZWZ d           0.409  26.520  23.171  0.00  0.00    -0.391 OA
ATOM     30  H6  ZWZ d          -0.197  26.053  22.607  0.00  0.00     0.210 HD
ENDBRANCH   3  29
TORSDOF 6
ENDMDL
MODEL 2
REMARK VINA RESULT:      -5.0      1.250      1.435
REMARK  6 active torsions:
REMARK  status: ('A' for Active; 'I' for Inactive)
REMARK    1  A    between atoms: OAE_1  and  CAK_2 
REMARK    2  A    between atoms: CAJ_3  and  OAD_4 
REMARK    3  A    between atoms: CAI_5  and  OAC_6 
REMARK    4  A    between atoms: CAH_7  and  CAA_8 
REMARK    5  A    between atoms: CAL_10  and  CAF_11 
REMARK    6  A    between atoms: CAF_11  and  NAB_12 
ROOT
ATOM      1  CAK ZWZ d          -1.462  27.203  23.995  0.00  0.00     0.091 C 
ATOM      2  CAJ ZWZ d          -0.522  28.201  23.317  0.00  0.00     0.089 C 
ATOM      3  CAI ZWZ d           0.887  27.960  23.855  0.00  0.00     0.089 C 
ATOM      4  CAH ZWZ d           0.883  28.101  25.381  0.00  0.00     0.126 C 
ATOM      5  NAG ZWZ d          -0.104  27.199  26.003  0.00  0.00    -0.060 N 
ATOM      6  CAL ZWZ d          -1.463  27.464  25.506  0.00  0.00     0.152 C 
ATOM      7  H2  ZWZ d          -1.090  26.183  23.816  0.00  0.00     0.090 H 
ATOM      8  H3  ZWZ d          -0.840  29.228  23.553  0.00  0.00     0.091 H 
ATOM      9  H5  ZWZ d           1.584  28.696  23.427  0.00  0.00     0.090 H 
ATOM     10  H7  ZWZ d           0.610  29.139  25.626  0.00  0.00     0.087 H 
ATOM     11  H11 ZWZ d          -0.088  27.335  27.002  0.00  0.00     0.278 HD
ATOM     12  H12 ZWZ d           0.144  26.246  25.788  0.00  0.00     0.278 HD
ATOM     13  H13 ZWZ d          -1.740  28.510  25.700  0.00  0.00     0.091 H 
ENDROOT
BRANCH   6  14
ATOM     14  CAF ZWZ d          -2.442  26.536  26.228  0.00  0.00     0.108 C 
ATOM     15  H14 ZWZ d          -3.317  26.361  25.584  0.00  0.00     0.078 H 
ATOM     16  H15 ZWZ d          -2.766  27.012  27.166  0.00  0.00     0.078 H 
BRANCH  14  17
ATOM     17  NAB ZWZ d          -1.805  25.246  26.537  0.00  0.00    -0.077 N 
ATOM     18  H16 ZWZ d          -2.014  24.986  27.488  0.00  0.00     0.274 HD
ATOM     19  H17 ZWZ d          -0.806  25.329  26.424  0.00  0.00     0.274 HD
ATOM     20  H18 ZWZ d          -2.156  24.539  25.911  0.00  0.00     0.274 HD
ENDBRANCH  14  17
ENDBRANCH   6  14
BRANCH   1  21
ATOM     21  OAE ZWZ d          -2.773  27.307  23.438  0.00  0.00    -0.391 OA
ATOM     22  H1  ZWZ d          -2.724  27.741  22.593  0.00  0.00     0.210 HD
ENDBRANCH   1  21
BRANCH   2  23
ATOM     23  OAD ZWZ d          -0.537  28.018  21.900  0.00  0.00    -0.390 OA
ATOM     24  H4  ZWZ d          -1.422  28.138  21.576  0.00  0.00     0.210 HD
ENDBRANCH   2  23
BRANCH   4  25
ATOM     25  CAA ZWZ d           2.262  27.807  25.972  0.00  0.00    -0.047 C 
ATOM     26  H8  ZWZ d           2.979  27.631  25.158  0.00  0.00     0.030 H 
ATOM     27  H9  ZWZ d           2.204  26.914  26.611  0.00  0.00     0.030 H 
ATOM     28  H10 ZWZ d           2.594  28.667  26.573  0.00  0.00     0.030 H 
ENDBRANCH   4  25
BRANCH   3  29
ATOM     29  OAC ZWZ d           1.276  26.641  23.451  0.00  0.00    -0.391 OA
ATOM     30  H6  ZWZ d           1.972  26.329  24.019  0.00  0.00     0.210 HD
ENDBRANCH   3  29
TORSDOF 6
ENDMDL
MODEL 3
REMARK VINA RESULT:      -4.9      1.273      3.413
REMARK  6 active torsions:
REMARK  status: ('A' for Active; 'I' for Inactive)
REMARK    1  A    between atoms: OAE_1  and  CAK_2 
REMARK    2  A    between atoms: CAJ_3  and  OAD_4 
REMARK    3  A    between atoms: CAI_5  and  OAC_6 
REMARK    4  A    between atoms: CAH_7  and  CAA_8 
REMARK    5  A    between atoms: CAL_10  and  CAF_11 
REMARK    6  A    between atoms: CAF_11  and  NAB_12 
ROOT
ATOM      1  CAK ZWZ d          -0.734  27.952  23.904  0.00  0.00     0.091 C 
ATOM      2  CAJ ZWZ d          -1.751  26.821  23.745  0.00  0.00     0.089 C 
ATOM      3  CAI ZWZ d          -2.337  26.520  25.124  0.00  0.00     0.089 C 
ATOM      4  CAH ZWZ d          -1.206  26.161  26.094  0.00  0.00     0.126 C 
ATOM      5  NAG ZWZ d          -0.188  27.226  26.151  0.00  0.00    -0.060 N 
ATOM      6  CAL ZWZ d           0.397  27.482  24.826  0.00  0.00     0.152 C 
ATOM      7  H2  ZWZ d          -1.230  28.816  24.370  0.00  0.00     0.090 H 
ATOM      8  H3  ZWZ d          -1.249  25.924  23.351  0.00  0.00     0.091 H 
ATOM      9  H5  ZWZ d          -3.037  25.674  25.058  0.00  0.00     0.090 H 
ATOM     10  H7  ZWZ d          -0.728  25.239  25.732  0.00  0.00     0.087 H 
ATOM     11  H11 ZWZ d           0.544  26.945  26.785  0.00  0.00     0.278 HD
ATOM     12  H12 ZWZ d          -0.618  28.073  26.489  0.00  0.00     0.278 HD
ATOM     13  H13 ZWZ d           0.844  26.561  24.425  0.00  0.00     0.091 H 
ENDROOT
BRANCH   6  14
ATOM     14  CAF ZWZ d           1.482  28.554  24.965  0.00  0.00     0.108 C 
ATOM     15  H14 ZWZ d           1.004  29.534  25.110  0.00  0.00     0.078 H 
ATOM     16  H15 ZWZ d           2.089  28.574  24.047  0.00  0.00     0.078 H 
BRANCH  14  17
ATOM     17  NAB ZWZ d           2.353  28.266  26.115  0.00  0.00    -0.077 N 
ATOM     18  H16 ZWZ d           1.810  27.843  26.852  0.00  0.00     0.274 HD
ATOM     19  H17 ZWZ d           2.762  29.125  26.450  0.00  0.00     0.274 HD
ATOM     20  H18 ZWZ d           3.085  27.634  25.833  0.00  0.00     0.274 HD
ENDBRANCH  14  17
ENDBRANCH   6  14
BRANCH   1  21
ATOM     21  OAE ZWZ d          -0.242  28.353  22.623  0.00  0.00    -0.391 OA
ATOM     22  H1  ZWZ d           0.071  27.589  22.153  0.00  0.00     0.210 HD
ENDBRANCH   1  21
BRANCH   2  23
ATOM     23  OAD ZWZ d          -2.794  27.208  22.849  0.00  0.00    -0.390 OA
ATOM     24  H4  ZWZ d          -2.497  27.936  22.316  0.00  0.00     0.210 HD
ENDBRANCH   2  23
BRANCH   4  25
ATOM     25  CAA ZWZ d          -1.740  25.912  27.505  0.00  0.00    -0.047 C 
ATOM     26  H8  ZWZ d          -1.315  24.977  27.897  0.00  0.00     0.030 H 
ATOM     27  H9  ZWZ d          -2.837  25.831  27.472  0.00  0.00     0.030 H 
ATOM     28  H10 ZWZ d          -1.453  26.748  28.159  0.00  0.00     0.030 H 
ENDBRANCH   4  25
BRANCH   3  29
ATOM     29  OAC ZWZ d          -3.042  27.693  25.550  0.00  0.00    -0.391 OA
ATOM     30  H6  ZWZ d          -2.715  27.967  26.399  0.00  0.00     0.210 HD
ENDBRANCH   3  29
TORSDOF 6
ENDMDL
