MODEL 1
REMARK VINA RESULT:      -5.7      0.000      0.000
REMARK  3 active torsions:
REMARK  status: ('A' for Active; 'I' for Inactive)
REMARK    1  A    between atoms: C1_3  and  C_1 
REMARK    2  A    between atoms: C7_10  and  N1_4 
REMARK    3  A    between atoms: C4_7  and  C7_10 
ROOT
ATOM      1  C1  MOL d         -28.239  87.174 -10.902  0.00  0.00     0.040 A 
ATOM      2  C2  MOL d         -28.576  87.841 -12.133  0.00  0.00    -0.066 A 
ATOM      3  C3  MOL d         -29.780  88.558 -12.244  0.00  0.00    -0.074 A 
ATOM      4  C4  MOL d         -30.662  88.628 -11.145  0.00  0.00    -0.033 A 
ATOM      5  C5  MOL d         -30.335  87.978  -9.937  0.00  0.00    -0.074 A 
ATOM      6  C6  MOL d         -29.137  87.259  -9.814  0.00  0.00    -0.066 A 
ATOM      7  H4  MOL d         -27.899  87.789 -12.978  0.00  0.00     0.085 H 
ATOM      8  H5  MOL d         -30.030  89.057 -13.173  0.00  0.00     0.084 H 
ATOM      9  H6  MOL d         -31.017  88.034  -9.096  0.00  0.00     0.084 H 
ATOM     10  H7  MOL d         -28.898  86.766  -8.878  0.00  0.00     0.085 H 
ENDROOT
BRANCH   4  11
ATOM     11  C7  MOL d         -31.954  89.402 -11.263  0.00  0.00     0.103 C 
ATOM     12  H8  MOL d         -32.756  88.721 -11.585  0.00  0.00     0.082 H 
ATOM     13  H9  MOL d         -32.210  89.831 -10.283  0.00  0.00     0.082 H 
BRANCH  11  14
ATOM     14  N1  MOL d         -31.819  90.492 -12.249  0.00  0.00    -0.075 N 
ATOM     15  H1  MOL d         -31.499  90.114 -13.127  0.00  0.00     0.274 HD
ATOM     16  H2  MOL d         -31.154  91.170 -11.912  0.00  0.00     0.274 HD
ATOM     17  H3  MOL d         -32.714  90.938 -12.382  0.00  0.00     0.274 HD
ENDBRANCH  11  14
ENDBRANCH   4  11
BRANCH   1  18
ATOM     18  C   MOL d         -27.093  86.506 -10.832  0.00  0.00     0.209 C 
ATOM     19  O   MOL d         -26.268  86.636  -9.983  0.00  0.00    -0.644 OA
ATOM     20  OXT MOL d         -26.561  85.631 -11.583  0.00  0.00    -0.644 OA
ENDBRANCH   1  18
TORSDOF 3
ENDMDL
MODEL 2
REMARK VINA RESULT:      -5.1      3.709      4.658
REMARK  3 active torsions:
REMARK  status: ('A' for Active; 'I' for Inactive)
REMARK    1  A    between atoms: C1_3  and  C_1 
REMARK    2  A    between atoms: C7_10  and  N1_4 
REMARK    3  A    between atoms: C4_7  and  C7_10 
ROOT
ATOM      1  C1  MOL d         -30.389  88.335 -11.147  0.00  0.00     0.040 A 
ATOM      2  C2  MOL d         -29.641  88.399 -12.376  0.00  0.00    -0.066 A 
ATOM      3  C3  MOL d         -28.470  87.638 -12.533  0.00  0.00    -0.074 A 
ATOM      4  C4  MOL d         -28.024  86.806 -11.484  0.00  0.00    -0.033 A 
ATOM      5  C5  MOL d         -28.755  86.739 -10.280  0.00  0.00    -0.074 A 
ATOM      6  C6  MOL d         -29.925  87.493 -10.111  0.00  0.00    -0.066 A 
ATOM      7  H4  MOL d         -29.983  89.037 -13.183  0.00  0.00     0.085 H 
ATOM      8  H5  MOL d         -27.909  87.690 -13.459  0.00  0.00     0.084 H 
ATOM      9  H6  MOL d         -28.408  86.098  -9.477  0.00  0.00     0.084 H 
ATOM     10  H7  MOL d         -30.477  87.431  -9.179  0.00  0.00     0.085 H 
ENDROOT
BRANCH   4  11
ATOM     11  C7  MOL d         -26.768  85.985 -11.655  0.00  0.00     0.103 C 
ATOM     12  H8  MOL d         -27.007  85.068 -12.214  0.00  0.00     0.082 H 
ATOM     13  H9  MOL d         -26.025  86.572 -12.216  0.00  0.00     0.082 H 
BRANCH  11  14
ATOM     14  N1  MOL d         -26.204  85.618 -10.341  0.00  0.00    -0.075 N 
ATOM     15  H1  MOL d         -26.843  85.005  -9.860  0.00  0.00     0.274 HD
ATOM     16  H2  MOL d         -26.059  86.452  -9.793  0.00  0.00     0.274 HD
ATOM     17  H3  MOL d         -25.322  85.147 -10.474  0.00  0.00     0.274 HD
ENDBRANCH  11  14
ENDBRANCH   4  11
BRANCH   1  18
ATOM     18  C   MOL d         -31.492  89.068 -11.033  0.00  0.00     0.209 C 
ATOM     19  O   MOL d         -32.170  89.147 -10.057  0.00  0.00    -0.644 OA
ATOM     20  OXT MOL d         -32.118  89.812 -11.849  0.00  0.00    -0.644 OA
ENDBRANCH   1  18
TORSDOF 3
ENDMDL
MODEL 3
REMARK VINA RESULT:      -5.0      0.839      1.685
REMARK  3 active torsions:
REMARK  status: ('A' for Active; 'I' for Inactive)
REMARK    1  A    between atoms: C1_3  and  C_1 
REMARK    2  A    between atoms: C7_10  and  N1_4 
REMARK    3  A    between atoms: C4_7  and  C7_10 
ROOT
ATOM      1  C1  MOL d         -28.010  87.092 -11.187  0.00  0.00     0.040 A 
ATOM      2  C2  MOL d         -28.758  87.394  -9.995  0.00  0.00    -0.066 A 
ATOM      3  C3  MOL d         -29.939  88.153 -10.073  0.00  0.00    -0.074 A 
ATOM      4  C4  MOL d         -30.395  88.620 -11.324  0.00  0.00    -0.033 A 
ATOM      5  C5  MOL d         -29.666  88.325 -12.495  0.00  0.00    -0.074 A 
ATOM      6  C6  MOL d         -28.486  87.568 -12.430  0.00  0.00    -0.066 A 
ATOM      7  H4  MOL d         -28.410  87.036  -9.033  0.00  0.00     0.085 H 
ATOM      8  H5  MOL d         -30.499  88.380  -9.173  0.00  0.00     0.084 H 
ATOM      9  H6  MOL d         -30.020  88.686 -13.454  0.00  0.00     0.084 H 
ATOM     10  H7  MOL d         -27.937  87.347 -13.338  0.00  0.00     0.085 H 
ENDROOT
BRANCH   4  11
ATOM     11  C7  MOL d         -31.666  89.433 -11.409  0.00  0.00     0.103 C 
ATOM     12  H8  MOL d         -31.411  90.502 -11.440  0.00  0.00     0.082 H 
ATOM     13  H9  MOL d         -32.210  89.159 -12.325  0.00  0.00     0.082 H 
BRANCH  11  14
ATOM     14  N1  MOL d         -32.527  89.174 -10.238  0.00  0.00    -0.075 N 
ATOM     15  H1  MOL d         -33.495  89.239 -10.513  0.00  0.00     0.274 HD
ATOM     16  H2  MOL d         -32.334  89.856  -9.522  0.00  0.00     0.274 HD
ATOM     17  H3  MOL d         -32.341  88.250  -9.882  0.00  0.00     0.274 HD
ENDBRANCH  11  14
ENDBRANCH   4  11
BRANCH   1  18
ATOM     18  C   MOL d         -26.899  86.372 -11.077  0.00  0.00     0.209 C 
ATOM     19  O   MOL d         -26.204  86.317 -10.111  0.00  0.00    -0.644 OA
ATOM     20  OXT MOL d         -26.279  85.618 -11.889  0.00  0.00    -0.644 OA
ENDBRANCH   1  18
TORSDOF 3
ENDMDL
MODEL 4
REMARK VINA RESULT:      -4.1      1.848      2.312
REMARK  3 active torsions:
REMARK  status: ('A' for Active; 'I' for Inactive)
REMARK    1  A    between atoms: C1_3  and  C_1 
REMARK    2  A    between atoms: C7_10  and  N1_4 
REMARK    3  A    between atoms: C4_7  and  C7_10 
ROOT
ATOM      1  C1  MOL d         -28.385  87.257 -12.037  0.00  0.00     0.040 A 
ATOM      2  C2  MOL d         -29.620  87.958 -12.275  0.00  0.00    -0.066 A 
ATOM      3  C3  MOL d         -30.526  88.175 -11.222  0.00  0.00    -0.074 A 
ATOM      4  C4  MOL d         -30.225  87.704  -9.926  0.00  0.00    -0.033 A 
ATOM      5  C5  MOL d         -29.016  87.018  -9.688  0.00  0.00    -0.074 A 
ATOM      6  C6  MOL d         -28.104  86.796 -10.731  0.00  0.00    -0.066 A 
ATOM      7  H4  MOL d         -29.852  88.321 -13.269  0.00  0.00     0.085 H 
ATOM      8  H5  MOL d         -31.455  88.702 -11.405  0.00  0.00     0.084 H 
ATOM      9  H6  MOL d         -28.790  86.658  -8.691  0.00  0.00     0.084 H 
ATOM     10  H7  MOL d         -27.178  86.268 -10.533  0.00  0.00     0.085 H 
ENDROOT
BRANCH   4  11
ATOM     11  C7  MOL d         -31.197  87.941  -8.793  0.00  0.00     0.103 C 
ATOM     12  H8  MOL d         -31.548  86.971  -8.409  0.00  0.00     0.082 H 
ATOM     13  H9  MOL d         -30.688  88.492  -7.988  0.00  0.00     0.082 H 
BRANCH  11  14
ATOM     14  N1  MOL d         -32.357  88.725  -9.259  0.00  0.00    -0.075 N 
ATOM     15  H1  MOL d         -33.152  88.115  -9.373  0.00  0.00     0.274 HD
ATOM     16  H2  MOL d         -32.137  89.160 -10.141  0.00  0.00     0.274 HD
ATOM     17  H3  MOL d         -32.576  89.437  -8.579  0.00  0.00     0.274 HD
ENDBRANCH  11  14
ENDBRANCH   4  11
BRANCH   1  18
ATOM     18  C   MOL d         -27.552  87.070 -13.055  0.00  0.00     0.209 C 
ATOM     19  O   MOL d         -27.020  87.933 -13.679  0.00  0.00    -0.644 OA
ATOM     20  OXT MOL d         -27.128  86.025 -13.638  0.00  0.00    -0.644 OA
ENDBRANCH   1  18
TORSDOF 3
ENDMDL
MODEL 5
REMARK VINA RESULT:      -4.0      3.857      4.981
REMARK  3 active torsions:
REMARK  status: ('A' for Active; 'I' for Inactive)
REMARK    1  A    between atoms: C1_3  and  C_1 
REMARK    2  A    between atoms: C7_10  and  N1_4 
REMARK    3  A    between atoms: C4_7  and  C7_10 
ROOT
ATOM      1  C1  MOL d         -31.030  88.786 -11.514  0.00  0.00     0.040 A 
ATOM      2  C2  MOL d         -30.270  88.420 -10.347  0.00  0.00    -0.066 A 
ATOM      3  C3  MOL d         -29.109  87.637 -10.475  0.00  0.00    -0.074 A 
ATOM      4  C4  MOL d         -28.684  87.209 -11.751  0.00  0.00    -0.033 A 
ATOM      5  C5  MOL d         -29.425  87.567 -12.896  0.00  0.00    -0.074 A 
ATOM      6  C6  MOL d         -30.585  88.348 -12.783  0.00  0.00    -0.066 A 
ATOM      7  H4  MOL d         -30.594  88.748  -9.367  0.00  0.00     0.085 H 
ATOM      8  H5  MOL d         -28.541  87.362  -9.594  0.00  0.00     0.084 H 
ATOM      9  H6  MOL d         -29.094  87.236 -13.874  0.00  0.00     0.084 H 
ATOM     10  H7  MOL d         -31.143  88.617 -13.673  0.00  0.00     0.085 H 
ENDROOT
BRANCH   4  11
ATOM     11  C7  MOL d         -27.434  86.371 -11.888  0.00  0.00     0.103 C 
ATOM     12  H8  MOL d         -27.699  85.393 -12.315  0.00  0.00     0.082 H 
ATOM     13  H9  MOL d         -26.727  86.884 -12.557  0.00  0.00     0.082 H 
BRANCH  11  14
ATOM     14  N1  MOL d         -26.797  86.169 -10.572  0.00  0.00    -0.075 N 
ATOM     15  H1  MOL d         -25.854  85.838 -10.703  0.00  0.00     0.274 HD
ATOM     16  H2  MOL d         -27.323  85.488 -10.046  0.00  0.00     0.274 HD
ATOM     17  H3  MOL d         -26.780  87.042 -10.069  0.00  0.00     0.274 HD
ENDBRANCH  11  14
ENDBRANCH   4  11
BRANCH   1  18
ATOM     18  C   MOL d         -32.122  89.527 -11.358  0.00  0.00     0.209 C 
ATOM     19  O   MOL d         -32.781  89.585 -10.368  0.00  0.00    -0.644 OA
ATOM     20  OXT MOL d         -32.754  90.301 -12.140  0.00  0.00    -0.644 OA
ENDBRANCH   1  18
TORSDOF 3
ENDMDL
MODEL 6
REMARK VINA RESULT:      -3.0      1.116      1.306
REMARK  3 active torsions:
REMARK  status: ('A' for Active; 'I' for Inactive)
REMARK    1  A    between atoms: C1_3  and  C_1 
REMARK    2  A    between atoms: C7_10  and  N1_4 
REMARK    3  A    between atoms: C4_7  and  C7_10 
ROOT
ATOM      1  C1  MOL d         -29.024  87.475 -11.769  0.00  0.00     0.040 A 
ATOM      2  C2  MOL d         -29.544  88.491 -12.647  0.00  0.00    -0.066 A 
ATOM      3  C3  MOL d         -30.721  89.182 -12.313  0.00  0.00    -0.074 A 
ATOM      4  C4  MOL d         -31.398  88.882 -11.111  0.00  0.00    -0.033 A 
ATOM      5  C5  MOL d         -30.891  87.889 -10.247  0.00  0.00    -0.074 A 
ATOM      6  C6  MOL d         -29.717  87.192 -10.569  0.00  0.00    -0.066 A 
ATOM      7  H4  MOL d         -29.025  88.723 -13.570  0.00  0.00     0.085 H 
ATOM      8  H5  MOL d         -31.110  89.945 -12.978  0.00  0.00     0.084 H 
ATOM      9  H6  MOL d         -31.415  87.662  -9.325  0.00  0.00     0.084 H 
ATOM     10  H7  MOL d         -29.339  86.432  -9.894  0.00  0.00     0.085 H 
ENDROOT
BRANCH   4  11
ATOM     11  C7  MOL d         -32.661  89.628 -10.750  0.00  0.00     0.103 C 
ATOM     12  H8  MOL d         -33.373  88.929 -10.286  0.00  0.00     0.082 H 
ATOM     13  H9  MOL d         -32.416  90.430 -10.038  0.00  0.00     0.082 H 
BRANCH  11  14
ATOM     14  N1  MOL d         -33.278  90.219 -11.954  0.00  0.00    -0.075 N 
ATOM     15  H1  MOL d         -32.957  89.726 -12.772  0.00  0.00     0.274 HD
ATOM     16  H2  MOL d         -33.016  91.190 -12.022  0.00  0.00     0.274 HD
ATOM     17  H3  MOL d         -34.281  90.145 -11.888  0.00  0.00     0.274 HD
ENDBRANCH  11  14
ENDBRANCH   4  11
BRANCH   1  18
ATOM     18  C   MOL d         -27.909  86.842 -12.115  0.00  0.00     0.209 C 
ATOM     19  O   MOL d         -27.100  86.403 -11.359  0.00  0.00    -0.644 OA
ATOM     20  OXT MOL d         -27.395  86.560 -13.242  0.00  0.00    -0.644 OA
ENDBRANCH   1  18
TORSDOF 3
ENDMDL
