MODEL 1
REMARK VINA RESULT:      -7.6      0.000      0.000
REMARK  13 active torsions:
REMARK  status: ('A' for Active; 'I' for Inactive)
REMARK    1  A    between atoms: C7_15  and  C1_1 
REMARK    2  A    between atoms: N1_2  and  C5_11 
REMARK    3  A    between atoms: C11_21  and  N1_2 
REMARK    4  A    between atoms: C17_27  and  O1_3 
REMARK    5  A    between atoms: C3_7  and  C19_29 
REMARK    6  A    between atoms: N8_18  and  C4_9 
REMARK    7  A    between atoms: C4_9  and  C16_26 
REMARK    8  A    between atoms: N8_18  and  C13_23 
REMARK    9  A    between atoms: C15_25  and  N8_18 
REMARK   10  A    between atoms: C13_23  and  C14_24 
REMARK   11  A    between atoms: C15_25  and  C17_27 
REMARK   12  A    between atoms: C15_25  and  C18_28 
REMARK   13  A    between atoms: C15_25  and  C20_30 
ROOT
ATOM      1  S1  EML d          -2.332  32.840  81.967  0.00  0.00     0.029 SA
ATOM      2  N6  EML d          -1.481  33.959  82.647  0.00  0.00    -0.212 NA
ATOM      3  C11 EML d          -2.104  33.326  80.320  0.00  0.00     0.096 A 
ATOM      4  C12 EML d          -1.270  34.447  80.388  0.00  0.00    -0.023 A 
ATOM      5  C14 EML d          -0.945  34.770  81.706  0.00  0.00     0.071 A 
ATOM      6  H11 EML d          -0.917  35.000  79.518  0.00  0.00     0.091 H 
ENDROOT
BRANCH   5   7
ATOM      7  C13 EML d          -0.054  35.911  82.139  0.00  0.00     0.124 C 
ATOM      8  H12 EML d           0.988  35.578  82.022  0.00  0.00     0.086 H 
ATOM      9  H13 EML d          -0.248  36.757  81.462  0.00  0.00     0.086 H 
BRANCH   7  10
ATOM     10  N8  EML d          -0.213  36.417  83.558  0.00  0.00    -0.056 N 
ATOM     11  H8  EML d          -0.922  35.771  83.868  0.00  0.00     0.281 HD
BRANCH  10  12
ATOM     12  C4  EML d           0.862  36.059  84.487  0.00  0.00     0.082 C 
ATOM     13  H4  EML d           1.196  36.999  84.951  0.00  0.00     0.075 H 
ATOM     14  H5  EML d           1.675  35.642  83.875  0.00  0.00     0.075 H 
BRANCH  12  15
ATOM     15  C16 EML d           0.638  35.089  85.611  0.00  0.00    -0.053 C 
ATOM     16  H14 EML d           0.953  34.083  85.295  0.00  0.00     0.029 H 
ATOM     17  H15 EML d          -0.429  35.073  85.874  0.00  0.00     0.029 H 
ATOM     18  H16 EML d           1.228  35.399  86.486  0.00  0.00     0.029 H 
ENDBRANCH  12  15
ENDBRANCH  10  12
BRANCH  10  19
ATOM     19  C15 EML d          -0.930  37.681  83.842  0.00  0.00     0.142 C 
BRANCH  19  20
ATOM     20  C17 EML d          -2.334  37.434  84.441  0.00  0.00     0.047 C 
ATOM     21  H17 EML d          -2.453  36.359  84.637  0.00  0.00     0.077 H 
ATOM     22  H18 EML d          -2.420  37.991  85.386  0.00  0.00     0.077 H 
BRANCH  20  23
ATOM     23  O1  EML d          -3.382  37.864  83.552  0.00  0.00    -0.398 OA
ATOM     24  H2  EML d          -4.032  37.176  83.474  0.00  0.00     0.209 HD
ENDBRANCH  20  23
ENDBRANCH  19  20
BRANCH  19  25
ATOM     25  C18 EML d          -1.302  38.466  82.631  0.00  0.00    -0.043 C 
ATOM     26  H19 EML d          -1.872  39.358  82.933  0.00  0.00     0.030 H 
ATOM     27  H20 EML d          -1.920  37.845  81.967  0.00  0.00     0.030 H 
ATOM     28  H21 EML d          -0.390  38.776  82.101  0.00  0.00     0.030 H 
ENDBRANCH  19  25
BRANCH  19  29
ATOM     29  C20 EML d          -0.073  38.668  84.683  0.00  0.00    -0.043 C 
ATOM     30  H25 EML d          -0.403  39.699  84.489  0.00  0.00     0.030 H 
ATOM     31  H26 EML d           0.986  38.563  84.404  0.00  0.00     0.030 H 
ATOM     32  H27 EML d          -0.194  38.439  85.753  0.00  0.00     0.030 H 
ENDBRANCH  19  29
ENDBRANCH  10  19
ENDBRANCH   7  10
ENDBRANCH   5   7
BRANCH   3  33
ATOM     33  N1  EML d          -2.646  32.734  79.177  0.00  0.00    -0.331 N 
ATOM     34  H1  EML d          -2.320  33.082  78.265  0.00  0.00     0.168 HD
BRANCH  33  35
ATOM     35  C5  EML d          -3.588  31.715  79.170  0.00  0.00     0.176 A 
ATOM     36  C6  EML d          -4.065  31.172  77.975  0.00  0.00     0.181 A 
ATOM     37  N2  EML d          -3.788  31.543  76.653  0.00  0.00    -0.237 NA
ATOM     38  N3  EML d          -4.988  30.170  78.039  0.00  0.00    -0.299 N 
ATOM     39  C9  EML d          -4.579  30.703  75.954  0.00  0.00     0.032 A 
ATOM     40  C7  EML d          -5.347  29.817  76.755  0.00  0.00     0.071 A 
ATOM     41  H9  EML d          -4.624  30.703  74.866  0.00  0.00     0.118 H 
ATOM     42  C2  EML d          -5.503  29.643  79.204  0.00  0.00     0.011 A 
ATOM     43  C3  EML d          -5.057  30.184  80.386  0.00  0.00     0.049 A 
ATOM     44  H3  EML d          -6.231  28.833  79.189  0.00  0.00     0.115 H 
ATOM     45  N7  EML d          -4.135  31.221  80.338  0.00  0.00    -0.231 NA
BRANCH  40  46
ATOM     46  C1  EML d          -6.392  28.806  76.324  0.00  0.00     0.029 A 
ATOM     47  C8  EML d          -6.234  27.908  75.271  0.00  0.00     0.035 A 
ATOM     48  N5  EML d          -7.385  27.205  75.252  0.00  0.00    -0.187 NA
ATOM     49  H7  EML d          -5.375  27.798  74.612  0.00  0.00     0.118 H 
ATOM     50  N4  EML d          -8.235  27.590  76.222  0.00  0.00    -0.289 N 
ATOM     51  C10 EML d          -7.674  28.583  76.912  0.00  0.00     0.009 A 
ATOM     52  H6  EML d          -9.166  27.185  76.401  0.00  0.00     0.188 HD
ATOM     53  H10 EML d          -8.106  29.119  77.756  0.00  0.00     0.115 H 
ENDBRANCH  40  46
BRANCH  43  54
ATOM     54  C19 EML d          -5.522  29.678  81.707  0.00  0.00    -0.034 C 
ATOM     55  H22 EML d          -6.250  28.867  81.554  0.00  0.00     0.035 H 
ATOM     56  H23 EML d          -5.998  30.496  82.267  0.00  0.00     0.035 H 
ATOM     57  H24 EML d          -4.662  29.295  82.277  0.00  0.00     0.035 H 
ENDBRANCH  43  54
ENDBRANCH  33  35
ENDBRANCH   3  33
TORSDOF 13
ENDMDL
MODEL 2
REMARK VINA RESULT:      -6.9      1.492      2.092
REMARK  13 active torsions:
REMARK  status: ('A' for Active; 'I' for Inactive)
REMARK    1  A    between atoms: C7_15  and  C1_1 
REMARK    2  A    between atoms: N1_2  and  C5_11 
REMARK    3  A    between atoms: C11_21  and  N1_2 
REMARK    4  A    between atoms: C17_27  and  O1_3 
REMARK    5  A    between atoms: C3_7  and  C19_29 
REMARK    6  A    between atoms: N8_18  and  C4_9 
REMARK    7  A    between atoms: C4_9  and  C16_26 
REMARK    8  A    between atoms: N8_18  and  C13_23 
REMARK    9  A    between atoms: C15_25  and  N8_18 
REMARK   10  A    between atoms: C13_23  and  C14_24 
REMARK   11  A    between atoms: C15_25  and  C17_27 
REMARK   12  A    between atoms: C15_25  and  C18_28 
REMARK   13  A    between atoms: C15_25  and  C20_30 
ROOT
ATOM      1  S1  EML d          -4.506  32.878  83.088  0.00  0.00     0.029 SA
ATOM      2  N6  EML d          -3.750  33.773  84.121  0.00  0.00    -0.212 NA
ATOM      3  C11 EML d          -3.239  32.732  81.916  0.00  0.00     0.096 A 
ATOM      4  C12 EML d          -2.166  33.451  82.456  0.00  0.00    -0.023 A 
ATOM      5  C14 EML d          -2.492  34.018  83.688  0.00  0.00     0.071 A 
ATOM      6  H11 EML d          -1.195  33.554  81.973  0.00  0.00     0.091 H 
ENDROOT
BRANCH   5   7
ATOM      7  C13 EML d          -1.566  34.843  84.551  0.00  0.00     0.124 C 
ATOM      8  H12 EML d          -1.912  34.750  85.590  0.00  0.00     0.086 H 
ATOM      9  H13 EML d          -0.558  34.411  84.459  0.00  0.00     0.086 H 
BRANCH   7  10
ATOM     10  N8  EML d          -1.457  36.322  84.238  0.00  0.00    -0.056 N 
ATOM     11  H8  EML d          -1.906  36.316  83.335  0.00  0.00     0.281 HD
BRANCH  10  12
ATOM     12  C4  EML d          -2.383  37.196  84.962  0.00  0.00     0.082 C 
ATOM     13  H4  EML d          -1.761  37.903  85.530  0.00  0.00     0.075 H 
ATOM     14  H5  EML d          -2.937  36.551  85.660  0.00  0.00     0.075 H 
BRANCH  12  15
ATOM     15  C16 EML d          -3.411  38.021  84.242  0.00  0.00    -0.053 C 
ATOM     16  H14 EML d          -4.380  37.501  84.265  0.00  0.00     0.029 H 
ATOM     17  H15 EML d          -3.098  38.167  83.198  0.00  0.00     0.029 H 
ATOM     18  H16 EML d          -3.507  38.999  84.736  0.00  0.00     0.029 H 
ENDBRANCH  12  15
ENDBRANCH  10  12
BRANCH  10  19
ATOM     19  C15 EML d          -0.166  36.924  83.836  0.00  0.00     0.142 C 
BRANCH  19  20
ATOM     20  C17 EML d          -0.184  37.422  82.372  0.00  0.00     0.047 C 
ATOM     21  H17 EML d          -0.329  38.512  82.369  0.00  0.00     0.077 H 
ATOM     22  H18 EML d           0.780  37.179  81.902  0.00  0.00     0.077 H 
BRANCH  20  23
ATOM     23  O1  EML d          -1.241  36.810  81.608  0.00  0.00    -0.398 OA
ATOM     24  H2  EML d          -1.855  36.389  82.199  0.00  0.00     0.209 HD
ENDBRANCH  20  23
ENDBRANCH  19  20
BRANCH  19  25
ATOM     25  C18 EML d           0.970  35.963  83.766  0.00  0.00    -0.043 C 
ATOM     26  H19 EML d           1.035  35.544  82.751  0.00  0.00     0.030 H 
ATOM     27  H20 EML d           0.807  35.150  84.489  0.00  0.00     0.030 H 
ATOM     28  H21 EML d           1.907  36.486  84.008  0.00  0.00     0.030 H 
ENDBRANCH  19  25
BRANCH  19  29
ATOM     29  C20 EML d           0.316  38.007  84.842  0.00  0.00    -0.043 C 
ATOM     30  H25 EML d           1.402  37.913  84.990  0.00  0.00     0.030 H 
ATOM     31  H26 EML d          -0.199  37.869  85.804  0.00  0.00     0.030 H 
ATOM     32  H27 EML d           0.087  39.007  84.443  0.00  0.00     0.030 H 
ENDBRANCH  19  29
ENDBRANCH  10  19
ENDBRANCH   7  10
ENDBRANCH   5   7
BRANCH   3  33
ATOM     33  N1  EML d          -3.285  32.056  80.695  0.00  0.00    -0.331 N 
ATOM     34  H1  EML d          -2.575  32.304  79.992  0.00  0.00     0.168 HD
BRANCH  33  35
ATOM     35  C5  EML d          -4.208  31.079  80.352  0.00  0.00     0.176 A 
ATOM     36  C6  EML d          -4.449  30.741  79.019  0.00  0.00     0.181 A 
ATOM     37  N2  EML d          -3.928  31.303  77.847  0.00  0.00    -0.237 NA
ATOM     38  N3  EML d          -5.368  29.769  78.751  0.00  0.00    -0.299 N 
ATOM     39  C9  EML d          -4.572  30.604  76.890  0.00  0.00     0.032 A 
ATOM     40  C7  EML d          -5.477  29.629  77.384  0.00  0.00     0.071 A 
ATOM     41  H9  EML d          -4.410  30.773  75.826  0.00  0.00     0.118 H 
ATOM     42  C2  EML d          -6.094  29.084  79.702  0.00  0.00     0.011 A 
ATOM     43  C3  EML d          -5.880  29.423  81.017  0.00  0.00     0.049 A 
ATOM     44  H3  EML d          -6.806  28.308  79.424  0.00  0.00     0.115 H 
ATOM     45  N7  EML d          -4.966  30.427  81.305  0.00  0.00    -0.231 NA
BRANCH  40  46
ATOM     46  C1  EML d          -6.421  28.727  76.611  0.00  0.00     0.029 A 
ATOM     47  C8  EML d          -6.091  28.062  75.433  0.00  0.00     0.035 A 
ATOM     48  N5  EML d          -7.207  27.379  75.107  0.00  0.00    -0.187 NA
ATOM     49  H7  EML d          -5.144  28.087  74.897  0.00  0.00     0.118 H 
ATOM     50  N4  EML d          -8.197  27.559  76.001  0.00  0.00    -0.289 N 
ATOM     51  C10 EML d          -7.767  28.391  76.952  0.00  0.00     0.009 A 
ATOM     52  H6  EML d          -9.131  27.126  75.959  0.00  0.00     0.188 HD
ATOM     53  H10 EML d          -8.330  28.744  77.814  0.00  0.00     0.115 H 
ENDBRANCH  40  46
BRANCH  43  54
ATOM     54  C19 EML d          -6.587  28.733  82.132  0.00  0.00    -0.034 C 
ATOM     55  H22 EML d          -6.944  29.479  82.857  0.00  0.00     0.035 H 
ATOM     56  H23 EML d          -5.895  28.039  82.631  0.00  0.00     0.035 H 
ATOM     57  H24 EML d          -7.444  28.172  81.731  0.00  0.00     0.035 H 
ENDBRANCH  43  54
ENDBRANCH  33  35
ENDBRANCH   3  33
TORSDOF 13
ENDMDL
MODEL 3
REMARK VINA RESULT:      -6.6      2.064      3.678
REMARK  13 active torsions:
REMARK  status: ('A' for Active; 'I' for Inactive)
REMARK    1  A    between atoms: C7_15  and  C1_1 
REMARK    2  A    between atoms: N1_2  and  C5_11 
REMARK    3  A    between atoms: C11_21  and  N1_2 
REMARK    4  A    between atoms: C17_27  and  O1_3 
REMARK    5  A    between atoms: C3_7  and  C19_29 
REMARK    6  A    between atoms: N8_18  and  C4_9 
REMARK    7  A    between atoms: C4_9  and  C16_26 
REMARK    8  A    between atoms: N8_18  and  C13_23 
REMARK    9  A    between atoms: C15_25  and  N8_18 
REMARK   10  A    between atoms: C13_23  and  C14_24 
REMARK   11  A    between atoms: C15_25  and  C17_27 
REMARK   12  A    between atoms: C15_25  and  C18_28 
REMARK   13  A    between atoms: C15_25  and  C20_30 
ROOT
ATOM      1  S1  EML d          -1.989  32.495  86.047  0.00  0.00     0.029 SA
ATOM      2  N6  EML d          -1.689  33.932  86.579  0.00  0.00    -0.212 NA
ATOM      3  C11 EML d          -2.857  32.940  84.615  0.00  0.00     0.096 A 
ATOM      4  C12 EML d          -2.853  34.340  84.612  0.00  0.00    -0.023 A 
ATOM      5  C14 EML d          -2.192  34.855  85.727  0.00  0.00     0.071 A 
ATOM      6  H11 EML d          -3.310  34.950  83.835  0.00  0.00     0.091 H 
ENDROOT
BRANCH   5   7
ATOM      7  C13 EML d          -1.989  36.322  86.030  0.00  0.00     0.124 C 
ATOM      8  H12 EML d          -2.985  36.783  86.113  0.00  0.00     0.086 H 
ATOM      9  H13 EML d          -1.471  36.391  86.999  0.00  0.00     0.086 H 
BRANCH   7  10
ATOM     10  N8  EML d          -1.194  37.136  85.030  0.00  0.00    -0.056 N 
ATOM     11  H8  EML d          -1.023  37.949  85.601  0.00  0.00     0.281 HD
BRANCH  10  12
ATOM     12  C4  EML d           0.188  36.702  84.810  0.00  0.00     0.082 C 
ATOM     13  H4  EML d           0.326  36.650  83.720  0.00  0.00     0.075 H 
ATOM     14  H5  EML d           0.268  35.692  85.238  0.00  0.00     0.075 H 
BRANCH  12  15
ATOM     15  C16 EML d           1.352  37.483  85.347  0.00  0.00    -0.053 C 
ATOM     16  H14 EML d           1.538  37.192  86.392  0.00  0.00     0.029 H 
ATOM     17  H15 EML d           1.125  38.558  85.300  0.00  0.00     0.029 H 
ATOM     18  H16 EML d           2.246  37.270  84.743  0.00  0.00     0.029 H 
ENDBRANCH  12  15
ENDBRANCH  10  12
BRANCH  10  19
ATOM     19  C15 EML d          -1.859  37.807  83.890  0.00  0.00     0.142 C 
BRANCH  19  20
ATOM     20  C17 EML d          -1.532  39.316  83.828  0.00  0.00     0.047 C 
ATOM     21  H17 EML d          -1.696  39.757  84.822  0.00  0.00     0.077 H 
ATOM     22  H18 EML d          -0.477  39.440  83.542  0.00  0.00     0.077 H 
BRANCH  20  23
ATOM     23  O1  EML d          -2.357  40.007  82.871  0.00  0.00    -0.398 OA
ATOM     24  H2  EML d          -3.269  39.926  83.124  0.00  0.00     0.209 HD
ENDBRANCH  20  23
ENDBRANCH  19  20
BRANCH  19  25
ATOM     25  C18 EML d          -3.344  37.870  83.991  0.00  0.00    -0.043 C 
ATOM     26  H19 EML d          -3.792  37.165  83.275  0.00  0.00     0.030 H 
ATOM     27  H20 EML d          -3.684  38.891  83.762  0.00  0.00     0.030 H 
ATOM     28  H21 EML d          -3.654  37.602  85.012  0.00  0.00     0.030 H 
ENDBRANCH  19  25
BRANCH  19  29
ATOM     29  C20 EML d          -1.604  37.071  82.544  0.00  0.00    -0.043 C 
ATOM     30  H25 EML d          -0.631  37.383  82.135  0.00  0.00     0.030 H 
ATOM     31  H26 EML d          -2.400  37.326  81.830  0.00  0.00     0.030 H 
ATOM     32  H27 EML d          -1.598  35.985  82.715  0.00  0.00     0.030 H 
ENDBRANCH  19  29
ENDBRANCH  10  19
ENDBRANCH   7  10
ENDBRANCH   5   7
BRANCH   3  33
ATOM     33  N1  EML d          -3.442  32.087  83.677  0.00  0.00    -0.331 N 
ATOM     34  H1  EML d          -4.063  31.348  84.035  0.00  0.00     0.168 HD
BRANCH  33  35
ATOM     35  C5  EML d          -3.255  32.153  82.304  0.00  0.00     0.176 A 
ATOM     36  C6  EML d          -4.099  31.477  81.421  0.00  0.00     0.181 A 
ATOM     37  N2  EML d          -5.165  30.610  81.691  0.00  0.00    -0.237 NA
ATOM     38  N3  EML d          -3.860  31.587  80.082  0.00  0.00    -0.299 N 
ATOM     39  C9  EML d          -5.544  30.235  80.452  0.00  0.00     0.032 A 
ATOM     40  C7  EML d          -4.778  30.812  79.405  0.00  0.00     0.071 A 
ATOM     41  H9  EML d          -6.369  29.548  80.270  0.00  0.00     0.118 H 
ATOM     42  C2  EML d          -2.836  32.317  79.519  0.00  0.00     0.011 A 
ATOM     43  C3  EML d          -1.986  32.970  80.380  0.00  0.00     0.049 A 
ATOM     44  H3  EML d          -2.706  32.375  78.439  0.00  0.00     0.115 H 
ATOM     45  N7  EML d          -2.201  32.848  81.746  0.00  0.00    -0.231 NA
BRANCH  40  46
ATOM     46  C1  EML d          -4.864  30.559  77.911  0.00  0.00     0.029 A 
ATOM     47  C8  EML d          -5.518  29.475  77.330  0.00  0.00     0.035 A 
ATOM     48  N5  EML d          -5.354  29.655  76.003  0.00  0.00    -0.187 NA
ATOM     49  H7  EML d          -6.043  28.666  77.834  0.00  0.00     0.118 H 
ATOM     50  N4  EML d          -4.663  30.774  75.720  0.00  0.00    -0.289 N 
ATOM     51  C10 EML d          -4.328  31.371  76.866  0.00  0.00     0.009 A 
ATOM     52  H6  EML d          -4.430  31.114  74.776  0.00  0.00     0.188 HD
ATOM     53  H10 EML d          -3.760  32.292  76.981  0.00  0.00     0.115 H 
ENDBRANCH  40  46
BRANCH  43  54
ATOM     54  C19 EML d          -0.861  33.811  79.886  0.00  0.00    -0.034 C 
ATOM     55  H22 EML d           0.063  33.537  80.418  0.00  0.00     0.035 H 
ATOM     56  H23 EML d          -1.087  34.872  80.069  0.00  0.00     0.035 H 
ATOM     57  H24 EML d          -0.725  33.645  78.807  0.00  0.00     0.035 H 
ENDBRANCH  43  54
ENDBRANCH  33  35
ENDBRANCH   3  33
TORSDOF 13
ENDMDL
MODEL 4
REMARK VINA RESULT:      -6.4      2.061      3.235
REMARK  13 active torsions:
REMARK  status: ('A' for Active; 'I' for Inactive)
REMARK    1  A    between atoms: C7_15  and  C1_1 
REMARK    2  A    between atoms: N1_2  and  C5_11 
REMARK    3  A    between atoms: C11_21  and  N1_2 
REMARK    4  A    between atoms: C17_27  and  O1_3 
REMARK    5  A    between atoms: C3_7  and  C19_29 
REMARK    6  A    between atoms: N8_18  and  C4_9 
REMARK    7  A    between atoms: C4_9  and  C16_26 
REMARK    8  A    between atoms: N8_18  and  C13_23 
REMARK    9  A    between atoms: C15_25  and  N8_18 
REMARK   10  A    between atoms: C13_23  and  C14_24 
REMARK   11  A    between atoms: C15_25  and  C17_27 
REMARK   12  A    between atoms: C15_25  and  C18_28 
REMARK   13  A    between atoms: C15_25  and  C20_30 
ROOT
ATOM      1  S1  EML d          -4.944  33.993  84.015  0.00  0.00     0.029 SA
ATOM      2  N6  EML d          -3.662  34.876  84.136  0.00  0.00    -0.212 NA
ATOM      3  C11 EML d          -4.172  32.444  83.957  0.00  0.00     0.096 A 
ATOM      4  C12 EML d          -2.804  32.720  84.066  0.00  0.00    -0.023 A 
ATOM      5  C14 EML d          -2.561  34.091  84.163  0.00  0.00     0.071 A 
ATOM      6  H11 EML d          -2.025  31.959  84.075  0.00  0.00     0.091 H 
ENDROOT
BRANCH   5   7
ATOM      7  C13 EML d          -1.202  34.736  84.309  0.00  0.00     0.124 C 
ATOM      8  H12 EML d          -1.173  35.228  85.292  0.00  0.00     0.086 H 
ATOM      9  H13 EML d          -0.450  33.933  84.278  0.00  0.00     0.086 H 
BRANCH   7  10
ATOM     10  N8  EML d          -0.807  35.768  83.272  0.00  0.00    -0.056 N 
ATOM     11  H8  EML d           0.181  35.569  83.232  0.00  0.00     0.281 HD
BRANCH  10  12
ATOM     12  C4  EML d          -1.172  35.454  81.888  0.00  0.00     0.082 C 
ATOM     13  H4  EML d          -1.259  36.418  81.365  0.00  0.00     0.075 H 
ATOM     14  H5  EML d          -2.158  34.969  81.930  0.00  0.00     0.075 H 
BRANCH  12  15
ATOM     15  C16 EML d          -0.307  34.582  81.026  0.00  0.00    -0.053 C 
ATOM     16  H14 EML d           0.102  33.758  81.630  0.00  0.00     0.029 H 
ATOM     17  H15 EML d           0.520  35.178  80.613  0.00  0.00     0.029 H 
ATOM     18  H16 EML d          -0.908  34.169  80.203  0.00  0.00     0.029 H 
ENDBRANCH  12  15
ENDBRANCH  10  12
BRANCH  10  19
ATOM     19  C15 EML d          -0.725  37.205  83.618  0.00  0.00     0.142 C 
BRANCH  19  20
ATOM     20  C17 EML d          -1.851  38.032  82.955  0.00  0.00     0.047 C 
ATOM     21  H17 EML d          -1.636  39.101  83.095  0.00  0.00     0.077 H 
ATOM     22  H18 EML d          -1.875  37.801  81.880  0.00  0.00     0.077 H 
BRANCH  20  23
ATOM     23  O1  EML d          -3.141  37.737  83.522  0.00  0.00    -0.398 OA
ATOM     24  H2  EML d          -3.811  38.214  83.047  0.00  0.00     0.209 HD
ENDBRANCH  20  23
ENDBRANCH  19  20
BRANCH  19  25
ATOM     25  C18 EML d           0.468  37.907  83.068  0.00  0.00    -0.043 C 
ATOM     26  H19 EML d           1.383  37.411  83.423  0.00  0.00     0.030 H 
ATOM     27  H20 EML d           0.465  38.954  83.404  0.00  0.00     0.030 H 
ATOM     28  H21 EML d           0.437  37.875  81.969  0.00  0.00     0.030 H 
ENDBRANCH  19  25
BRANCH  19  29
ATOM     29  C20 EML d          -0.624  37.435  85.153  0.00  0.00    -0.043 C 
ATOM     30  H25 EML d          -0.116  38.391  85.348  0.00  0.00     0.030 H 
ATOM     31  H26 EML d          -0.049  36.615  85.609  0.00  0.00     0.030 H 
ATOM     32  H27 EML d          -1.634  37.461  85.588  0.00  0.00     0.030 H 
ENDBRANCH  19  29
ENDBRANCH  10  19
ENDBRANCH   7  10
ENDBRANCH   5   7
BRANCH   3  33
ATOM     33  N1  EML d          -4.781  31.196  83.818  0.00  0.00    -0.331 N 
ATOM     34  H1  EML d          -4.850  30.608  84.661  0.00  0.00     0.168 HD
BRANCH  33  35
ATOM     35  C5  EML d          -5.301  30.682  82.639  0.00  0.00     0.176 A 
ATOM     36  C6  EML d          -4.699  30.937  81.405  0.00  0.00     0.181 A 
ATOM     37  N2  EML d          -3.597  31.744  81.100  0.00  0.00    -0.237 NA
ATOM     38  N3  EML d          -5.261  30.398  80.285  0.00  0.00    -0.299 N 
ATOM     39  C9  EML d          -3.534  31.637  79.756  0.00  0.00     0.032 A 
ATOM     40  C7  EML d          -4.536  30.809  79.186  0.00  0.00     0.071 A 
ATOM     41  H9  EML d          -2.777  32.144  79.159  0.00  0.00     0.118 H 
ATOM     42  C2  EML d          -6.395  29.615  80.268  0.00  0.00     0.011 A 
ATOM     43  C3  EML d          -7.008  29.375  81.474  0.00  0.00     0.049 A 
ATOM     44  H3  EML d          -6.788  29.203  79.339  0.00  0.00     0.115 H 
ATOM     45  N7  EML d          -6.463  29.936  82.621  0.00  0.00    -0.231 NA
BRANCH  40  46
ATOM     46  C1  EML d          -4.821  30.528  77.723  0.00  0.00     0.029 A 
ATOM     47  C8  EML d          -5.510  29.413  77.252  0.00  0.00     0.035 A 
ATOM     48  N5  EML d          -5.539  29.575  75.913  0.00  0.00    -0.187 NA
ATOM     49  H7  EML d          -5.931  28.595  77.834  0.00  0.00     0.118 H 
ATOM     50  N4  EML d          -4.934  30.711  75.523  0.00  0.00    -0.289 N 
ATOM     51  C10 EML d          -4.465  31.338  76.603  0.00  0.00     0.009 A 
ATOM     52  H6  EML d          -4.847  31.042  74.551  0.00  0.00     0.188 HD
ATOM     53  H10 EML d          -3.918  32.280  76.626  0.00  0.00     0.115 H 
ENDBRANCH  40  46
BRANCH  43  54
ATOM     54  C19 EML d          -8.224  28.521  81.582  0.00  0.00    -0.034 C 
ATOM     55  H22 EML d          -8.859  28.889  82.401  0.00  0.00     0.035 H 
ATOM     56  H23 EML d          -7.926  27.482  81.788  0.00  0.00     0.035 H 
ATOM     57  H24 EML d          -8.786  28.561  80.637  0.00  0.00     0.035 H 
ENDBRANCH  43  54
ENDBRANCH  33  35
ENDBRANCH   3  33
TORSDOF 13
ENDMDL
MODEL 5
REMARK VINA RESULT:      -6.4      2.377      4.087
REMARK  13 active torsions:
REMARK  status: ('A' for Active; 'I' for Inactive)
REMARK    1  A    between atoms: C7_15  and  C1_1 
REMARK    2  A    between atoms: N1_2  and  C5_11 
REMARK    3  A    between atoms: C11_21  and  N1_2 
REMARK    4  A    between atoms: C17_27  and  O1_3 
REMARK    5  A    between atoms: C3_7  and  C19_29 
REMARK    6  A    between atoms: N8_18  and  C4_9 
REMARK    7  A    between atoms: C4_9  and  C16_26 
REMARK    8  A    between atoms: N8_18  and  C13_23 
REMARK    9  A    between atoms: C15_25  and  N8_18 
REMARK   10  A    between atoms: C13_23  and  C14_24 
REMARK   11  A    between atoms: C15_25  and  C17_27 
REMARK   12  A    between atoms: C15_25  and  C18_28 
REMARK   13  A    between atoms: C15_25  and  C20_30 
ROOT
ATOM      1  S1  EML d          -2.607  32.221  85.761  0.00  0.00     0.029 SA
ATOM      2  N6  EML d          -1.844  33.580  85.857  0.00  0.00    -0.212 NA
ATOM      3  C11 EML d          -4.046  32.801  84.991  0.00  0.00     0.096 A 
ATOM      4  C12 EML d          -3.829  34.172  84.809  0.00  0.00    -0.023 A 
ATOM      5  C14 EML d          -2.588  34.568  85.308  0.00  0.00     0.071 A 
ATOM      6  H11 EML d          -4.542  34.846  84.337  0.00  0.00     0.091 H 
ENDROOT
BRANCH   5   7
ATOM      7  C13 EML d          -2.028  35.971  85.264  0.00  0.00     0.124 C 
ATOM      8  H12 EML d          -2.713  36.618  85.832  0.00  0.00     0.086 H 
ATOM      9  H13 EML d          -1.046  35.951  85.760  0.00  0.00     0.086 H 
BRANCH   7  10
ATOM     10  N8  EML d          -1.836  36.600  83.899  0.00  0.00    -0.056 N 
ATOM     11  H8  EML d          -2.467  36.014  83.375  0.00  0.00     0.281 HD
BRANCH  10  12
ATOM     12  C4  EML d          -2.488  37.896  83.696  0.00  0.00     0.082 C 
ATOM     13  H4  EML d          -2.656  37.992  82.613  0.00  0.00     0.075 H 
ATOM     14  H5  EML d          -1.768  38.660  84.024  0.00  0.00     0.075 H 
BRANCH  12  15
ATOM     15  C16 EML d          -3.793  38.232  84.358  0.00  0.00    -0.053 C 
ATOM     16  H14 EML d          -3.999  39.307  84.237  0.00  0.00     0.029 H 
ATOM     17  H15 EML d          -3.734  37.989  85.429  0.00  0.00     0.029 H 
ATOM     18  H16 EML d          -4.601  37.649  83.893  0.00  0.00     0.029 H 
ENDBRANCH  12  15
ENDBRANCH  10  12
BRANCH  10  19
ATOM     19  C15 EML d          -0.606  36.355  83.112  0.00  0.00     0.142 C 
BRANCH  19  20
ATOM     20  C17 EML d          -0.773  35.185  82.116  0.00  0.00     0.047 C 
ATOM     21  H17 EML d           0.201  34.693  81.979  0.00  0.00     0.077 H 
ATOM     22  H18 EML d          -1.492  34.464  82.531  0.00  0.00     0.077 H 
BRANCH  20  23
ATOM     23  O1  EML d          -1.252  35.633  80.834  0.00  0.00    -0.398 OA
ATOM     24  H2  EML d          -0.544  35.598  80.202  0.00  0.00     0.209 HD
ENDBRANCH  20  23
ENDBRANCH  19  20
BRANCH  19  25
ATOM     25  C18 EML d           0.548  35.851  83.909  0.00  0.00    -0.043 C 
ATOM     26  H19 EML d           1.254  36.674  84.093  0.00  0.00     0.030 H 
ATOM     27  H20 EML d           1.056  35.051  83.352  0.00  0.00     0.030 H 
ATOM     28  H21 EML d           0.186  35.456  84.869  0.00  0.00     0.030 H 
ENDBRANCH  19  25
BRANCH  19  29
ATOM     29  C20 EML d          -0.067  37.652  82.445  0.00  0.00    -0.043 C 
ATOM     30  H25 EML d          -0.117  38.483  83.164  0.00  0.00     0.030 H 
ATOM     31  H26 EML d          -0.680  37.893  81.564  0.00  0.00     0.030 H 
ATOM     32  H27 EML d           0.977  37.498  82.135  0.00  0.00     0.030 H 
ENDBRANCH  19  29
ENDBRANCH  10  19
ENDBRANCH   7  10
ENDBRANCH   5   7
BRANCH   3  33
ATOM     33  N1  EML d          -5.178  32.063  84.640  0.00  0.00    -0.331 N 
ATOM     34  H1  EML d          -5.964  32.060  85.304  0.00  0.00     0.168 HD
BRANCH  33  35
ATOM     35  C5  EML d          -5.331  31.332  83.470  0.00  0.00     0.176 A 
ATOM     36  C6  EML d          -4.688  31.707  82.288  0.00  0.00     0.181 A 
ATOM     37  N2  EML d          -3.889  32.826  82.023  0.00  0.00    -0.237 NA
ATOM     38  N3  EML d          -4.879  30.943  81.174  0.00  0.00    -0.299 N 
ATOM     39  C9  EML d          -3.613  32.669  80.712  0.00  0.00     0.032 A 
ATOM     40  C7  EML d          -4.192  31.514  80.124  0.00  0.00     0.071 A 
ATOM     41  H9  EML d          -2.996  33.370  80.151  0.00  0.00     0.118 H 
ATOM     42  C2  EML d          -5.671  29.816  81.115  0.00  0.00     0.011 A 
ATOM     43  C3  EML d          -6.325  29.450  82.267  0.00  0.00     0.049 A 
ATOM     44  H3  EML d          -5.773  29.241  80.196  0.00  0.00     0.115 H 
ATOM     45  N7  EML d          -6.161  30.231  83.403  0.00  0.00    -0.231 NA
BRANCH  40  46
ATOM     46  C1  EML d          -4.164  31.066  78.675  0.00  0.00     0.029 A 
ATOM     47  C8  EML d          -3.485  31.730  77.656  0.00  0.00     0.035 A 
ATOM     48  N5  EML d          -3.721  30.988  76.555  0.00  0.00    -0.187 NA
ATOM     49  H7  EML d          -2.896  32.642  77.732  0.00  0.00     0.118 H 
ATOM     50  N4  EML d          -4.480  29.909  76.818  0.00  0.00    -0.289 N 
ATOM     51  C10 EML d          -4.790  29.911  78.116  0.00  0.00     0.009 A 
ATOM     52  H6  EML d          -4.775  29.199  76.131  0.00  0.00     0.188 HD
ATOM     53  H10 EML d          -5.398  29.178  78.643  0.00  0.00     0.115 H 
ENDBRANCH  40  46
BRANCH  43  54
ATOM     54  C19 EML d          -7.187  28.237  82.330  0.00  0.00    -0.034 C 
ATOM     55  H22 EML d          -7.346  27.847  81.314  0.00  0.00     0.035 H 
ATOM     56  H23 EML d          -8.156  28.498  82.779  0.00  0.00     0.035 H 
ATOM     57  H24 EML d          -6.694  27.468  82.944  0.00  0.00     0.035 H 
ENDBRANCH  43  54
ENDBRANCH  33  35
ENDBRANCH   3  33
TORSDOF 13
ENDMDL
MODEL 6
REMARK VINA RESULT:      -6.2      2.609      4.299
REMARK  13 active torsions:
REMARK  status: ('A' for Active; 'I' for Inactive)
REMARK    1  A    between atoms: C7_15  and  C1_1 
REMARK    2  A    between atoms: N1_2  and  C5_11 
REMARK    3  A    between atoms: C11_21  and  N1_2 
REMARK    4  A    between atoms: C17_27  and  O1_3 
REMARK    5  A    between atoms: C3_7  and  C19_29 
REMARK    6  A    between atoms: N8_18  and  C4_9 
REMARK    7  A    between atoms: C4_9  and  C16_26 
REMARK    8  A    between atoms: N8_18  and  C13_23 
REMARK    9  A    between atoms: C15_25  and  N8_18 
REMARK   10  A    between atoms: C13_23  and  C14_24 
REMARK   11  A    between atoms: C15_25  and  C17_27 
REMARK   12  A    between atoms: C15_25  and  C18_28 
REMARK   13  A    between atoms: C15_25  and  C20_30 
ROOT
ATOM      1  S1  EML d          -3.309  36.112  83.944  0.00  0.00     0.029 SA
ATOM      2  N6  EML d          -2.311  37.302  83.782  0.00  0.00    -0.212 NA
ATOM      3  C11 EML d          -2.148  34.836  84.093  0.00  0.00     0.096 A 
ATOM      4  C12 EML d          -0.904  35.471  84.021  0.00  0.00    -0.023 A 
ATOM      5  C14 EML d          -1.038  36.849  83.846  0.00  0.00     0.071 A 
ATOM      6  H11 EML d           0.052  34.954  84.094  0.00  0.00     0.091 H 
ENDROOT
BRANCH   5   7
ATOM      7  C13 EML d           0.101  37.838  83.744  0.00  0.00     0.124 C 
ATOM      8  H12 EML d          -0.252  38.792  84.163  0.00  0.00     0.086 H 
ATOM      9  H13 EML d           0.930  37.452  84.355  0.00  0.00     0.086 H 
BRANCH   7  10
ATOM     10  N8  EML d           0.650  38.125  82.361  0.00  0.00    -0.056 N 
ATOM     11  H8  EML d          -0.037  37.623  81.821  0.00  0.00     0.281 HD
BRANCH  10  12
ATOM     12  C4  EML d           0.418  39.478  81.850  0.00  0.00     0.082 C 
ATOM     13  H4  EML d           0.554  39.425  80.760  0.00  0.00     0.075 H 
ATOM     14  H5  EML d           1.203  40.114  82.287  0.00  0.00     0.075 H 
BRANCH  12  15
ATOM     15  C16 EML d          -0.882  40.193  82.080  0.00  0.00    -0.053 C 
ATOM     16  H14 EML d          -1.366  40.394  81.113  0.00  0.00     0.029 H 
ATOM     17  H15 EML d          -0.691  41.143  82.599  0.00  0.00     0.029 H 
ATOM     18  H16 EML d          -1.542  39.565  82.696  0.00  0.00     0.029 H 
ENDBRANCH  12  15
ENDBRANCH  10  12
BRANCH  10  19
ATOM     19  C15 EML d           1.863  37.436  81.864  0.00  0.00     0.142 C 
BRANCH  19  20
ATOM     20  C17 EML d           2.479  38.148  80.638  0.00  0.00     0.047 C 
ATOM     21  H17 EML d           2.035  39.151  80.549  0.00  0.00     0.077 H 
ATOM     22  H18 EML d           3.565  38.240  80.787  0.00  0.00     0.077 H 
BRANCH  20  23
ATOM     23  O1  EML d           2.237  37.423  79.417  0.00  0.00    -0.398 OA
ATOM     24  H2  EML d           2.463  36.509  79.543  0.00  0.00     0.209 HD
ENDBRANCH  20  23
ENDBRANCH  19  20
BRANCH  19  25
ATOM     25  C18 EML d           1.613  36.089  81.280  0.00  0.00    -0.043 C 
ATOM     26  H19 EML d           0.643  35.710  81.632  0.00  0.00     0.030 H 
ATOM     27  H20 EML d           2.411  35.400  81.593  0.00  0.00     0.030 H 
ATOM     28  H21 EML d           1.602  36.162  80.182  0.00  0.00     0.030 H 
ENDBRANCH  19  25
BRANCH  19  29
ATOM     29  C20 EML d           2.895  37.171  82.997  0.00  0.00    -0.043 C 
ATOM     30  H25 EML d           2.592  37.716  83.904  0.00  0.00     0.030 H 
ATOM     31  H26 EML d           3.888  37.518  82.676  0.00  0.00     0.030 H 
ATOM     32  H27 EML d           2.934  36.093  83.213  0.00  0.00     0.030 H 
ENDBRANCH  19  29
ENDBRANCH  10  19
ENDBRANCH   7  10
ENDBRANCH   5   7
BRANCH   3  33
ATOM     33  N1  EML d          -2.402  33.470  84.241  0.00  0.00    -0.331 N 
ATOM     34  H1  EML d          -1.956  32.991  85.035  0.00  0.00     0.168 HD
BRANCH  33  35
ATOM     35  C5  EML d          -3.204  32.707  83.405  0.00  0.00     0.176 A 
ATOM     36  C6  EML d          -2.913  32.563  82.047  0.00  0.00     0.181 A 
ATOM     37  N2  EML d          -1.898  33.154  81.284  0.00  0.00    -0.237 NA
ATOM     38  N3  EML d          -3.743  31.796  81.282  0.00  0.00    -0.299 N 
ATOM     39  C9  EML d          -2.165  32.683  80.049  0.00  0.00     0.032 A 
ATOM     40  C7  EML d          -3.296  31.827  79.979  0.00  0.00     0.071 A 
ATOM     41  H9  EML d          -1.563  32.938  79.177  0.00  0.00     0.118 H 
ATOM     42  C2  EML d          -4.866  31.145  81.745  0.00  0.00     0.011 A 
ATOM     43  C3  EML d          -5.174  31.296  83.076  0.00  0.00     0.049 A 
ATOM     44  H3  EML d          -5.482  30.536  81.084  0.00  0.00     0.115 H 
ATOM     45  N7  EML d          -4.354  32.093  83.862  0.00  0.00    -0.231 NA
BRANCH  40  46
ATOM     46  C1  EML d          -3.933  31.189  78.759  0.00  0.00     0.029 A 
ATOM     47  C8  EML d          -3.959  31.762  77.490  0.00  0.00     0.035 A 
ATOM     48  N5  EML d          -4.604  30.858  76.724  0.00  0.00    -0.187 NA
ATOM     49  H7  EML d          -3.550  32.724  77.184  0.00  0.00     0.118 H 
ATOM     50  N4  EML d          -4.965  29.764  77.420  0.00  0.00    -0.289 N 
ATOM     51  C10 EML d          -4.580  29.918  78.688  0.00  0.00     0.009 A 
ATOM     52  H6  EML d          -5.457  28.944  77.037  0.00  0.00     0.188 HD
ATOM     53  H10 EML d          -4.729  29.215  79.506  0.00  0.00     0.115 H 
ENDBRANCH  40  46
BRANCH  43  54
ATOM     54  C19 EML d          -6.348  30.619  83.693  0.00  0.00    -0.034 C 
ATOM     55  H22 EML d          -6.936  31.351  84.266  0.00  0.00     0.035 H 
ATOM     56  H23 EML d          -5.999  29.822  84.366  0.00  0.00     0.035 H 
ATOM     57  H24 EML d          -6.977  30.182  82.902  0.00  0.00     0.035 H 
ENDBRANCH  43  54
ENDBRANCH  33  35
ENDBRANCH   3  33
TORSDOF 13
ENDMDL
MODEL 7
REMARK VINA RESULT:      -6.1      2.687      4.189
REMARK  13 active torsions:
REMARK  status: ('A' for Active; 'I' for Inactive)
REMARK    1  A    between atoms: C7_15  and  C1_1 
REMARK    2  A    between atoms: N1_2  and  C5_11 
REMARK    3  A    between atoms: C11_21  and  N1_2 
REMARK    4  A    between atoms: C17_27  and  O1_3 
REMARK    5  A    between atoms: C3_7  and  C19_29 
REMARK    6  A    between atoms: N8_18  and  C4_9 
REMARK    7  A    between atoms: C4_9  and  C16_26 
REMARK    8  A    between atoms: N8_18  and  C13_23 
REMARK    9  A    between atoms: C15_25  and  N8_18 
REMARK   10  A    between atoms: C13_23  and  C14_24 
REMARK   11  A    between atoms: C15_25  and  C17_27 
REMARK   12  A    between atoms: C15_25  and  C18_28 
REMARK   13  A    between atoms: C15_25  and  C20_30 
ROOT
ATOM      1  S1  EML d          -1.883  32.425  85.345  0.00  0.00     0.029 SA
ATOM      2  N6  EML d          -0.850  33.586  85.189  0.00  0.00    -0.212 NA
ATOM      3  C11 EML d          -3.325  33.338  85.046  0.00  0.00     0.096 A 
ATOM      4  C12 EML d          -2.880  34.640  84.792  0.00  0.00    -0.023 A 
ATOM      5  C14 EML d          -1.491  34.737  84.883  0.00  0.00     0.071 A 
ATOM      6  H11 EML d          -3.537  35.475  84.554  0.00  0.00     0.091 H 
ENDROOT
BRANCH   5   7
ATOM      7  C13 EML d          -0.679  35.992  84.655  0.00  0.00     0.124 C 
ATOM      8  H12 EML d          -1.188  36.814  85.179  0.00  0.00     0.086 H 
ATOM      9  H13 EML d           0.313  35.829  85.102  0.00  0.00     0.086 H 
BRANCH   7  10
ATOM     10  N8  EML d          -0.466  36.431  83.221  0.00  0.00    -0.056 N 
ATOM     11  H8  EML d          -0.784  35.592  82.760  0.00  0.00     0.281 HD
BRANCH  10  12
ATOM     12  C4  EML d          -1.446  37.382  82.692  0.00  0.00     0.082 C 
ATOM     13  H4  EML d          -2.213  36.784  82.180  0.00  0.00     0.075 H 
ATOM     14  H5  EML d          -0.911  38.001  81.955  0.00  0.00     0.075 H 
BRANCH  12  15
ATOM     15  C16 EML d          -2.180  38.335  83.590  0.00  0.00    -0.053 C 
ATOM     16  H14 EML d          -3.240  38.042  83.647  0.00  0.00     0.029 H 
ATOM     17  H15 EML d          -2.104  39.354  83.184  0.00  0.00     0.029 H 
ATOM     18  H16 EML d          -1.737  38.306  84.596  0.00  0.00     0.029 H 
ENDBRANCH  12  15
ENDBRANCH  10  12
BRANCH  10  19
ATOM     19  C15 EML d           0.893  36.497  82.637  0.00  0.00     0.142 C 
BRANCH  19  20
ATOM     20  C17 EML d           1.042  35.587  81.396  0.00  0.00     0.047 C 
ATOM     21  H17 EML d           0.098  35.047  81.236  0.00  0.00     0.077 H 
ATOM     22  H18 EML d           1.258  36.215  80.519  0.00  0.00     0.077 H 
BRANCH  20  23
ATOM     23  O1  EML d           2.106  34.629  81.555  0.00  0.00    -0.398 OA
ATOM     24  H2  EML d           2.813  35.023  82.052  0.00  0.00     0.209 HD
ENDBRANCH  20  23
ENDBRANCH  19  20
BRANCH  19  25
ATOM     25  C18 EML d           1.966  35.929  83.501  0.00  0.00    -0.043 C 
ATOM     26  H19 EML d           2.363  36.717  84.159  0.00  0.00     0.030 H 
ATOM     27  H20 EML d           2.776  35.537  82.869  0.00  0.00     0.030 H 
ATOM     28  H21 EML d           1.551  35.115  84.113  0.00  0.00     0.030 H 
ENDBRANCH  19  25
BRANCH  19  29
ATOM     29  C20 EML d           1.351  37.961  82.379  0.00  0.00    -0.043 C 
ATOM     30  H25 EML d           0.804  38.369  81.516  0.00  0.00     0.030 H 
ATOM     31  H26 EML d           2.431  37.975  82.169  0.00  0.00     0.030 H 
ATOM     32  H27 EML d           1.142  38.573  83.268  0.00  0.00     0.030 H 
ENDBRANCH  19  29
ENDBRANCH  10  19
ENDBRANCH   7  10
ENDBRANCH   5   7
BRANCH   3  33
ATOM     33  N1  EML d          -4.642  32.875  85.066  0.00  0.00    -0.331 N 
ATOM     34  H1  EML d          -5.294  33.336  85.716  0.00  0.00     0.168 HD
BRANCH  33  35
ATOM     35  C5  EML d          -5.145  31.847  84.281  0.00  0.00     0.176 A 
ATOM     36  C6  EML d          -4.926  31.809  82.903  0.00  0.00     0.181 A 
ATOM     37  N2  EML d          -4.284  32.737  82.075  0.00  0.00    -0.237 NA
ATOM     38  N3  EML d          -5.447  30.768  82.191  0.00  0.00    -0.299 N 
ATOM     39  C9  EML d          -4.440  32.181  80.855  0.00  0.00     0.032 A 
ATOM     40  C7  EML d          -5.149  30.952  80.858  0.00  0.00     0.071 A 
ATOM     41  H9  EML d          -4.055  32.638  79.945  0.00  0.00     0.118 H 
ATOM     42  C2  EML d          -6.188  29.737  82.727  0.00  0.00     0.011 A 
ATOM     43  C3  EML d          -6.428  29.775  84.080  0.00  0.00     0.049 A 
ATOM     44  H3  EML d          -6.567  28.926  82.106  0.00  0.00     0.115 H 
ATOM     45  N7  EML d          -5.926  30.841  84.815  0.00  0.00    -0.231 NA
BRANCH  40  46
ATOM     46  C1  EML d          -5.579  30.097  79.680  0.00  0.00     0.029 A 
ATOM     47  C8  EML d          -4.888  30.011  78.474  0.00  0.00     0.035 A 
ATOM     48  N5  EML d          -5.609  29.144  77.733  0.00  0.00    -0.187 NA
ATOM     49  H7  EML d          -3.972  30.527  78.192  0.00  0.00     0.118 H 
ATOM     50  N4  EML d          -6.684  28.677  78.396  0.00  0.00    -0.289 N 
ATOM     51  C10 EML d          -6.718  29.240  79.605  0.00  0.00     0.009 A 
ATOM     52  H6  EML d          -7.367  27.998  78.030  0.00  0.00     0.188 HD
ATOM     53  H10 EML d          -7.465  29.078  80.380  0.00  0.00     0.115 H 
ENDBRANCH  40  46
BRANCH  43  54
ATOM     54  C19 EML d          -7.193  28.702  84.774  0.00  0.00    -0.034 C 
ATOM     55  H22 EML d          -7.383  27.875  84.074  0.00  0.00     0.035 H 
ATOM     56  H23 EML d          -8.152  29.107  85.130  0.00  0.00     0.035 H 
ATOM     57  H24 EML d          -6.611  28.331  85.630  0.00  0.00     0.035 H 
ENDBRANCH  43  54
ENDBRANCH  33  35
ENDBRANCH   3  33
TORSDOF 13
ENDMDL
MODEL 8
REMARK VINA RESULT:      -6.0      2.361      3.689
REMARK  13 active torsions:
REMARK  status: ('A' for Active; 'I' for Inactive)
REMARK    1  A    between atoms: C7_15  and  C1_1 
REMARK    2  A    between atoms: N1_2  and  C5_11 
REMARK    3  A    between atoms: C11_21  and  N1_2 
REMARK    4  A    between atoms: C17_27  and  O1_3 
REMARK    5  A    between atoms: C3_7  and  C19_29 
REMARK    6  A    between atoms: N8_18  and  C4_9 
REMARK    7  A    between atoms: C4_9  and  C16_26 
REMARK    8  A    between atoms: N8_18  and  C13_23 
REMARK    9  A    between atoms: C15_25  and  N8_18 
REMARK   10  A    between atoms: C13_23  and  C14_24 
REMARK   11  A    between atoms: C15_25  and  C17_27 
REMARK   12  A    between atoms: C15_25  and  C18_28 
REMARK   13  A    between atoms: C15_25  and  C20_30 
ROOT
ATOM      1  S1  EML d          -2.025  32.309  85.613  0.00  0.00     0.029 SA
ATOM      2  N6  EML d          -0.829  33.303  85.465  0.00  0.00    -0.212 NA
ATOM      3  C11 EML d          -3.255  33.300  84.904  0.00  0.00     0.096 A 
ATOM      4  C12 EML d          -2.598  34.477  84.529  0.00  0.00    -0.023 A 
ATOM      5  C14 EML d          -1.244  34.440  84.861  0.00  0.00     0.071 A 
ATOM      6  H11 EML d          -3.084  35.319  84.038  0.00  0.00     0.091 H 
ENDROOT
BRANCH   5   7
ATOM      7  C13 EML d          -0.239  35.535  84.587  0.00  0.00     0.124 C 
ATOM      8  H12 EML d           0.667  35.304  85.166  0.00  0.00     0.086 H 
ATOM      9  H13 EML d          -0.005  35.507  83.512  0.00  0.00     0.086 H 
BRANCH   7  10
ATOM     10  N8  EML d          -0.647  36.954  84.928  0.00  0.00    -0.056 N 
ATOM     11  H8  EML d          -1.529  36.753  85.374  0.00  0.00     0.281 HD
BRANCH  10  12
ATOM     12  C4  EML d           0.058  37.568  86.055  0.00  0.00     0.082 C 
ATOM     13  H4  EML d          -0.434  37.198  86.966  0.00  0.00     0.075 H 
ATOM     14  H5  EML d          -0.101  38.653  85.967  0.00  0.00     0.075 H 
BRANCH  12  15
ATOM     15  C16 EML d           1.532  37.372  86.261  0.00  0.00    -0.053 C 
ATOM     16  H14 EML d           2.088  37.960  85.515  0.00  0.00     0.029 H 
ATOM     17  H15 EML d           1.780  36.307  86.147  0.00  0.00     0.029 H 
ATOM     18  H16 EML d           1.809  37.707  87.271  0.00  0.00     0.029 H 
ENDBRANCH  12  15
ENDBRANCH  10  12
BRANCH  10  19
ATOM     19  C15 EML d          -1.140  37.878  83.881  0.00  0.00     0.142 C 
BRANCH  19  20
ATOM     20  C17 EML d          -0.634  37.490  82.473  0.00  0.00     0.047 C 
ATOM     21  H17 EML d          -0.441  38.408  81.898  0.00  0.00     0.077 H 
ATOM     22  H18 EML d           0.300  36.918  82.575  0.00  0.00     0.077 H 
BRANCH  20  23
ATOM     23  O1  EML d          -1.594  36.688  81.759  0.00  0.00    -0.398 OA
ATOM     24  H2  EML d          -1.204  35.850  81.539  0.00  0.00     0.209 HD
ENDBRANCH  20  23
ENDBRANCH  19  20
BRANCH  19  25
ATOM     25  C18 EML d          -0.598  39.264  83.974  0.00  0.00    -0.043 C 
ATOM     26  H19 EML d          -0.190  39.431  84.982  0.00  0.00     0.030 H 
ATOM     27  H20 EML d          -1.405  39.986  83.781  0.00  0.00     0.030 H 
ATOM     28  H21 EML d           0.199  39.396  83.229  0.00  0.00     0.030 H 
ENDBRANCH  19  25
BRANCH  19  29
ATOM     29  C20 EML d          -2.681  38.070  83.944  0.00  0.00    -0.043 C 
ATOM     30  H25 EML d          -2.935  38.727  84.790  0.00  0.00     0.030 H 
ATOM     31  H26 EML d          -3.167  37.093  84.081  0.00  0.00     0.030 H 
ATOM     32  H27 EML d          -3.033  38.527  83.007  0.00  0.00     0.030 H 
ENDBRANCH  19  29
ENDBRANCH  10  19
ENDBRANCH   7  10
ENDBRANCH   5   7
BRANCH   3  33
ATOM     33  N1  EML d          -4.610  32.994  84.752  0.00  0.00    -0.331 N 
ATOM     34  H1  EML d          -5.285  33.574  85.269  0.00  0.00     0.168 HD
BRANCH  33  35
ATOM     35  C5  EML d          -5.119  31.974  83.962  0.00  0.00     0.176 A 
ATOM     36  C6  EML d          -4.804  31.877  82.605  0.00  0.00     0.181 A 
ATOM     37  N2  EML d          -4.045  32.736  81.801  0.00  0.00    -0.237 NA
ATOM     38  N3  EML d          -5.338  30.847  81.886  0.00  0.00    -0.299 N 
ATOM     39  C9  EML d          -4.148  32.151  80.589  0.00  0.00     0.032 A 
ATOM     40  C7  EML d          -4.933  30.968  80.574  0.00  0.00     0.071 A 
ATOM     41  H9  EML d          -3.669  32.553  79.698  0.00  0.00     0.118 H 
ATOM     42  C2  EML d          -6.180  29.882  82.394  0.00  0.00     0.011 A 
ATOM     43  C3  EML d          -6.514  29.980  83.724  0.00  0.00     0.049 A 
ATOM     44  H3  EML d          -6.563  29.076  81.770  0.00  0.00     0.115 H 
ATOM     45  N7  EML d          -6.000  31.035  84.463  0.00  0.00    -0.231 NA
BRANCH  40  46
ATOM     46  C1  EML d          -5.329  30.104  79.392  0.00  0.00     0.029 A 
ATOM     47  C8  EML d          -6.467  29.303  79.345  0.00  0.00     0.035 A 
ATOM     48  N5  EML d          -6.429  28.732  78.124  0.00  0.00    -0.187 NA
ATOM     49  H7  EML d          -7.220  29.169  80.121  0.00  0.00     0.118 H 
ATOM     50  N4  EML d          -5.362  29.130  77.407  0.00  0.00    -0.289 N 
ATOM     51  C10 EML d          -4.643  29.976  78.146  0.00  0.00     0.009 A 
ATOM     52  H6  EML d          -5.138  28.832  76.447  0.00  0.00     0.188 HD
ATOM     53  H10 EML d          -3.716  30.470  77.858  0.00  0.00     0.115 H 
ENDBRANCH  40  46
BRANCH  43  54
ATOM     54  C19 EML d          -7.395  28.979  84.389  0.00  0.00    -0.034 C 
ATOM     55  H22 EML d          -7.533  28.113  83.725  0.00  0.00     0.035 H 
ATOM     56  H23 EML d          -8.372  29.436  84.603  0.00  0.00     0.035 H 
ATOM     57  H24 EML d          -6.930  28.649  85.330  0.00  0.00     0.035 H 
ENDBRANCH  43  54
ENDBRANCH  33  35
ENDBRANCH   3  33
TORSDOF 13
ENDMDL
MODEL 9
REMARK VINA RESULT:      -6.0      2.221      3.717
REMARK  13 active torsions:
REMARK  status: ('A' for Active; 'I' for Inactive)
REMARK    1  A    between atoms: C7_15  and  C1_1 
REMARK    2  A    between atoms: N1_2  and  C5_11 
REMARK    3  A    between atoms: C11_21  and  N1_2 
REMARK    4  A    between atoms: C17_27  and  O1_3 
REMARK    5  A    between atoms: C3_7  and  C19_29 
REMARK    6  A    between atoms: N8_18  and  C4_9 
REMARK    7  A    between atoms: C4_9  and  C16_26 
REMARK    8  A    between atoms: N8_18  and  C13_23 
REMARK    9  A    between atoms: C15_25  and  N8_18 
REMARK   10  A    between atoms: C13_23  and  C14_24 
REMARK   11  A    between atoms: C15_25  and  C17_27 
REMARK   12  A    between atoms: C15_25  and  C18_28 
REMARK   13  A    between atoms: C15_25  and  C20_30 
ROOT
ATOM      1  S1  EML d          -3.851  35.410  83.990  0.00  0.00     0.029 SA
ATOM      2  N6  EML d          -2.767  36.515  84.199  0.00  0.00    -0.212 NA
ATOM      3  C11 EML d          -2.897  34.040  84.450  0.00  0.00     0.096 A 
ATOM      4  C12 EML d          -1.650  34.571  84.801  0.00  0.00    -0.023 A 
ATOM      5  C14 EML d          -1.618  35.957  84.645  0.00  0.00     0.071 A 
ATOM      6  H11 EML d          -0.809  33.975  85.152  0.00  0.00     0.091 H 
ENDROOT
BRANCH   5   7
ATOM      7  C13 EML d          -0.436  36.849  84.947  0.00  0.00     0.124 C 
ATOM      8  H12 EML d          -0.800  37.887  84.955  0.00  0.00     0.086 H 
ATOM      9  H13 EML d          -0.067  36.581  85.948  0.00  0.00     0.086 H 
BRANCH   7  10
ATOM     10  N8  EML d           0.742  36.788  83.996  0.00  0.00    -0.056 N 
ATOM     11  H8  EML d           1.203  37.640  84.275  0.00  0.00     0.281 HD
BRANCH  10  12
ATOM     12  C4  EML d           1.790  35.824  84.339  0.00  0.00     0.082 C 
ATOM     13  H4  EML d           2.740  36.269  84.008  0.00  0.00     0.075 H 
ATOM     14  H5  EML d           1.584  34.919  83.748  0.00  0.00     0.075 H 
BRANCH  12  15
ATOM     15  C16 EML d           2.006  35.367  85.752  0.00  0.00    -0.053 C 
ATOM     16  H14 EML d           3.009  34.925  85.845  0.00  0.00     0.029 H 
ATOM     17  H15 EML d           1.248  34.614  86.013  0.00  0.00     0.029 H 
ATOM     18  H16 EML d           1.919  36.226  86.433  0.00  0.00     0.029 H 
ENDBRANCH  12  15
ENDBRANCH  10  12
BRANCH  10  19
ATOM     19  C15 EML d           0.577  37.092  82.556  0.00  0.00     0.142 C 
BRANCH  19  20
ATOM     20  C17 EML d           0.158  35.848  81.740  0.00  0.00     0.047 C 
ATOM     21  H17 EML d           0.772  35.797  80.829  0.00  0.00     0.077 H 
ATOM     22  H18 EML d           0.330  34.948  82.349  0.00  0.00     0.077 H 
BRANCH  20  23
ATOM     23  O1  EML d          -1.231  35.895  81.362  0.00  0.00    -0.398 OA
ATOM     24  H2  EML d          -1.375  36.628  80.776  0.00  0.00     0.209 HD
ENDBRANCH  20  23
ENDBRANCH  19  20
BRANCH  19  25
ATOM     25  C18 EML d           1.840  37.449  81.850  0.00  0.00    -0.043 C 
ATOM     26  H19 EML d           1.660  37.471  80.765  0.00  0.00     0.030 H 
ATOM     27  H20 EML d           2.611  36.699  82.078  0.00  0.00     0.030 H 
ATOM     28  H21 EML d           2.180  38.439  82.186  0.00  0.00     0.030 H 
ENDBRANCH  19  25
BRANCH  19  29
ATOM     29  C20 EML d          -0.349  38.319  82.317  0.00  0.00    -0.043 C 
ATOM     30  H25 EML d          -0.993  38.469  83.196  0.00  0.00     0.030 H 
ATOM     31  H26 EML d          -0.974  38.138  81.430  0.00  0.00     0.030 H 
ATOM     32  H27 EML d           0.266  39.217  82.156  0.00  0.00     0.030 H 
ENDBRANCH  19  29
ENDBRANCH  10  19
ENDBRANCH   7  10
ENDBRANCH   5   7
BRANCH   3  33
ATOM     33  N1  EML d          -3.285  32.699  84.457  0.00  0.00    -0.331 N 
ATOM     34  H1  EML d          -3.087  32.154  85.308  0.00  0.00     0.168 HD
BRANCH  33  35
ATOM     35  C5  EML d          -3.916  32.039  83.412  0.00  0.00     0.176 A 
ATOM     36  C6  EML d          -3.437  32.121  82.103  0.00  0.00     0.181 A 
ATOM     37  N2  EML d          -2.369  32.868  81.589  0.00  0.00    -0.237 NA
ATOM     38  N3  EML d          -4.104  31.446  81.123  0.00  0.00    -0.299 N 
ATOM     39  C9  EML d          -2.437  32.583  80.272  0.00  0.00     0.032 A 
ATOM     40  C7  EML d          -3.489  31.699  79.915  0.00  0.00     0.071 A 
ATOM     41  H9  EML d          -1.741  32.997  79.543  0.00  0.00     0.118 H 
ATOM     42  C2  EML d          -5.233  30.681  81.319  0.00  0.00     0.011 A 
ATOM     43  C3  EML d          -5.727  30.610  82.600  0.00  0.00     0.049 A 
ATOM     44  H3  EML d          -5.713  30.155  80.495  0.00  0.00     0.115 H 
ATOM     45  N7  EML d          -5.074  31.311  83.604  0.00  0.00    -0.231 NA
BRANCH  40  46
ATOM     46  C1  EML d          -3.912  31.230  78.536  0.00  0.00     0.029 A 
ATOM     47  C8  EML d          -3.845  32.006  77.382  0.00  0.00     0.035 A 
ATOM     48  N5  EML d          -4.304  31.199  76.405  0.00  0.00    -0.187 NA
ATOM     49  H7  EML d          -3.499  33.034  77.290  0.00  0.00     0.118 H 
ATOM     50  N4  EML d          -4.636  29.978  76.864  0.00  0.00    -0.289 N 
ATOM     51  C10 EML d          -4.419  29.944  78.180  0.00  0.00     0.009 A 
ATOM     52  H6  EML d          -4.997  29.199  76.294  0.00  0.00     0.188 HD
ATOM     53  H10 EML d          -4.595  29.103  78.849  0.00  0.00     0.115 H 
ENDBRANCH  40  46
BRANCH  43  54
ATOM     54  C19 EML d          -6.926  29.793  82.936  0.00  0.00    -0.034 C 
ATOM     55  H22 EML d          -6.612  28.770  83.193  0.00  0.00     0.035 H 
ATOM     56  H23 EML d          -7.603  29.761  82.070  0.00  0.00     0.035 H 
ATOM     57  H24 EML d          -7.448  30.242  83.794  0.00  0.00     0.035 H 
ENDBRANCH  43  54
ENDBRANCH  33  35
ENDBRANCH   3  33
TORSDOF 13
ENDMDL
MODEL 10
REMARK VINA RESULT:      -6.0      2.992      4.526
REMARK  13 active torsions:
REMARK  status: ('A' for Active; 'I' for Inactive)
REMARK    1  A    between atoms: C7_15  and  C1_1 
REMARK    2  A    between atoms: N1_2  and  C5_11 
REMARK    3  A    between atoms: C11_21  and  N1_2 
REMARK    4  A    between atoms: C17_27  and  O1_3 
REMARK    5  A    between atoms: C3_7  and  C19_29 
REMARK    6  A    between atoms: N8_18  and  C4_9 
REMARK    7  A    between atoms: C4_9  and  C16_26 
REMARK    8  A    between atoms: N8_18  and  C13_23 
REMARK    9  A    between atoms: C15_25  and  N8_18 
REMARK   10  A    between atoms: C13_23  and  C14_24 
REMARK   11  A    between atoms: C15_25  and  C17_27 
REMARK   12  A    between atoms: C15_25  and  C18_28 
REMARK   13  A    between atoms: C15_25  and  C20_30 
ROOT
ATOM      1  S1  EML d          -1.866  32.715  85.627  0.00  0.00     0.029 SA
ATOM      2  N6  EML d          -0.490  33.448  85.539  0.00  0.00    -0.212 NA
ATOM      3  C11 EML d          -2.864  33.994  85.019  0.00  0.00     0.096 A 
ATOM      4  C12 EML d          -1.976  35.036  84.728  0.00  0.00    -0.023 A 
ATOM      5  C14 EML d          -0.659  34.691  85.034  0.00  0.00     0.071 A 
ATOM      6  H11 EML d          -2.276  35.997  84.313  0.00  0.00     0.091 H 
ENDROOT
BRANCH   5   7
ATOM      7  C13 EML d           0.552  35.573  84.831  0.00  0.00     0.124 C 
ATOM      8  H12 EML d           0.743  36.095  85.781  0.00  0.00     0.086 H 
ATOM      9  H13 EML d           1.402  34.917  84.594  0.00  0.00     0.086 H 
BRANCH   7  10
ATOM     10  N8  EML d           0.471  36.625  83.743  0.00  0.00    -0.056 N 
ATOM     11  H8  EML d          -0.509  36.540  83.526  0.00  0.00     0.281 HD
BRANCH  10  12
ATOM     12  C4  EML d           0.497  38.017  84.198  0.00  0.00     0.082 C 
ATOM     13  H4  EML d           1.173  38.553  83.517  0.00  0.00     0.075 H 
ATOM     14  H5  EML d           0.929  38.005  85.210  0.00  0.00     0.075 H 
BRANCH  12  15
ATOM     15  C16 EML d          -0.757  38.839  84.284  0.00  0.00    -0.053 C 
ATOM     16  H14 EML d          -0.545  39.775  84.823  0.00  0.00     0.029 H 
ATOM     17  H15 EML d          -1.530  38.273  84.823  0.00  0.00     0.029 H 
ATOM     18  H16 EML d          -1.112  39.072  83.270  0.00  0.00     0.029 H 
ENDBRANCH  12  15
ENDBRANCH  10  12
BRANCH  10  19
ATOM     19  C15 EML d           1.017  36.368  82.391  0.00  0.00     0.142 C 
BRANCH  19  20
ATOM     20  C17 EML d           0.041  35.553  81.512  0.00  0.00     0.047 C 
ATOM     21  H17 EML d           0.488  35.417  80.516  0.00  0.00     0.077 H 
ATOM     22  H18 EML d          -0.122  34.570  81.978  0.00  0.00     0.077 H 
BRANCH  20  23
ATOM     23  O1  EML d          -1.230  36.214  81.364  0.00  0.00    -0.398 OA
ATOM     24  H2  EML d          -1.838  35.634  80.921  0.00  0.00     0.209 HD
ENDBRANCH  20  23
ENDBRANCH  19  20
BRANCH  19  25
ATOM     25  C18 EML d           2.202  35.464  82.364  0.00  0.00    -0.043 C 
ATOM     26  H19 EML d           2.520  35.309  81.322  0.00  0.00     0.030 H 
ATOM     27  H20 EML d           1.936  34.497  82.814  0.00  0.00     0.030 H 
ATOM     28  H21 EML d           3.024  35.921  82.934  0.00  0.00     0.030 H 
ENDBRANCH  19  25
BRANCH  19  29
ATOM     29  C20 EML d           1.518  37.669  81.702  0.00  0.00    -0.043 C 
ATOM     30  H25 EML d           2.080  38.275  82.428  0.00  0.00     0.030 H 
ATOM     31  H26 EML d           0.656  38.244  81.334  0.00  0.00     0.030 H 
ATOM     32  H27 EML d           2.173  37.408  80.858  0.00  0.00     0.030 H 
ENDBRANCH  19  29
ENDBRANCH  10  19
ENDBRANCH   7  10
ENDBRANCH   5   7
BRANCH   3  33
ATOM     33  N1  EML d          -4.252  33.989  84.866  0.00  0.00    -0.331 N 
ATOM     34  H1  EML d          -4.743  34.886  84.986  0.00  0.00     0.168 HD
BRANCH  33  35
ATOM     35  C5  EML d          -5.023  32.875  84.566  0.00  0.00     0.176 A 
ATOM     36  C6  EML d          -4.945  32.250  83.319  0.00  0.00     0.181 A 
ATOM     37  N2  EML d          -4.208  32.609  82.185  0.00  0.00    -0.237 NA
ATOM     38  N3  EML d          -5.730  31.157  83.091  0.00  0.00    -0.299 N 
ATOM     39  C9  EML d          -4.586  31.668  81.295  0.00  0.00     0.032 A 
ATOM     40  C7  EML d          -5.526  30.730  81.796  0.00  0.00     0.071 A 
ATOM     41  H9  EML d          -4.202  31.631  80.276  0.00  0.00     0.118 H 
ATOM     42  C2  EML d          -6.611  30.613  84.001  0.00  0.00     0.011 A 
ATOM     43  C3  EML d          -6.712  31.233  85.223  0.00  0.00     0.049 A 
ATOM     44  H3  EML d          -7.201  29.729  83.761  0.00  0.00     0.115 H 
ATOM     45  N7  EML d          -5.938  32.361  85.463  0.00  0.00    -0.231 NA
BRANCH  40  46
ATOM     46  C1  EML d          -6.226  29.600  81.066  0.00  0.00     0.029 A 
ATOM     47  C8  EML d          -7.064  29.769  79.966  0.00  0.00     0.035 A 
ATOM     48  N5  EML d          -7.449  28.519  79.639  0.00  0.00    -0.187 NA
ATOM     49  H7  EML d          -7.345  30.702  79.480  0.00  0.00     0.118 H 
ATOM     50  N4  EML d          -6.901  27.589  80.443  0.00  0.00    -0.289 N 
ATOM     51  C10 EML d          -6.139  28.203  81.349  0.00  0.00     0.009 A 
ATOM     52  H6  EML d          -7.046  26.571  80.370  0.00  0.00     0.188 HD
ATOM     53  H10 EML d          -5.566  27.733  82.147  0.00  0.00     0.115 H 
ENDBRANCH  40  46
BRANCH  43  54
ATOM     54  C19 EML d          -7.610  30.719  86.294  0.00  0.00    -0.034 C 
ATOM     55  H22 EML d          -7.053  30.655  87.241  0.00  0.00     0.035 H 
ATOM     56  H23 EML d          -7.978  29.721  86.016  0.00  0.00     0.035 H 
ATOM     57  H24 EML d          -8.463  31.404  86.417  0.00  0.00     0.035 H 
ENDBRANCH  43  54
ENDBRANCH  33  35
ENDBRANCH   3  33
TORSDOF 13
ENDMDL
