MODEL 1
REMARK VINA RESULT:      -3.9      0.000      0.000
REMARK  11 active torsions:
REMARK  status: ('A' for Active; 'I' for Inactive)
REMARK    1  A    between atoms: C24_1  and  C23_2 
REMARK       I    between atoms: C23_2  and  N22_4 
REMARK    2  A    between atoms: N22_4  and  C19_5 
REMARK    3  A    between atoms: C16_10  and  O14_11 
REMARK    4  A    between atoms: O14_11  and  C13_12 
REMARK    5  A    between atoms: C13_12  and  C11_13 
REMARK    6  A    between atoms: C11_13  and  O11_14 
REMARK    7  A    between atoms: C11_13  and  C12_15 
REMARK    8  A    between atoms: C11_13  and  C10_16 
REMARK       I    between atoms: C10_16  and  N9_18 
REMARK    9  A    between atoms: N9_18  and  C6_19 
REMARK   10  A    between atoms: C3_23  and  N8_24 
REMARK   11  A    between atoms: C4_27  and  C7_28 
ROOT
ATOM      1  C11 B68 d          26.047   4.416   3.614  0.00  0.00     0.156 C 
ENDROOT
BRANCH   1   2
ATOM      2  C13 B68 d          25.680   3.451   2.497  0.00  0.00     0.063 C 
ATOM      3  H9  B68 d          24.903   3.906   1.864  0.00  0.00     0.080 H 
ATOM      4  H10 B68 d          26.571   3.241   1.889  0.00  0.00     0.080 H 
BRANCH   2   5
ATOM      5  O14 B68 d          25.182   2.222   3.051  0.00  0.00    -0.348 OA
BRANCH   5   6
ATOM      6  C16 B68 d          26.158   1.279   3.157  0.00  0.00     0.069 A 
ATOM      7  C17 B68 d          26.017   0.211   4.039  0.00  0.00    -0.049 A 
ATOM      8  C18 B68 d          26.997  -0.775   4.104  0.00  0.00    -0.054 A 
ATOM      9  H6  B68 d          25.143   0.148   4.675  0.00  0.00     0.087 H 
ATOM     10  C19 B68 d          28.125  -0.707   3.289  0.00  0.00     0.034 A 
ATOM     11  H5  B68 d          26.882  -1.602   4.795  0.00  0.00     0.087 H 
ATOM     12  C20 B68 d          28.259   0.361   2.406  0.00  0.00    -0.054 A 
ATOM     13  C21 B68 d          27.283   1.351   2.339  0.00  0.00    -0.049 A 
ATOM     14  H7  B68 d          29.131   0.422   1.765  0.00  0.00     0.087 H 
ATOM     15  H8  B68 d          27.398   2.178   1.648  0.00  0.00     0.087 H 
BRANCH  10  16
ATOM     16  N22 B68 d          29.095  -1.621   3.336  0.00  0.00    -0.328 N 
ATOM     17  C23 B68 d          30.396  -1.356   3.237  0.00  0.00     0.218 C 
ATOM     18  O23 B68 d          30.876  -0.228   3.127  0.00  0.00    -0.274 OA
ATOM     19  H4  B68 d          28.825  -2.576   3.454  0.00  0.00     0.169 HD
BRANCH  17  20
ATOM     20  C24 B68 d          31.306  -2.585   3.308  0.00  0.00    -0.003 C 
ATOM     21  H1  B68 d          31.310  -3.095   2.334  0.00  0.00     0.040 H 
ATOM     22  H2  B68 d          30.932  -3.273   4.081  0.00  0.00     0.040 H 
ATOM     23  H3  B68 d          32.329  -2.270   3.561  0.00  0.00     0.040 H 
ENDBRANCH  17  20
ENDBRANCH  10  16
ENDBRANCH   5   6
ENDBRANCH   2   5
ENDBRANCH   1   2
BRANCH   1  24
ATOM     24  O11 B68 d          27.090   5.286   3.165  0.00  0.00    -0.378 OA
ATOM     25  H11 B68 d          27.186   5.204   2.224  0.00  0.00     0.211 HD
ENDBRANCH   1  24
BRANCH   1  26
ATOM     26  C12 B68 d          24.814   5.229   4.013  0.00  0.00    -0.037 C 
ATOM     27  H12 B68 d          24.765   6.144   3.405  0.00  0.00     0.032 H 
ATOM     28  H13 B68 d          24.881   5.499   5.077  0.00  0.00     0.032 H 
ATOM     29  H14 B68 d          23.909   4.628   3.844  0.00  0.00     0.032 H 
ENDBRANCH   1  26
BRANCH   1  30
ATOM     30  C10 B68 d          26.553   3.605   4.807  0.00  0.00     0.258 C 
ATOM     31  O10 B68 d          25.780   3.265   5.702  0.00  0.00    -0.270 OA
ATOM     32  N9  B68 d          27.848   3.298   4.758  0.00  0.00    -0.325 N 
ATOM     33  H15 B68 d          28.365   3.620   3.965  0.00  0.00     0.169 HD
BRANCH  32  34
ATOM     34  C6  B68 d          28.512   2.597   5.677  0.00  0.00     0.035 A 
ATOM     35  C5  B68 d          28.174   2.606   7.029  0.00  0.00    -0.040 A 
ATOM     36  C4  B68 d          28.839   1.831   7.980  0.00  0.00     0.083 A 
ATOM     37  H16 B68 d          27.359   3.242   7.356  0.00  0.00     0.088 H 
ATOM     38  C3  B68 d          29.882   1.010   7.537  0.00  0.00     0.118 A 
ATOM     39  C2  B68 d          30.237   1.008   6.191  0.00  0.00    -0.048 A 
ATOM     40  C1  B68 d          29.563   1.791   5.259  0.00  0.00    -0.055 A 
ATOM     41  H18 B68 d          31.058   0.382   5.861  0.00  0.00     0.087 H 
ATOM     42  H17 B68 d          29.856   1.772   4.216  0.00  0.00     0.087 H 
BRANCH  36  43
ATOM     43  C7  B68 d          28.411   1.947   9.456  0.00  0.00     0.419 C 
ATOM     44  F2  B68 d          27.658   0.909   9.807  0.00  0.00    -0.166 F 
ATOM     45  F1  B68 d          29.442   2.013  10.294  0.00  0.00    -0.166 F 
ATOM     46  F3  B68 d          27.686   3.040   9.679  0.00  0.00    -0.166 F 
ENDBRANCH  36  43
BRANCH  38  47
ATOM     47  N8  B68 d          30.571   0.185   8.326  0.00  0.00    -0.115 N 
ATOM     48  O1  B68 d          31.748   0.575   9.019  0.00  0.00    -0.532 OA
ATOM     49  O2  B68 d          30.068  -1.119   8.580  0.00  0.00    -0.532 OA
ENDBRANCH  38  47
ENDBRANCH  32  34
ENDBRANCH   1  30
TORSDOF 11
ENDMDL
MODEL 2
REMARK VINA RESULT:      -3.9      2.134      5.109
REMARK  11 active torsions:
REMARK  status: ('A' for Active; 'I' for Inactive)
REMARK    1  A    between atoms: C24_1  and  C23_2 
REMARK       I    between atoms: C23_2  and  N22_4 
REMARK    2  A    between atoms: N22_4  and  C19_5 
REMARK    3  A    between atoms: C16_10  and  O14_11 
REMARK    4  A    between atoms: O14_11  and  C13_12 
REMARK    5  A    between atoms: C13_12  and  C11_13 
REMARK    6  A    between atoms: C11_13  and  O11_14 
REMARK    7  A    between atoms: C11_13  and  C12_15 
REMARK    8  A    between atoms: C11_13  and  C10_16 
REMARK       I    between atoms: C10_16  and  N9_18 
REMARK    9  A    between atoms: N9_18  and  C6_19 
REMARK   10  A    between atoms: C3_23  and  N8_24 
REMARK   11  A    between atoms: C4_27  and  C7_28 
ROOT
ATOM      1  C11 B68 d          29.672  -0.610   3.237  0.00  0.00     0.156 C 
ENDROOT
BRANCH   1   2
ATOM      2  C13 B68 d          29.782   0.759   2.582  0.00  0.00     0.063 C 
ATOM      3  H9  B68 d          30.667   0.779   1.927  0.00  0.00     0.080 H 
ATOM      4  H10 B68 d          28.879   0.950   1.984  0.00  0.00     0.080 H 
BRANCH   2   5
ATOM      5  O14 B68 d          29.912   1.778   3.586  0.00  0.00    -0.348 OA
BRANCH   5   6
ATOM      6  C16 B68 d          28.779   2.523   3.706  0.00  0.00     0.069 A 
ATOM      7  C17 B68 d          28.679   3.509   4.682  0.00  0.00    -0.049 A 
ATOM      8  C18 B68 d          27.536   4.300   4.764  0.00  0.00    -0.054 A 
ATOM      9  H6  B68 d          29.493   3.662   5.381  0.00  0.00     0.087 H 
ATOM     10  C19 B68 d          26.484   4.116   3.870  0.00  0.00     0.034 A 
ATOM     11  H5  B68 d          27.465   5.064   5.529  0.00  0.00     0.087 H 
ATOM     12  C20 B68 d          26.589   3.131   2.892  0.00  0.00    -0.054 A 
ATOM     13  C21 B68 d          27.729   2.336   2.808  0.00  0.00    -0.049 A 
ATOM     14  H7  B68 d          25.777   2.981   2.190  0.00  0.00     0.087 H 
ATOM     15  H8  B68 d          27.801   1.572   2.043  0.00  0.00     0.087 H 
BRANCH  10  16
ATOM     16  N22 B68 d          25.365   4.839   3.928  0.00  0.00    -0.328 N 
ATOM     17  C23 B68 d          25.264   6.116   3.564  0.00  0.00     0.218 C 
ATOM     18  O23 B68 d          26.182   6.785   3.091  0.00  0.00    -0.274 OA
ATOM     19  H4  B68 d          24.540   4.389   4.271  0.00  0.00     0.169 HD
BRANCH  17  20
ATOM     20  C24 B68 d          23.870   6.723   3.741  0.00  0.00    -0.003 C 
ATOM     21  H1  B68 d          23.446   6.394   4.701  0.00  0.00     0.040 H 
ATOM     22  H2  B68 d          23.219   6.391   2.919  0.00  0.00     0.040 H 
ATOM     23  H3  B68 d          23.944   7.820   3.730  0.00  0.00     0.040 H 
ENDBRANCH  17  20
ENDBRANCH  10  16
ENDBRANCH   5   6
ENDBRANCH   2   5
ENDBRANCH   1   2
BRANCH   1  24
ATOM     24  O11 B68 d          28.607  -1.344   2.626  0.00  0.00    -0.378 OA
ATOM     25  H11 B68 d          27.933  -1.518   3.272  0.00  0.00     0.211 HD
ENDBRANCH   1  24
BRANCH   1  26
ATOM     26  C12 B68 d          30.994  -1.361   3.076  0.00  0.00    -0.037 C 
ATOM     27  H12 B68 d          31.116  -2.072   3.906  0.00  0.00     0.032 H 
ATOM     28  H13 B68 d          31.827  -0.644   3.082  0.00  0.00     0.032 H 
ATOM     29  H14 B68 d          30.990  -1.909   2.122  0.00  0.00     0.032 H 
ENDBRANCH   1  26
BRANCH   1  30
ATOM     30  C10 B68 d          29.356  -0.412   4.720  0.00  0.00     0.258 C 
ATOM     31  O10 B68 d          28.214  -0.588   5.142  0.00  0.00    -0.270 OA
ATOM     32  N9  B68 d          30.405  -0.078   5.469  0.00  0.00    -0.325 N 
ATOM     33  H15 B68 d          31.286   0.017   5.006  0.00  0.00     0.169 HD
BRANCH  32  34
ATOM     34  C6  B68 d          30.378   0.141   6.784  0.00  0.00     0.035 A 
ATOM     35  C5  B68 d          29.375   0.878   7.410  0.00  0.00    -0.040 A 
ATOM     36  C4  B68 d          29.323   1.063   8.792  0.00  0.00     0.083 A 
ATOM     37  H16 B68 d          28.602   1.328   6.798  0.00  0.00     0.088 H 
ATOM     38  C3  B68 d          30.324   0.467   9.567  0.00  0.00     0.118 A 
ATOM     39  C2  B68 d          31.340  -0.257   8.948  0.00  0.00    -0.048 A 
ATOM     40  C1  B68 d          31.376  -0.426   7.567  0.00  0.00    -0.055 A 
ATOM     41  H18 B68 d          32.121  -0.700   9.555  0.00  0.00     0.087 H 
ATOM     42  H17 B68 d          32.175  -0.995   7.107  0.00  0.00     0.087 H 
BRANCH  36  43
ATOM     43  C7  B68 d          28.192   1.930   9.378  0.00  0.00     0.419 C 
ATOM     44  F2  B68 d          27.243   2.138   8.470  0.00  0.00    -0.166 F 
ATOM     45  F1  B68 d          27.625   1.389  10.453  0.00  0.00    -0.166 F 
ATOM     46  F3  B68 d          28.629   3.128   9.757  0.00  0.00    -0.166 F 
ENDBRANCH  36  43
BRANCH  38  47
ATOM     47  N8  B68 d          30.373   0.521  10.899  0.00  0.00    -0.115 N 
ATOM     48  O1  B68 d          29.212   0.578  11.716  0.00  0.00    -0.532 OA
ATOM     49  O2  B68 d          31.627   0.415  11.556  0.00  0.00    -0.532 OA
ENDBRANCH  38  47
ENDBRANCH  32  34
ENDBRANCH   1  30
TORSDOF 11
ENDMDL
MODEL 3
REMARK VINA RESULT:      -3.5      2.508      5.453
REMARK  11 active torsions:
REMARK  status: ('A' for Active; 'I' for Inactive)
REMARK    1  A    between atoms: C24_1  and  C23_2 
REMARK       I    between atoms: C23_2  and  N22_4 
REMARK    2  A    between atoms: N22_4  and  C19_5 
REMARK    3  A    between atoms: C16_10  and  O14_11 
REMARK    4  A    between atoms: O14_11  and  C13_12 
REMARK    5  A    between atoms: C13_12  and  C11_13 
REMARK    6  A    between atoms: C11_13  and  O11_14 
REMARK    7  A    between atoms: C11_13  and  C12_15 
REMARK    8  A    between atoms: C11_13  and  C10_16 
REMARK       I    between atoms: C10_16  and  N9_18 
REMARK    9  A    between atoms: N9_18  and  C6_19 
REMARK   10  A    between atoms: C3_23  and  N8_24 
REMARK   11  A    between atoms: C4_27  and  C7_28 
ROOT
ATOM      1  C11 B68 d          29.911  -0.600   3.571  0.00  0.00     0.156 C 
ENDROOT
BRANCH   1   2
ATOM      2  C13 B68 d          29.906   0.733   2.838  0.00  0.00     0.063 C 
ATOM      3  H9  B68 d          30.771   0.779   2.159  0.00  0.00     0.080 H 
ATOM      4  H10 B68 d          28.978   0.824   2.255  0.00  0.00     0.080 H 
BRANCH   2   5
ATOM      5  O14 B68 d          29.983   1.815   3.780  0.00  0.00    -0.348 OA
BRANCH   5   6
ATOM      6  C16 B68 d          28.829   2.535   3.825  0.00  0.00     0.069 A 
ATOM      7  C17 B68 d          28.716   3.641   4.662  0.00  0.00    -0.049 A 
ATOM      8  C18 B68 d          27.550   4.402   4.664  0.00  0.00    -0.054 A 
ATOM      9  H6  B68 d          29.539   3.911   5.314  0.00  0.00     0.087 H 
ATOM     10  C19 B68 d          26.487   4.067   3.828  0.00  0.00     0.034 A 
ATOM     11  H5  B68 d          27.469   5.260   5.321  0.00  0.00     0.087 H 
ATOM     12  C20 B68 d          26.606   2.963   2.990  0.00  0.00    -0.054 A 
ATOM     13  C21 B68 d          27.769   2.198   2.986  0.00  0.00    -0.049 A 
ATOM     14  H7  B68 d          25.785   2.695   2.333  0.00  0.00     0.087 H 
ATOM     15  H8  B68 d          27.850   1.340   2.330  0.00  0.00     0.087 H 
BRANCH  10  16
ATOM     16  N22 B68 d          25.346   4.758   3.815  0.00  0.00    -0.328 N 
ATOM     17  C23 B68 d          25.248   6.060   3.552  0.00  0.00     0.218 C 
ATOM     18  O23 B68 d          26.193   6.787   3.249  0.00  0.00    -0.274 OA
ATOM     19  H4  B68 d          24.502   4.262   4.018  0.00  0.00     0.169 HD
BRANCH  17  20
ATOM     20  C24 B68 d          23.825   6.618   3.614  0.00  0.00    -0.003 C 
ATOM     21  H1  B68 d          23.713   7.421   2.870  0.00  0.00     0.040 H 
ATOM     22  H2  B68 d          23.632   7.021   4.619  0.00  0.00     0.040 H 
ATOM     23  H3  B68 d          23.105   5.815   3.396  0.00  0.00     0.040 H 
ENDBRANCH  17  20
ENDBRANCH  10  16
ENDBRANCH   5   6
ENDBRANCH   2   5
ENDBRANCH   1   2
BRANCH   1  24
ATOM     24  O11 B68 d          28.632  -1.223   3.431  0.00  0.00    -0.378 OA
ATOM     25  H11 B68 d          28.430  -1.709   4.221  0.00  0.00     0.211 HD
ENDBRANCH   1  24
BRANCH   1  26
ATOM     26  C12 B68 d          31.004  -1.498   2.989  0.00  0.00    -0.037 C 
ATOM     27  H12 B68 d          30.575  -2.134   2.201  0.00  0.00     0.032 H 
ATOM     28  H13 B68 d          31.421  -2.131   3.785  0.00  0.00     0.032 H 
ATOM     29  H14 B68 d          31.802  -0.874   2.562  0.00  0.00     0.032 H 
ENDBRANCH   1  26
BRANCH   1  30
ATOM     30  C10 B68 d          30.179  -0.336   5.053  0.00  0.00     0.258 C 
ATOM     31  O10 B68 d          31.328  -0.364   5.493  0.00  0.00    -0.270 OA
ATOM     32  N9  B68 d          29.093  -0.056   5.770  0.00  0.00    -0.325 N 
ATOM     33  H15 B68 d          28.216  -0.047   5.289  0.00  0.00     0.169 HD
BRANCH  32  34
ATOM     34  C6  B68 d          29.075   0.213   7.075  0.00  0.00     0.035 A 
ATOM     35  C5  B68 d          29.422  -0.723   8.048  0.00  0.00    -0.040 A 
ATOM     36  C4  B68 d          29.451  -0.423   9.410  0.00  0.00     0.083 A 
ATOM     37  H16 B68 d          29.679  -1.728   7.732  0.00  0.00     0.088 H 
ATOM     38  C3  B68 d          29.125   0.881   9.797  0.00  0.00     0.118 A 
ATOM     39  C2  B68 d          28.762   1.818   8.834  0.00  0.00    -0.048 A 
ATOM     40  C1  B68 d          28.735   1.497   7.480  0.00  0.00    -0.055 A 
ATOM     41  H18 B68 d          28.494   2.821   9.145  0.00  0.00     0.087 H 
ATOM     42  H17 B68 d          28.450   2.244   6.747  0.00  0.00     0.087 H 
BRANCH  36  43
ATOM     43  C7  B68 d          29.809  -1.545  10.404  0.00  0.00     0.419 C 
ATOM     44  F2  B68 d          30.332  -2.587   9.766  0.00  0.00    -0.166 F 
ATOM     45  F1  B68 d          30.673  -1.157  11.339  0.00  0.00    -0.166 F 
ATOM     46  F3  B68 d          28.740  -1.992  11.056  0.00  0.00    -0.166 F 
ENDBRANCH  36  43
BRANCH  38  47
ATOM     47  N8  B68 d          29.158   1.319  11.056  0.00  0.00    -0.115 N 
ATOM     48  O1  B68 d          28.014   1.817  11.735  0.00  0.00    -0.532 OA
ATOM     49  O2  B68 d          30.357   1.196  11.806  0.00  0.00    -0.532 OA
ENDBRANCH  38  47
ENDBRANCH  32  34
ENDBRANCH   1  30
TORSDOF 11
ENDMDL
MODEL 4
REMARK VINA RESULT:      -3.1      1.909      4.811
REMARK  11 active torsions:
REMARK  status: ('A' for Active; 'I' for Inactive)
REMARK    1  A    between atoms: C24_1  and  C23_2 
REMARK       I    between atoms: C23_2  and  N22_4 
REMARK    2  A    between atoms: N22_4  and  C19_5 
REMARK    3  A    between atoms: C16_10  and  O14_11 
REMARK    4  A    between atoms: O14_11  and  C13_12 
REMARK    5  A    between atoms: C13_12  and  C11_13 
REMARK    6  A    between atoms: C11_13  and  O11_14 
REMARK    7  A    between atoms: C11_13  and  C12_15 
REMARK    8  A    between atoms: C11_13  and  C10_16 
REMARK       I    between atoms: C10_16  and  N9_18 
REMARK    9  A    between atoms: N9_18  and  C6_19 
REMARK   10  A    between atoms: C3_23  and  N8_24 
REMARK   11  A    between atoms: C4_27  and  C7_28 
ROOT
ATOM      1  C11 B68 d          29.699   0.256   3.224  0.00  0.00     0.156 C 
ENDROOT
BRANCH   1   2
ATOM      2  C13 B68 d          28.284  -0.248   2.985  0.00  0.00     0.063 C 
ATOM      3  H9  B68 d          27.826   0.327   2.166  0.00  0.00     0.080 H 
ATOM      4  H10 B68 d          28.318  -1.312   2.710  0.00  0.00     0.080 H 
BRANCH   2   5
ATOM      5  O14 B68 d          27.495  -0.090   4.176  0.00  0.00    -0.348 OA
BRANCH   5   6
ATOM      6  C16 B68 d          26.733   1.037   4.137  0.00  0.00     0.069 A 
ATOM      7  C17 B68 d          27.140   2.190   4.803  0.00  0.00    -0.049 A 
ATOM      8  C18 B68 d          26.380   3.353   4.715  0.00  0.00    -0.054 A 
ATOM      9  H6  B68 d          28.050   2.182   5.391  0.00  0.00     0.087 H 
ATOM     10  C19 B68 d          25.209   3.377   3.960  0.00  0.00     0.034 A 
ATOM     11  H5  B68 d          26.701   4.246   5.239  0.00  0.00     0.087 H 
ATOM     12  C20 B68 d          24.809   2.223   3.292  0.00  0.00    -0.054 A 
ATOM     13  C21 B68 d          25.565   1.058   3.379  0.00  0.00    -0.049 A 
ATOM     14  H7  B68 d          23.901   2.232   2.700  0.00  0.00     0.087 H 
ATOM     15  H8  B68 d          25.244   0.165   2.855  0.00  0.00     0.087 H 
BRANCH  10  16
ATOM     16  N22 B68 d          24.443   4.465   3.867  0.00  0.00    -0.328 N 
ATOM     17  C23 B68 d          24.900   5.713   3.781  0.00  0.00     0.218 C 
ATOM     18  O23 B68 d          26.091   6.021   3.736  0.00  0.00    -0.274 OA
ATOM     19  H4  B68 d          23.452   4.335   3.863  0.00  0.00     0.169 HD
BRANCH  17  20
ATOM     20  C24 B68 d          23.814   6.788   3.699  0.00  0.00    -0.003 C 
ATOM     21  H1  B68 d          22.902   6.355   3.261  0.00  0.00     0.040 H 
ATOM     22  H2  B68 d          24.166   7.617   3.067  0.00  0.00     0.040 H 
ATOM     23  H3  B68 d          23.593   7.163   4.708  0.00  0.00     0.040 H 
ENDBRANCH  17  20
ENDBRANCH  10  16
ENDBRANCH   5   6
ENDBRANCH   2   5
ENDBRANCH   1   2
BRANCH   1  24
ATOM     24  O11 B68 d          30.591  -0.381   2.306  0.00  0.00    -0.378 OA
ATOM     25  H11 B68 d          31.388  -0.627   2.760  0.00  0.00     0.211 HD
ENDBRANCH   1  24
BRANCH   1  26
ATOM     26  C12 B68 d          29.739   1.773   3.035  0.00  0.00    -0.037 C 
ATOM     27  H12 B68 d          29.692   2.266   4.017  0.00  0.00     0.032 H 
ATOM     28  H13 B68 d          28.880   2.090   2.425  0.00  0.00     0.032 H 
ATOM     29  H14 B68 d          30.673   2.055   2.528  0.00  0.00     0.032 H 
ENDBRANCH   1  26
BRANCH   1  30
ATOM     30  C10 B68 d          30.107  -0.109   4.652  0.00  0.00     0.258 C 
ATOM     31  O10 B68 d          30.764  -1.126   4.871  0.00  0.00    -0.270 OA
ATOM     32  N9  B68 d          29.722   0.767   5.578  0.00  0.00    -0.325 N 
ATOM     33  H15 B68 d          29.207   1.566   5.266  0.00  0.00     0.169 HD
BRANCH  32  34
ATOM     34  C6  B68 d          29.965   0.669   6.885  0.00  0.00     0.035 A 
ATOM     35  C5  B68 d          29.068   1.105   7.859  0.00  0.00    -0.040 A 
ATOM     36  C4  B68 d          29.303   0.953   9.225  0.00  0.00     0.083 A 
ATOM     37  H16 B68 d          28.148   1.581   7.540  0.00  0.00     0.088 H 
ATOM     38  C3  B68 d          30.492   0.327   9.617  0.00  0.00     0.118 A 
ATOM     39  C2  B68 d          31.401  -0.096   8.651  0.00  0.00    -0.048 A 
ATOM     40  C1  B68 d          31.149   0.068   7.292  0.00  0.00    -0.055 A 
ATOM     41  H18 B68 d          32.327  -0.565   8.964  0.00  0.00     0.087 H 
ATOM     42  H17 B68 d          31.871  -0.271   6.558  0.00  0.00     0.087 H 
BRANCH  36  43
ATOM     43  C7  B68 d          28.263   1.508  10.218  0.00  0.00     0.419 C 
ATOM     44  F2  B68 d          27.257   0.651  10.369  0.00  0.00    -0.166 F 
ATOM     45  F1  B68 d          28.774   1.762  11.419  0.00  0.00    -0.166 F 
ATOM     46  F3  B68 d          27.732   2.651   9.795  0.00  0.00    -0.166 F 
ENDBRANCH  36  43
BRANCH  38  47
ATOM     47  N8  B68 d          30.823   0.075  10.883  0.00  0.00    -0.115 N 
ATOM     48  O1  B68 d          29.957  -0.584  11.796  0.00  0.00    -0.532 OA
ATOM     49  O2  B68 d          32.135   0.378  11.334  0.00  0.00    -0.532 OA
ENDBRANCH  38  47
ENDBRANCH  32  34
ENDBRANCH   1  30
TORSDOF 11
ENDMDL
