MODEL 1
REMARK VINA RESULT:      -8.9      0.000      0.000
REMARK  4 active torsions:
REMARK  status: ('A' for Active; 'I' for Inactive)
REMARK    1  A    between atoms: C9_9  and  O20_18 
REMARK    2  A    between atoms: C10_10  and  O19_17 
REMARK    3  A    between atoms: C15_15  and  O23_21 
REMARK    4  A    between atoms: C16_16  and  O22_20 
ROOT
ATOM      1  C1  REF d          37.355  -4.714   8.024  0.00  0.00     0.042 A 
ATOM      2  C2  REF d          36.904  -5.100   9.271  0.00  0.00     0.030 A 
ATOM      3  C3  REF d          36.589  -4.105  10.157  0.00  0.00     0.030 A 
ATOM      4  C4  REF d          36.731  -2.769   9.796  0.00  0.00     0.126 A 
ATOM      5  O5  REF d          37.155  -2.432   8.606  0.00  0.00    -0.281 OA
ATOM      6  C6  REF d          37.459  -3.352   7.727  0.00  0.00     0.232 A 
ATOM      7  C7  REF d          36.134  -4.495  11.402  0.00  0.00     0.042 A 
ATOM      8  C8  REF d          35.809  -3.533  12.349  0.00  0.00    -0.033 A 
ATOM      9  C9  REF d          35.953  -2.194  12.014  0.00  0.00     0.102 A 
ATOM     10  C10 REF d          36.406  -1.822  10.762  0.00  0.00     0.134 A 
ATOM     11  C11 REF d          36.766  -6.436   9.647  0.00  0.00     0.126 A 
ATOM     12  O12 REF d          36.329  -6.775  10.825  0.00  0.00    -0.281 OA
ATOM     13  C13 REF d          36.015  -5.852  11.691  0.00  0.00     0.232 A 
ATOM     14  C14 REF d          37.692  -5.699   7.105  0.00  0.00    -0.033 A 
ATOM     15  C15 REF d          37.576  -7.038   7.471  0.00  0.00     0.102 A 
ATOM     16  C16 REF d          37.117  -7.412   8.730  0.00  0.00     0.134 A 
ATOM     17  O21 REF d          35.571  -6.196  12.903  0.00  0.00    -0.163 OA
ATOM     18  O24 REF d          37.886  -2.988   6.492  0.00  0.00    -0.163 OA
ATOM     19  H1  REF d          35.451  -3.822  13.330  0.00  0.00     0.089 H 
ATOM     20  H2  REF d          38.041  -5.429   6.115  0.00  0.00     0.089 H 
ENDROOT
BRANCH   9  21
ATOM     21  O20 REF d          35.655  -1.196  12.922  0.00  0.00    -0.358 OA
ATOM     22  H4  REF d          36.436  -0.681  13.092  0.00  0.00     0.217 HD
ENDBRANCH   9  21
BRANCH  10  23
ATOM     23  O19 REF d          36.511  -0.518  10.547  0.00  0.00    -0.356 OA
ATOM     24  H3  REF d          35.974  -0.050  11.175  0.00  0.00     0.218 HD
ENDBRANCH  10  23
BRANCH  16  25
ATOM     25  O22 REF d          37.029  -8.754   9.064  0.00  0.00    -0.356 OA
ATOM     26  H5  REF d          37.408  -9.278   8.368  0.00  0.00     0.218 HD
ENDBRANCH  16  25
BRANCH  15  27
ATOM     27  O23 REF d          37.928  -8.012   6.588  0.00  0.00    -0.358 OA
ATOM     28  H6  REF d          37.530  -8.833   6.850  0.00  0.00     0.217 HD
ENDBRANCH  15  27
TORSDOF 4
ENDMDL
MODEL 2
REMARK VINA RESULT:      -8.8      0.354      6.141
REMARK  4 active torsions:
REMARK  status: ('A' for Active; 'I' for Inactive)
REMARK    1  A    between atoms: C9_9  and  O20_18 
REMARK    2  A    between atoms: C10_10  and  O19_17 
REMARK    3  A    between atoms: C15_15  and  O23_21 
REMARK    4  A    between atoms: C16_16  and  O22_20 
ROOT
ATOM      1  C1  REF d          36.176  -4.706  11.297  0.00  0.00     0.042 A 
ATOM      2  C2  REF d          36.631  -4.383  10.034  0.00  0.00     0.030 A 
ATOM      3  C3  REF d          36.930  -5.422   9.194  0.00  0.00     0.030 A 
ATOM      4  C4  REF d          36.780  -6.738   9.620  0.00  0.00     0.126 A 
ATOM      5  O5  REF d          36.341  -7.015  10.820  0.00  0.00    -0.281 OA
ATOM      6  C6  REF d          36.036  -6.051  11.651  0.00  0.00     0.232 A 
ATOM      7  C7  REF d          37.381  -5.097   7.930  0.00  0.00     0.042 A 
ATOM      8  C8  REF d          37.713  -6.106   7.035  0.00  0.00    -0.033 A 
ATOM      9  C9  REF d          37.581  -7.425   7.442  0.00  0.00     0.102 A 
ATOM     10  C10 REF d          37.123  -7.733   8.710  0.00  0.00     0.134 A 
ATOM     11  C11 REF d          36.794  -3.068   9.600  0.00  0.00     0.126 A 
ATOM     12  O12 REF d          37.214  -2.790   8.400  0.00  0.00    -0.281 OA
ATOM     13  C13 REF d          37.504  -3.756   7.574  0.00  0.00     0.232 A 
ATOM     14  C14 REF d          35.872  -3.675  12.177  0.00  0.00    -0.033 A 
ATOM     15  C15 REF d          36.046  -2.356  11.764  0.00  0.00     0.102 A 
ATOM     16  C16 REF d          36.502  -2.047  10.487  0.00  0.00     0.134 A 
ATOM     17  O21 REF d          37.941  -3.474   6.343  0.00  0.00    -0.163 OA
ATOM     18  O24 REF d          35.571  -6.352  12.889  0.00  0.00    -0.163 OA
ATOM     19  H1  REF d          38.068  -5.866   6.039  0.00  0.00     0.089 H 
ATOM     20  H2  REF d          35.504  -3.894  13.173  0.00  0.00     0.089 H 
ENDROOT
BRANCH   9  21
ATOM     21  O20 REF d          37.907  -8.468   6.597  0.00  0.00    -0.358 OA
ATOM     22  H4  REF d          37.111  -8.849   6.244  0.00  0.00     0.217 HD
ENDBRANCH   9  21
BRANCH  10  23
ATOM     23  O19 REF d          37.038  -9.025   8.998  0.00  0.00    -0.356 OA
ATOM     24  H3  REF d          36.198  -9.204   9.402  0.00  0.00     0.218 HD
ENDBRANCH  10  23
BRANCH  16  25
ATOM     25  O22 REF d          36.677  -0.723  10.117  0.00  0.00    -0.356 OA
ATOM     26  H5  REF d          37.539  -0.614   9.731  0.00  0.00     0.218 HD
ENDBRANCH  16  25
BRANCH  15  27
ATOM     27  O23 REF d          35.776  -1.338  12.626  0.00  0.00    -0.358 OA
ATOM     28  H6  REF d          34.875  -1.060  12.514  0.00  0.00     0.217 HD
ENDBRANCH  15  27
TORSDOF 4
ENDMDL
MODEL 3
REMARK VINA RESULT:      -8.7      1.336      4.497
REMARK  4 active torsions:
REMARK  status: ('A' for Active; 'I' for Inactive)
REMARK    1  A    between atoms: C9_9  and  O20_18 
REMARK    2  A    between atoms: C10_10  and  O19_17 
REMARK    3  A    between atoms: C15_15  and  O23_21 
REMARK    4  A    between atoms: C16_16  and  O22_20 
ROOT
ATOM      1  C1  REF d          37.306  -4.183   7.859  0.00  0.00     0.042 A 
ATOM      2  C2  REF d          36.859  -3.732   9.085  0.00  0.00     0.030 A 
ATOM      3  C3  REF d          36.574  -4.679  10.033  0.00  0.00     0.030 A 
ATOM      4  C4  REF d          36.732  -6.031   9.747  0.00  0.00     0.126 A 
ATOM      5  O5  REF d          37.164  -6.430   8.579  0.00  0.00    -0.281 OA
ATOM      6  C6  REF d          37.454  -5.557   7.648  0.00  0.00     0.232 A 
ATOM      7  C7  REF d          36.131  -4.225  11.259  0.00  0.00     0.042 A 
ATOM      8  C8  REF d          35.815  -5.136  12.258  0.00  0.00    -0.033 A 
ATOM      9  C9  REF d          35.954  -6.490  11.992  0.00  0.00     0.102 A 
ATOM     10  C10 REF d          36.404  -6.927  10.760  0.00  0.00     0.134 A 
ATOM     11  C11 REF d          36.688  -2.380   9.380  0.00  0.00     0.126 A 
ATOM     12  O12 REF d          36.275  -1.980  10.547  0.00  0.00    -0.281 OA
ATOM     13  C13 REF d          36.000  -2.855  11.474  0.00  0.00     0.232 A 
ATOM     14  C14 REF d          37.595  -3.248   6.873  0.00  0.00    -0.033 A 
ATOM     15  C15 REF d          37.414  -1.895   7.146  0.00  0.00     0.102 A 
ATOM     16  C16 REF d          36.965  -1.456   8.387  0.00  0.00     0.134 A 
ATOM     17  O21 REF d          35.571  -2.448  12.671  0.00  0.00    -0.163 OA
ATOM     18  O24 REF d          37.912  -5.984   6.444  0.00  0.00    -0.163 OA
ATOM     19  H1  REF d          35.465  -4.796  13.227  0.00  0.00     0.089 H 
ATOM     20  H2  REF d          37.957  -3.569   5.903  0.00  0.00     0.089 H 
ENDROOT
BRANCH   9  21
ATOM     21  O20 REF d          35.643  -7.440  12.945  0.00  0.00    -0.358 OA
ATOM     22  H4  REF d          34.735  -7.340  13.207  0.00  0.00     0.217 HD
ENDBRANCH   9  21
BRANCH  10  23
ATOM     23  O19 REF d          36.497  -8.242  10.608  0.00  0.00    -0.356 OA
ATOM     24  H3  REF d          37.065  -8.435   9.873  0.00  0.00     0.218 HD
ENDBRANCH  10  23
BRANCH  16  25
ATOM     25  O22 REF d          36.782  -0.101   8.618  0.00  0.00    -0.356 OA
ATOM     26  H5  REF d          37.076   0.112   9.496  0.00  0.00     0.218 HD
ENDBRANCH  16  25
BRANCH  15  27
ATOM     27  O23 REF d          37.668  -0.971   6.180  0.00  0.00    -0.358 OA
ATOM     28  H6  REF d          37.270  -1.250   5.364  0.00  0.00     0.217 HD
ENDBRANCH  15  27
TORSDOF 4
ENDMDL
MODEL 4
REMARK VINA RESULT:      -8.5      1.314      4.161
REMARK  4 active torsions:
REMARK  status: ('A' for Active; 'I' for Inactive)
REMARK    1  A    between atoms: C9_9  and  O20_18 
REMARK    2  A    between atoms: C10_10  and  O19_17 
REMARK    3  A    between atoms: C15_15  and  O23_21 
REMARK    4  A    between atoms: C16_16  and  O22_20 
ROOT
ATOM      1  C1  REF d          36.165  -4.671  11.394  0.00  0.00     0.042 A 
ATOM      2  C2  REF d          36.608  -5.053  10.143  0.00  0.00     0.030 A 
ATOM      3  C3  REF d          36.844  -4.056   9.233  0.00  0.00     0.030 A 
ATOM      4  C4  REF d          36.632  -2.725   9.577  0.00  0.00     0.126 A 
ATOM      5  O5  REF d          36.218  -2.392  10.772  0.00  0.00    -0.281 OA
ATOM      6  C6  REF d          35.988  -3.313  11.673  0.00  0.00     0.232 A 
ATOM      7  C7  REF d          37.290  -4.440   7.984  0.00  0.00     0.042 A 
ATOM      8  C8  REF d          37.535  -3.477   7.014  0.00  0.00    -0.033 A 
ATOM      9  C9  REF d          37.321  -2.144   7.331  0.00  0.00     0.102 A 
ATOM     10  C10 REF d          36.878  -1.777   8.589  0.00  0.00     0.134 A 
ATOM     11  C11 REF d          36.815  -6.385   9.785  0.00  0.00     0.126 A 
ATOM     12  O12 REF d          37.244  -6.717   8.602  0.00  0.00    -0.281 OA
ATOM     13  C13 REF d          37.482  -5.793   7.714  0.00  0.00     0.232 A 
ATOM     14  C14 REF d          35.909  -5.659  12.337  0.00  0.00    -0.033 A 
ATOM     15  C15 REF d          36.094  -6.994  11.989  0.00  0.00     0.102 A 
ATOM     16  C16 REF d          36.544  -7.363  10.725  0.00  0.00     0.134 A 
ATOM     17  O21 REF d          37.916  -6.131   6.497  0.00  0.00    -0.163 OA
ATOM     18  O24 REF d          35.571  -2.953  12.912  0.00  0.00    -0.163 OA
ATOM     19  H1  REF d          37.886  -3.762   6.029  0.00  0.00     0.089 H 
ATOM     20  H2  REF d          35.569  -5.393  13.331  0.00  0.00     0.089 H 
ENDROOT
BRANCH   9  21
ATOM     21  O20 REF d          37.538  -1.146   6.401  0.00  0.00    -0.358 OA
ATOM     22  H4  REF d          37.709  -0.326   6.851  0.00  0.00     0.217 HD
ENDBRANCH   9  21
BRANCH  10  23
ATOM     23  O19 REF d          36.701  -0.477   8.785  0.00  0.00    -0.356 OA
ATOM     24  H3  REF d          36.023  -0.159   8.202  0.00  0.00     0.218 HD
ENDBRANCH  10  23
BRANCH  16  25
ATOM     25  O22 REF d          36.702  -8.703  10.410  0.00  0.00    -0.356 OA
ATOM     26  H5  REF d          36.732  -8.805   9.466  0.00  0.00     0.218 HD
ENDBRANCH  16  25
BRANCH  15  27
ATOM     27  O23 REF d          35.822  -7.972  12.896  0.00  0.00    -0.358 OA
ATOM     28  H6  REF d          34.896  -8.181  12.865  0.00  0.00     0.217 HD
ENDBRANCH  15  27
TORSDOF 4
ENDMDL
MODEL 5
REMARK VINA RESULT:      -8.5      1.316      3.283
REMARK  4 active torsions:
REMARK  status: ('A' for Active; 'I' for Inactive)
REMARK    1  A    between atoms: C9_9  and  O20_18 
REMARK    2  A    between atoms: C10_10  and  O19_17 
REMARK    3  A    between atoms: C15_15  and  O23_21 
REMARK    4  A    between atoms: C16_16  and  O22_20 
ROOT
ATOM      1  C1  REF d          36.875  -6.292   9.232  0.00  0.00     0.042 A 
ATOM      2  C2  REF d          36.544  -5.261  10.089  0.00  0.00     0.030 A 
ATOM      3  C3  REF d          36.679  -3.985   9.612  0.00  0.00     0.030 A 
ATOM      4  C4  REF d          37.138  -3.762   8.318  0.00  0.00     0.126 A 
ATOM      5  O5  REF d          37.438  -4.758   7.525  0.00  0.00    -0.281 OA
ATOM      6  C6  REF d          37.316  -5.993   7.940  0.00  0.00     0.232 A 
ATOM      7  C7  REF d          36.344  -2.956  10.470  0.00  0.00     0.042 A 
ATOM      8  C8  REF d          36.470  -1.639  10.049  0.00  0.00    -0.033 A 
ATOM      9  C9  REF d          36.936  -1.392   8.766  0.00  0.00     0.102 A 
ATOM     10  C10 REF d          37.263  -2.435   7.918  0.00  0.00     0.134 A 
ATOM     11  C11 REF d          36.092  -5.473  11.391  0.00  0.00     0.126 A 
ATOM     12  O12 REF d          35.776  -4.484  12.176  0.00  0.00    -0.281 OA
ATOM     13  C13 REF d          35.889  -3.257  11.752  0.00  0.00     0.232 A 
ATOM     14  C14 REF d          36.757  -7.599   9.689  0.00  0.00    -0.033 A 
ATOM     15  C15 REF d          36.324  -7.826  10.992  0.00  0.00     0.102 A 
ATOM     16  C16 REF d          35.991  -6.777  11.843  0.00  0.00     0.134 A 
ATOM     17  O21 REF d          35.571  -2.239  12.556  0.00  0.00    -0.163 OA
ATOM     18  O24 REF d          37.620  -7.017   7.104  0.00  0.00    -0.163 OA
ATOM     19  H1  REF d          36.211  -0.820  10.710  0.00  0.00     0.089 H 
ATOM     20  H2  REF d          37.001  -8.431   9.038  0.00  0.00     0.089 H 
ENDROOT
BRANCH   9  21
ATOM     21  O20 REF d          37.092  -0.101   8.300  0.00  0.00    -0.358 OA
ATOM     22  H4  REF d          36.942  -0.084   7.361  0.00  0.00     0.217 HD
ENDBRANCH   9  21
BRANCH  10  23
ATOM     23  O19 REF d          37.702  -2.089   6.716  0.00  0.00    -0.356 OA
ATOM     24  H3  REF d          36.974  -2.070   6.107  0.00  0.00     0.218 HD
ENDBRANCH  10  23
BRANCH  16  25
ATOM     25  O22 REF d          35.577  -7.042  13.139  0.00  0.00    -0.356 OA
ATOM     26  H5  REF d          34.784  -7.565  13.117  0.00  0.00     0.218 HD
ENDBRANCH  16  25
BRANCH  15  27
ATOM     27  O23 REF d          36.229  -9.101  11.460  0.00  0.00    -0.358 OA
ATOM     28  H6  REF d          36.873  -9.234  12.145  0.00  0.00     0.217 HD
ENDBRANCH  15  27
TORSDOF 4
ENDMDL
MODEL 6
REMARK VINA RESULT:      -8.0      1.355      5.074
REMARK  4 active torsions:
REMARK  status: ('A' for Active; 'I' for Inactive)
REMARK    1  A    between atoms: C9_9  and  O20_18 
REMARK    2  A    between atoms: C10_10  and  O19_17 
REMARK    3  A    between atoms: C15_15  and  O23_21 
REMARK    4  A    between atoms: C16_16  and  O22_20 
ROOT
ATOM      1  C1  REF d          36.689  -2.791  10.201  0.00  0.00     0.042 A 
ATOM      2  C2  REF d          36.793  -3.873   9.349  0.00  0.00     0.030 A 
ATOM      3  C3  REF d          36.557  -5.112   9.882  0.00  0.00     0.030 A 
ATOM      4  C4  REF d          36.235  -5.250  11.228  0.00  0.00     0.126 A 
ATOM      5  O5  REF d          36.137  -4.207  12.011  0.00  0.00    -0.281 OA
ATOM      6  C6  REF d          36.347  -3.005  11.540  0.00  0.00     0.232 A 
ATOM      7  C7  REF d          36.659  -6.192   9.027  0.00  0.00     0.042 A 
ATOM      8  C8  REF d          36.443  -7.476   9.510  0.00  0.00    -0.033 A 
ATOM      9  C9  REF d          36.130  -7.639  10.851  0.00  0.00     0.102 A 
ATOM     10  C10 REF d          36.029  -6.546  11.693  0.00  0.00     0.134 A 
ATOM     11  C11 REF d          37.125  -3.747   8.001  0.00  0.00     0.126 A 
ATOM     12  O12 REF d          37.206  -4.782   7.216  0.00  0.00    -0.281 OA
ATOM     13  C13 REF d          36.983  -5.975   7.690  0.00  0.00     0.232 A 
ATOM     14  C14 REF d          36.931  -1.521   9.694  0.00  0.00    -0.033 A 
ATOM     15  C15 REF d          37.280  -1.380   8.353  0.00  0.00     0.102 A 
ATOM     16  C16 REF d          37.378  -2.479   7.506  0.00  0.00     0.134 A 
ATOM     17  O21 REF d          37.071  -7.041   6.889  0.00  0.00    -0.163 OA
ATOM     18  O24 REF d          36.230  -1.931  12.360  0.00  0.00    -0.163 OA
ATOM     19  H1  REF d          36.518  -8.334   8.851  0.00  0.00     0.089 H 
ATOM     20  H2  REF d          36.849  -0.650  10.334  0.00  0.00     0.089 H 
ENDROOT
BRANCH   9  21
ATOM     21  O20 REF d          35.917  -8.894  11.387  0.00  0.00    -0.358 OA
ATOM     22  H4  REF d          35.251  -9.345  10.880  0.00  0.00     0.217 HD
ENDBRANCH   9  21
BRANCH  10  23
ATOM     23  O19 REF d          35.729  -6.813  12.957  0.00  0.00    -0.356 OA
ATOM     24  H3  REF d          36.490  -6.651  13.502  0.00  0.00     0.218 HD
ENDBRANCH  10  23
BRANCH  16  25
ATOM     25  O22 REF d          37.742  -2.302   6.181  0.00  0.00    -0.356 OA
ATOM     26  H5  REF d          38.174  -1.461   6.082  0.00  0.00     0.218 HD
ENDBRANCH  16  25
BRANCH  15  27
ATOM     27  O23 REF d          37.544  -0.143   7.851  0.00  0.00    -0.358 OA
ATOM     28  H6  REF d          38.143   0.311   8.431  0.00  0.00     0.217 HD
ENDBRANCH  15  27
TORSDOF 4
ENDMDL
MODEL 7
REMARK VINA RESULT:      -7.6      0.972      3.590
REMARK  4 active torsions:
REMARK  status: ('A' for Active; 'I' for Inactive)
REMARK    1  A    between atoms: C9_9  and  O20_18 
REMARK    2  A    between atoms: C10_10  and  O19_17 
REMARK    3  A    between atoms: C15_15  and  O23_21 
REMARK    4  A    between atoms: C16_16  and  O22_20 
ROOT
ATOM      1  C1  REF d          36.845  -6.302  10.097  0.00  0.00     0.042 A 
ATOM      2  C2  REF d          37.077  -5.268   9.212  0.00  0.00     0.030 A 
ATOM      3  C3  REF d          36.858  -3.995   9.668  0.00  0.00     0.030 A 
ATOM      4  C4  REF d          36.413  -3.780  10.969  0.00  0.00     0.126 A 
ATOM      5  O5  REF d          36.208  -4.779  11.787  0.00  0.00    -0.281 OA
ATOM      6  C6  REF d          36.412  -6.010  11.394  0.00  0.00     0.232 A 
ATOM      7  C7  REF d          37.095  -2.962   8.783  0.00  0.00     0.042 A 
ATOM      8  C8  REF d          36.879  -1.650   9.182  0.00  0.00    -0.033 A 
ATOM      9  C9  REF d          36.426  -1.412  10.471  0.00  0.00     0.102 A 
ATOM     10  C10 REF d          36.198  -2.458  11.346  0.00  0.00     0.134 A 
ATOM     11  C11 REF d          37.514  -5.472   7.904  0.00  0.00     0.126 A 
ATOM     12  O12 REF d          37.736  -4.479   7.092  0.00  0.00    -0.281 OA
ATOM     13  C13 REF d          37.541  -3.255   7.496  0.00  0.00     0.232 A 
ATOM     14  C14 REF d          37.050  -7.606   9.662  0.00  0.00    -0.033 A 
ATOM     15  C15 REF d          37.469  -7.827   8.353  0.00  0.00     0.102 A 
ATOM     16  C16 REF d          37.702  -6.774   7.474  0.00  0.00     0.134 A 
ATOM     17  O21 REF d          37.763  -2.233   6.665  0.00  0.00    -0.163 OA
ATOM     18  O24 REF d          36.206  -7.036  12.257  0.00  0.00    -0.163 OA
ATOM     19  H1  REF d          37.061  -0.828   8.499  0.00  0.00     0.089 H 
ATOM     20  H2  REF d          36.885  -8.440  10.335  0.00  0.00     0.089 H 
ENDROOT
BRANCH   9  21
ATOM     21  O20 REF d          36.184  -0.127  10.916  0.00  0.00    -0.358 OA
ATOM     22  H4  REF d          35.840  -0.159  11.801  0.00  0.00     0.217 HD
ENDBRANCH   9  21
BRANCH  10  23
ATOM     23  O19 REF d          35.762  -2.121  12.552  0.00  0.00    -0.356 OA
ATOM     24  H3  REF d          36.435  -2.310  13.195  0.00  0.00     0.218 HD
ENDBRANCH  10  23
BRANCH  16  25
ATOM     25  O22 REF d          38.105  -7.034   6.174  0.00  0.00    -0.356 OA
ATOM     26  H5  REF d          38.907  -6.560   5.991  0.00  0.00     0.218 HD
ENDBRANCH  16  25
BRANCH  15  27
ATOM     27  O23 REF d          37.648  -9.101   7.908  0.00  0.00    -0.358 OA
ATOM     28  H6  REF d          38.517  -9.399   8.147  0.00  0.00     0.217 HD
ENDBRANCH  15  27
TORSDOF 4
ENDMDL
MODEL 8
REMARK VINA RESULT:      -7.4      0.902      4.989
REMARK  4 active torsions:
REMARK  status: ('A' for Active; 'I' for Inactive)
REMARK    1  A    between atoms: C9_9  and  O20_18 
REMARK    2  A    between atoms: C10_10  and  O19_17 
REMARK    3  A    between atoms: C15_15  and  O23_21 
REMARK    4  A    between atoms: C16_16  and  O22_20 
ROOT
ATOM      1  C1  REF d          36.954  -2.903   8.997  0.00  0.00     0.042 A 
ATOM      2  C2  REF d          36.636  -3.938   9.854  0.00  0.00     0.030 A 
ATOM      3  C3  REF d          36.773  -5.212   9.371  0.00  0.00     0.030 A 
ATOM      4  C4  REF d          37.208  -5.428   8.068  0.00  0.00     0.126 A 
ATOM      5  O5  REF d          37.508  -4.429   7.280  0.00  0.00    -0.281 OA
ATOM      6  C6  REF d          37.398  -3.196   7.704  0.00  0.00     0.232 A 
ATOM      7  C7  REF d          36.459  -6.245  10.232  0.00  0.00     0.042 A 
ATOM      8  C8  REF d          36.565  -7.560   9.798  0.00  0.00    -0.033 A 
ATOM      9  C9  REF d          36.988  -7.800   8.498  0.00  0.00     0.102 A 
ATOM     10  C10 REF d          37.303  -6.753   7.651  0.00  0.00     0.134 A 
ATOM     11  C11 REF d          36.190  -3.732  11.159  0.00  0.00     0.126 A 
ATOM     12  O12 REF d          35.908  -4.726  11.951  0.00  0.00    -0.281 OA
ATOM     13  C13 REF d          36.032  -5.951  11.525  0.00  0.00     0.232 A 
ATOM     14  C14 REF d          36.817  -1.598   9.453  0.00  0.00    -0.033 A 
ATOM     15  C15 REF d          36.356  -1.376  10.748  0.00  0.00     0.102 A 
ATOM     16  C16 REF d          36.044  -2.429  11.601  0.00  0.00     0.134 A 
ATOM     17  O21 REF d          35.738  -6.974  12.332  0.00  0.00    -0.163 OA
ATOM     18  O24 REF d          37.724  -2.169   6.880  0.00  0.00    -0.163 OA
ATOM     19  H1  REF d          36.323  -8.383  10.461  0.00  0.00     0.089 H 
ATOM     20  H2  REF d          37.066  -0.762   8.808  0.00  0.00     0.089 H 
ENDROOT
BRANCH   9  21
ATOM     21  O20 REF d          37.101  -9.087   8.011  0.00  0.00    -0.358 OA
ATOM     22  H4  REF d          36.236  -9.477   7.945  0.00  0.00     0.217 HD
ENDBRANCH   9  21
BRANCH  10  23
ATOM     23  O19 REF d          37.691  -7.092   6.430  0.00  0.00    -0.356 OA
ATOM     24  H3  REF d          37.118  -6.685   5.792  0.00  0.00     0.218 HD
ENDBRANCH  10  23
BRANCH  16  25
ATOM     25  O22 REF d          35.574  -2.169  12.879  0.00  0.00    -0.356 OA
ATOM     26  H5  REF d          36.105  -1.490  13.278  0.00  0.00     0.218 HD
ENDBRANCH  16  25
BRANCH  15  27
ATOM     27  O23 REF d          36.194  -0.101  11.198  0.00  0.00    -0.358 OA
ATOM     28  H6  REF d          36.277  -0.087  12.143  0.00  0.00     0.217 HD
ENDBRANCH  15  27
TORSDOF 4
ENDMDL
