MODEL 1
REMARK VINA RESULT:      -6.5      0.000      0.000
REMARK  6 active torsions:
REMARK  status: ('A' for Active; 'I' for Inactive)
REMARK    1  A    between atoms: C1_1  and  O1_7 
REMARK    2  A    between atoms: C2_2  and  O2_8 
REMARK    3  A    between atoms: C3_3  and  O3_9 
REMARK    4  A    between atoms: C4_4  and  O4_10 
REMARK    5  A    between atoms: C5_5  and  C6_6 
REMARK    6  A    between atoms: O1_7  and  CM_12 
ROOT
ATOM      1  C1  MFU d         -40.057  20.468  11.007  0.00  0.00     0.158 C 
ATOM      2  C2  MFU d         -38.673  19.931  11.213  0.00  0.00     0.110 C 
ATOM      3  C3  MFU d         -38.162  20.307  12.617  0.00  0.00     0.092 C 
ATOM      4  C4  MFU d         -39.108  19.936  13.753  0.00  0.00     0.087 C 
ATOM      5  C5  MFU d         -40.463  20.549  13.438  0.00  0.00     0.065 C 
ATOM      6  O5  MFU d         -40.897  20.073  12.134  0.00  0.00    -0.351 OA
ATOM      7  H1  MFU d         -40.477  20.071  10.072  0.00  0.00     0.133 H 
ATOM      8  H2  MFU d         -38.728  18.834  11.145  0.00  0.00     0.094 H 
ATOM      9  H3  MFU d         -37.990  21.393  12.650  0.00  0.00     0.091 H 
ATOM     10  H4  MFU d         -38.740  20.352  14.703  0.00  0.00     0.091 H 
ATOM     11  H5  MFU d         -40.319  21.636  13.354  0.00  0.00     0.086 H 
ENDROOT
BRANCH   1  12
ATOM     12  O1  MFU d         -39.996  21.910  10.943  0.00  0.00    -0.363 OA
BRANCH  12  13
ATOM     13  CM  MFU d         -41.077  22.397  10.096  0.00  0.00     0.007 C 
ATOM     14  H12 MFU d         -41.246  23.465  10.294  0.00  0.00     0.066 H 
ATOM     15  H13 MFU d         -41.997  21.834  10.315  0.00  0.00     0.066 H 
ATOM     16  H14 MFU d         -40.805  22.258   9.039  0.00  0.00     0.066 H 
ENDBRANCH  12  13
ENDBRANCH   1  12
BRANCH   2  17
ATOM     17  O2  MFU d         -37.725  20.391  10.212  0.00  0.00    -0.388 OA
ATOM     18  H9  MFU d         -37.505  19.672   9.631  0.00  0.00     0.210 HD
ENDBRANCH   2  17
BRANCH   3  19
ATOM     19  O3  MFU d         -36.915  19.606  12.813  0.00  0.00    -0.390 OA
ATOM     20  H10 MFU d         -36.194  20.166  12.552  0.00  0.00     0.210 HD
ENDBRANCH   3  19
BRANCH   5  21
ATOM     21  C6  MFU d         -41.498  20.336  14.563  0.00  0.00    -0.050 C 
ATOM     22  H6  MFU d         -40.995  19.924  15.450  0.00  0.00     0.031 H 
ATOM     23  H7  MFU d         -42.273  19.634  14.220  0.00  0.00     0.031 H 
ATOM     24  H8  MFU d         -41.964  21.299  14.820  0.00  0.00     0.031 H 
ENDBRANCH   5  21
BRANCH   4  25
ATOM     25  O4  MFU d         -39.140  18.494  13.853  0.00  0.00    -0.390 OA
ATOM     26  H11 MFU d         -39.071  18.240  14.767  0.00  0.00     0.210 HD
ENDBRANCH   4  25
TORSDOF 6
ENDMDL
MODEL 2
REMARK VINA RESULT:      -5.1      1.226      3.446
REMARK  6 active torsions:
REMARK  status: ('A' for Active; 'I' for Inactive)
REMARK    1  A    between atoms: C1_1  and  O1_7 
REMARK    2  A    between atoms: C2_2  and  O2_8 
REMARK    3  A    between atoms: C3_3  and  O3_9 
REMARK    4  A    between atoms: C4_4  and  O4_10 
REMARK    5  A    between atoms: C5_5  and  C6_6 
REMARK    6  A    between atoms: O1_7  and  CM_12 
ROOT
ATOM      1  C1  MFU d         -39.210  21.083  13.215  0.00  0.00     0.158 C 
ATOM      2  C2  MFU d         -38.035  20.806  12.325  0.00  0.00     0.110 C 
ATOM      3  C3  MFU d         -38.503  20.643  10.866  0.00  0.00     0.092 C 
ATOM      4  C4  MFU d         -39.371  21.784  10.349  0.00  0.00     0.087 C 
ATOM      5  C5  MFU d         -40.528  21.954  11.321  0.00  0.00     0.065 C 
ATOM      6  O5  MFU d         -39.989  22.183  12.652  0.00  0.00    -0.351 OA
ATOM      7  H1  MFU d         -38.861  21.351  14.223  0.00  0.00     0.133 H 
ATOM      8  H2  MFU d         -37.364  21.676  12.379  0.00  0.00     0.094 H 
ATOM      9  H3  MFU d         -39.075  19.707  10.783  0.00  0.00     0.091 H 
ATOM     10  H4  MFU d         -39.773  21.534   9.356  0.00  0.00     0.091 H 
ATOM     11  H5  MFU d         -41.071  20.998  11.353  0.00  0.00     0.086 H 
ENDROOT
BRANCH   1  12
ATOM     12  O1  MFU d         -40.037  19.901  13.281  0.00  0.00    -0.363 OA
BRANCH  12  13
ATOM     13  CM  MFU d         -40.961  20.027  14.401  0.00  0.00     0.007 C 
ATOM     14  H12 MFU d         -41.425  19.050  14.605  0.00  0.00     0.066 H 
ATOM     15  H13 MFU d         -41.744  20.759  14.150  0.00  0.00     0.066 H 
ATOM     16  H14 MFU d         -40.413  20.366  15.292  0.00  0.00     0.066 H 
ENDBRANCH  12  13
ENDBRANCH   1  12
BRANCH   2  17
ATOM     17  O2  MFU d         -37.276  19.633  12.726  0.00  0.00    -0.388 OA
ATOM     18  H9  MFU d         -36.351  19.847  12.744  0.00  0.00     0.210 HD
ENDBRANCH   2  17
BRANCH   3  19
ATOM     19  O3  MFU d         -37.315  20.566  10.050  0.00  0.00    -0.390 OA
ATOM     20  H10 MFU d         -36.692  21.224  10.336  0.00  0.00     0.210 HD
ENDBRANCH   3  19
BRANCH   5  21
ATOM     21  C6  MFU d         -41.549  23.016  10.864  0.00  0.00    -0.050 C 
ATOM     22  H6  MFU d         -42.501  22.526  10.614  0.00  0.00     0.031 H 
ATOM     23  H7  MFU d         -41.161  23.540   9.977  0.00  0.00     0.031 H 
ATOM     24  H8  MFU d         -41.712  23.742  11.675  0.00  0.00     0.031 H 
ENDBRANCH   5  21
BRANCH   4  25
ATOM     25  O4  MFU d         -38.539  22.960  10.237  0.00  0.00    -0.390 OA
ATOM     26  H11 MFU d         -37.681  22.711   9.912  0.00  0.00     0.210 HD
ENDBRANCH   4  25
TORSDOF 6
ENDMDL
MODEL 3
REMARK VINA RESULT:      -4.9      1.372      1.443
REMARK  6 active torsions:
REMARK  status: ('A' for Active; 'I' for Inactive)
REMARK    1  A    between atoms: C1_1  and  O1_7 
REMARK    2  A    between atoms: C2_2  and  O2_8 
REMARK    3  A    between atoms: C3_3  and  O3_9 
REMARK    4  A    between atoms: C4_4  and  O4_10 
REMARK    5  A    between atoms: C5_5  and  C6_6 
REMARK    6  A    between atoms: O1_7  and  CM_12 
ROOT
ATOM      1  C1  MFU d         -39.797  21.243  11.512  0.00  0.00     0.158 C 
ATOM      2  C2  MFU d         -38.892  20.204  12.103  0.00  0.00     0.110 C 
ATOM      3  C3  MFU d         -38.706  20.459  13.611  0.00  0.00     0.092 C 
ATOM      4  C4  MFU d         -40.007  20.613  14.391  0.00  0.00     0.087 C 
ATOM      5  C5  MFU d         -40.824  21.697  13.707  0.00  0.00     0.065 C 
ATOM      6  O5  MFU d         -41.015  21.329  12.314  0.00  0.00    -0.351 OA
ATOM      7  H1  MFU d         -40.051  20.972  10.477  0.00  0.00     0.133 H 
ATOM      8  H2  MFU d         -39.377  19.225  11.974  0.00  0.00     0.094 H 
ATOM      9  H3  MFU d         -38.113  21.377  13.742  0.00  0.00     0.091 H 
ATOM     10  H4  MFU d         -39.795  20.923  15.424  0.00  0.00     0.091 H 
ATOM     11  H5  MFU d         -40.221  22.617  13.719  0.00  0.00     0.086 H 
ENDROOT
BRANCH   1  12
ATOM     12  O1  MFU d         -39.123  22.519  11.534  0.00  0.00    -0.363 OA
BRANCH  12  13
ATOM     13  CM  MFU d         -39.125  23.083  10.190  0.00  0.00     0.007 C 
ATOM     14  H12 MFU d         -39.047  24.179  10.251  0.00  0.00     0.066 H 
ATOM     15  H13 MFU d         -40.061  22.811   9.679  0.00  0.00     0.066 H 
ATOM     16  H14 MFU d         -38.269  22.686   9.624  0.00  0.00     0.066 H 
ENDBRANCH  12  13
ENDBRANCH   1  12
BRANCH   2  17
ATOM     17  O2  MFU d         -37.591  20.143  11.457  0.00  0.00    -0.388 OA
ATOM     18  H9  MFU d         -37.637  19.560  10.709  0.00  0.00     0.210 HD
ENDBRANCH   2  17
BRANCH   3  19
ATOM     19  O3  MFU d         -37.984  19.328  14.144  0.00  0.00    -0.390 OA
ATOM     20  H10 MFU d         -38.573  18.792  14.661  0.00  0.00     0.210 HD
ENDBRANCH   3  19
BRANCH   5  21
ATOM     21  C6  MFU d         -42.132  22.029  14.456  0.00  0.00    -0.050 C 
ATOM     22  H6  MFU d         -41.915  22.182  15.523  0.00  0.00     0.031 H 
ATOM     23  H7  MFU d         -42.842  21.197  14.341  0.00  0.00     0.031 H 
ATOM     24  H8  MFU d         -42.572  22.946  14.037  0.00  0.00     0.031 H 
ENDBRANCH   5  21
BRANCH   4  25
ATOM     25  O4  MFU d         -40.666  19.326  14.413  0.00  0.00    -0.390 OA
ATOM     26  H11 MFU d         -40.293  18.769  13.739  0.00  0.00     0.210 HD
ENDBRANCH   4  25
TORSDOF 6
ENDMDL
MODEL 4
REMARK VINA RESULT:      -4.5      1.513      2.235
REMARK  6 active torsions:
REMARK  status: ('A' for Active; 'I' for Inactive)
REMARK    1  A    between atoms: C1_1  and  O1_7 
REMARK    2  A    between atoms: C2_2  and  O2_8 
REMARK    3  A    between atoms: C3_3  and  O3_9 
REMARK    4  A    between atoms: C4_4  and  O4_10 
REMARK    5  A    between atoms: C5_5  and  C6_6 
REMARK    6  A    between atoms: O1_7  and  CM_12 
ROOT
ATOM      1  C1  MFU d         -40.702  20.372  12.358  0.00  0.00     0.158 C 
ATOM      2  C2  MFU d         -39.751  20.067  11.239  0.00  0.00     0.110 C 
ATOM      3  C3  MFU d         -38.459  20.890  11.403  0.00  0.00     0.092 C 
ATOM      4  C4  MFU d         -37.805  20.773  12.775  0.00  0.00     0.087 C 
ATOM      5  C5  MFU d         -38.858  21.119  13.814  0.00  0.00     0.065 C 
ATOM      6  O5  MFU d         -40.001  20.239  13.632  0.00  0.00    -0.351 OA
ATOM      7  H1  MFU d         -41.552  19.675  12.326  0.00  0.00     0.133 H 
ATOM      8  H2  MFU d         -39.493  18.999  11.302  0.00  0.00     0.094 H 
ATOM      9  H3  MFU d         -38.691  21.949  11.219  0.00  0.00     0.091 H 
ATOM     10  H4  MFU d         -36.971  21.485  12.859  0.00  0.00     0.091 H 
ATOM     11  H5  MFU d         -39.202  22.143  13.603  0.00  0.00     0.086 H 
ENDROOT
BRANCH   1  12
ATOM     12  O1  MFU d         -41.174  21.729  12.215  0.00  0.00    -0.363 OA
BRANCH  12  13
ATOM     13  CM  MFU d         -41.734  22.176  13.484  0.00  0.00     0.007 C 
ATOM     14  H12 MFU d         -42.020  23.235  13.406  0.00  0.00     0.066 H 
ATOM     15  H13 MFU d         -40.982  22.057  14.279  0.00  0.00     0.066 H 
ATOM     16  H14 MFU d         -42.622  21.573  13.726  0.00  0.00     0.066 H 
ENDBRANCH  12  13
ENDBRANCH   1  12
BRANCH   2  17
ATOM     17  O2  MFU d         -40.318  20.309   9.923  0.00  0.00    -0.388 OA
ATOM     18  H9  MFU d         -40.834  21.106   9.944  0.00  0.00     0.210 HD
ENDBRANCH   2  17
BRANCH   3  19
ATOM     19  O3  MFU d         -37.527  20.413  10.409  0.00  0.00    -0.390 OA
ATOM     20  H10 MFU d         -36.640  20.586  10.699  0.00  0.00     0.210 HD
ENDBRANCH   3  19
BRANCH   5  21
ATOM     21  C6  MFU d         -38.302  21.139  15.253  0.00  0.00    -0.050 C 
ATOM     22  H6  MFU d         -39.123  21.325  15.962  0.00  0.00     0.031 H 
ATOM     23  H7  MFU d         -37.550  21.937  15.345  0.00  0.00     0.031 H 
ATOM     24  H8  MFU d         -37.835  20.168  15.480  0.00  0.00     0.031 H 
ENDBRANCH   5  21
BRANCH   4  25
ATOM     25  O4  MFU d         -37.289  19.429  12.907  0.00  0.00    -0.390 OA
ATOM     26  H11 MFU d         -37.606  18.896  12.187  0.00  0.00     0.210 HD
ENDBRANCH   4  25
TORSDOF 6
ENDMDL
MODEL 5
REMARK VINA RESULT:      -3.8      1.598      3.495
REMARK  6 active torsions:
REMARK  status: ('A' for Active; 'I' for Inactive)
REMARK    1  A    between atoms: C1_1  and  O1_7 
REMARK    2  A    between atoms: C2_2  and  O2_8 
REMARK    3  A    between atoms: C3_3  and  O3_9 
REMARK    4  A    between atoms: C4_4  and  O4_10 
REMARK    5  A    between atoms: C5_5  and  C6_6 
REMARK    6  A    between atoms: O1_7  and  CM_12 
ROOT
ATOM      1  C1  MFU d         -38.334  21.423  12.583  0.00  0.00     0.158 C 
ATOM      2  C2  MFU d         -38.528  21.308  11.101  0.00  0.00     0.110 C 
ATOM      3  C3  MFU d         -39.984  20.912  10.786  0.00  0.00     0.092 C 
ATOM      4  C4  MFU d         -41.035  21.796  11.446  0.00  0.00     0.087 C 
ATOM      5  C5  MFU d         -40.742  21.818  12.938  0.00  0.00     0.065 C 
ATOM      6  O5  MFU d         -39.378  22.280  13.138  0.00  0.00    -0.351 OA
ATOM      7  H1  MFU d         -37.345  21.852  12.799  0.00  0.00     0.133 H 
ATOM      8  H2  MFU d         -38.335  22.298  10.661  0.00  0.00     0.094 H 
ATOM      9  H3  MFU d         -40.145  19.875  11.116  0.00  0.00     0.091 H 
ATOM     10  H4  MFU d         -42.039  21.375  11.286  0.00  0.00     0.091 H 
ATOM     11  H5  MFU d         -40.787  20.779  13.296  0.00  0.00     0.086 H 
ENDROOT
BRANCH   1  12
ATOM     12  O1  MFU d         -38.437  20.108  13.173  0.00  0.00    -0.363 OA
BRANCH  12  13
ATOM     13  CM  MFU d         -38.088  20.191  14.585  0.00  0.00     0.007 C 
ATOM     14  H12 MFU d         -37.067  19.811  14.734  0.00  0.00     0.066 H 
ATOM     15  H13 MFU d         -38.793  19.584  15.173  0.00  0.00     0.066 H 
ATOM     16  H14 MFU d         -38.143  21.238  14.916  0.00  0.00     0.066 H 
ENDBRANCH  12  13
ENDBRANCH   1  12
BRANCH   2  17
ATOM     17  O2  MFU d         -37.621  20.359  10.476  0.00  0.00    -0.388 OA
ATOM     18  H9  MFU d         -37.461  20.621   9.577  0.00  0.00     0.210 HD
ENDBRANCH   2  17
BRANCH   3  19
ATOM     19  O3  MFU d         -40.144  21.001   9.354  0.00  0.00    -0.390 OA
ATOM     20  H10 MFU d         -40.881  20.467   9.085  0.00  0.00     0.210 HD
ENDBRANCH   3  19
BRANCH   5  21
ATOM     21  C6  MFU d         -41.797  22.600  13.748  0.00  0.00    -0.050 C 
ATOM     22  H6  MFU d         -42.516  21.895  14.191  0.00  0.00     0.031 H 
ATOM     23  H7  MFU d         -42.328  23.297  13.083  0.00  0.00     0.031 H 
ATOM     24  H8  MFU d         -41.299  23.167  14.549  0.00  0.00     0.031 H 
ENDBRANCH   5  21
BRANCH   4  25
ATOM     25  O4  MFU d         -40.970  23.101  10.829  0.00  0.00    -0.390 OA
ATOM     26  H11 MFU d         -41.449  23.727  11.361  0.00  0.00     0.210 HD
ENDBRANCH   4  25
TORSDOF 6
ENDMDL
MODEL 6
REMARK VINA RESULT:      -3.8      1.588      2.173
REMARK  6 active torsions:
REMARK  status: ('A' for Active; 'I' for Inactive)
REMARK    1  A    between atoms: C1_1  and  O1_7 
REMARK    2  A    between atoms: C2_2  and  O2_8 
REMARK    3  A    between atoms: C3_3  and  O3_9 
REMARK    4  A    between atoms: C4_4  and  O4_10 
REMARK    5  A    between atoms: C5_5  and  C6_6 
REMARK    6  A    between atoms: O1_7  and  CM_12 
ROOT
ATOM      1  C1  MFU d         -40.773  21.270  10.505  0.00  0.00     0.158 C 
ATOM      2  C2  MFU d         -39.445  21.903  10.218  0.00  0.00     0.110 C 
ATOM      3  C3  MFU d         -38.751  22.298  11.537  0.00  0.00     0.092 C 
ATOM      4  C4  MFU d         -38.653  21.173  12.560  0.00  0.00     0.087 C 
ATOM      5  C5  MFU d         -40.056  20.628  12.775  0.00  0.00     0.065 C 
ATOM      6  O5  MFU d         -40.595  20.208  11.492  0.00  0.00    -0.351 OA
ATOM      7  H1  MFU d         -41.195  20.852   9.580  0.00  0.00     0.133 H 
ATOM      8  H2  MFU d         -38.821  21.154   9.708  0.00  0.00     0.094 H 
ATOM      9  H3  MFU d         -39.306  23.132  11.990  0.00  0.00     0.091 H 
ATOM     10  H4  MFU d         -38.271  21.562  13.515  0.00  0.00     0.091 H 
ATOM     11  H5  MFU d         -40.680  21.461  13.131  0.00  0.00     0.086 H 
ENDROOT
BRANCH   1  12
ATOM     12  O1  MFU d         -41.664  22.271  11.042  0.00  0.00    -0.363 OA
BRANCH  12  13
ATOM     13  CM  MFU d         -42.497  22.795   9.966  0.00  0.00     0.007 C 
ATOM     14  H12 MFU d         -41.894  23.450   9.321  0.00  0.00     0.066 H 
ATOM     15  H13 MFU d         -43.332  23.369  10.395  0.00  0.00     0.066 H 
ATOM     16  H14 MFU d         -42.895  21.959   9.371  0.00  0.00     0.066 H 
ENDBRANCH  12  13
ENDBRANCH   1  12
BRANCH   2  17
ATOM     17  O2  MFU d         -39.539  23.067   9.353  0.00  0.00    -0.388 OA
ATOM     18  H9  MFU d         -39.044  23.783   9.731  0.00  0.00     0.210 HD
ENDBRANCH   2  17
BRANCH   3  19
ATOM     19  O3  MFU d         -37.414  22.725  11.197  0.00  0.00    -0.390 OA
ATOM     20  H10 MFU d         -36.977  23.044  11.977  0.00  0.00     0.210 HD
ENDBRANCH   3  19
BRANCH   5  21
ATOM     21  C6  MFU d         -40.120  19.543  13.871  0.00  0.00    -0.050 C 
ATOM     22  H6  MFU d         -39.139  19.053  13.959  0.00  0.00     0.031 H 
ATOM     23  H7  MFU d         -40.881  18.795  13.602  0.00  0.00     0.031 H 
ATOM     24  H8  MFU d         -40.386  20.007  14.832  0.00  0.00     0.031 H 
ENDBRANCH   5  21
BRANCH   4  25
ATOM     25  O4  MFU d         -37.727  20.187  12.050  0.00  0.00    -0.390 OA
ATOM     26  H11 MFU d         -37.330  20.510  11.249  0.00  0.00     0.210 HD
ENDBRANCH   4  25
TORSDOF 6
ENDMDL
MODEL 7
REMARK VINA RESULT:      -3.7      2.041      4.083
REMARK  6 active torsions:
REMARK  status: ('A' for Active; 'I' for Inactive)
REMARK    1  A    between atoms: C1_1  and  O1_7 
REMARK    2  A    between atoms: C2_2  and  O2_8 
REMARK    3  A    between atoms: C3_3  and  O3_9 
REMARK    4  A    between atoms: C4_4  and  O4_10 
REMARK    5  A    between atoms: C5_5  and  C6_6 
REMARK    6  A    between atoms: O1_7  and  CM_12 
ROOT
ATOM      1  C1  MFU d         -38.828  20.785  13.807  0.00  0.00     0.158 C 
ATOM      2  C2  MFU d         -39.847  19.922  13.126  0.00  0.00     0.110 C 
ATOM      3  C3  MFU d         -40.563  20.720  12.020  0.00  0.00     0.092 C 
ATOM      4  C4  MFU d         -39.629  21.411  11.033  0.00  0.00     0.087 C 
ATOM      5  C5  MFU d         -38.662  22.262  11.840  0.00  0.00     0.065 C 
ATOM      6  O5  MFU d         -37.977  21.409  12.797  0.00  0.00    -0.351 OA
ATOM      7  H1  MFU d         -38.215  20.175  14.486  0.00  0.00     0.133 H 
ATOM      8  H2  MFU d         -39.313  19.082  12.658  0.00  0.00     0.094 H 
ATOM      9  H3  MFU d         -41.196  21.486  12.493  0.00  0.00     0.091 H 
ATOM     10  H4  MFU d         -40.205  22.063  10.360  0.00  0.00     0.091 H 
ATOM     11  H5  MFU d         -39.262  22.980  12.417  0.00  0.00     0.086 H 
ENDROOT
BRANCH   1  12
ATOM     12  O1  MFU d         -39.510  21.815  14.555  0.00  0.00    -0.363 OA
BRANCH  12  13
ATOM     13  CM  MFU d         -38.716  22.159  15.727  0.00  0.00     0.007 C 
ATOM     14  H12 MFU d         -38.139  23.074  15.524  0.00  0.00     0.066 H 
ATOM     15  H13 MFU d         -38.026  21.334  15.958  0.00  0.00     0.066 H 
ATOM     16  H14 MFU d         -39.383  22.330  16.586  0.00  0.00     0.066 H 
ENDBRANCH  12  13
ENDBRANCH   1  12
BRANCH   2  17
ATOM     17  O2  MFU d         -40.832  19.367  14.040  0.00  0.00    -0.388 OA
ATOM     18  H9  MFU d         -41.185  18.565  13.675  0.00  0.00     0.210 HD
ENDBRANCH   2  17
BRANCH   3  19
ATOM     19  O3  MFU d         -41.387  19.784  11.292  0.00  0.00    -0.390 OA
ATOM     20  H10 MFU d         -40.845  19.287  10.692  0.00  0.00     0.210 HD
ENDBRANCH   3  19
BRANCH   5  21
ATOM     21  C6  MFU d         -37.716  23.102  10.955  0.00  0.00    -0.050 C 
ATOM     22  H6  MFU d         -37.395  23.996  11.509  0.00  0.00     0.031 H 
ATOM     23  H7  MFU d         -38.244  23.406  10.040  0.00  0.00     0.031 H 
ATOM     24  H8  MFU d         -36.834  22.501  10.687  0.00  0.00     0.031 H 
ENDBRANCH   5  21
BRANCH   4  25
ATOM     25  O4  MFU d         -38.976  20.387  10.249  0.00  0.00    -0.390 OA
ATOM     26  H11 MFU d         -38.053  20.356  10.475  0.00  0.00     0.210 HD
ENDBRANCH   4  25
TORSDOF 6
ENDMDL
MODEL 8
REMARK VINA RESULT:      -3.7      1.826      3.474
REMARK  6 active torsions:
REMARK  status: ('A' for Active; 'I' for Inactive)
REMARK    1  A    between atoms: C1_1  and  O1_7 
REMARK    2  A    between atoms: C2_2  and  O2_8 
REMARK    3  A    between atoms: C3_3  and  O3_9 
REMARK    4  A    between atoms: C4_4  and  O4_10 
REMARK    5  A    between atoms: C5_5  and  C6_6 
REMARK    6  A    between atoms: O1_7  and  CM_12 
ROOT
ATOM      1  C1  MFU d         -38.529  22.225  12.606  0.00  0.00     0.158 C 
ATOM      2  C2  MFU d         -38.326  20.780  12.257  0.00  0.00     0.110 C 
ATOM      3  C3  MFU d         -39.685  20.105  11.991  0.00  0.00     0.092 C 
ATOM      4  C4  MFU d         -40.566  20.832  10.982  0.00  0.00     0.087 C 
ATOM      5  C5  MFU d         -40.707  22.271  11.452  0.00  0.00     0.065 C 
ATOM      6  O5  MFU d         -39.380  22.847  11.595  0.00  0.00    -0.351 OA
ATOM      7  H1  MFU d         -37.558  22.740  12.643  0.00  0.00     0.133 H 
ATOM      8  H2  MFU d         -37.732  20.740  11.333  0.00  0.00     0.094 H 
ATOM      9  H3  MFU d         -40.234  20.033  12.942  0.00  0.00     0.091 H 
ATOM     10  H4  MFU d         -41.562  20.368  10.945  0.00  0.00     0.091 H 
ATOM     11  H5  MFU d         -41.158  22.244  12.455  0.00  0.00     0.086 H 
ENDROOT
BRANCH   1  12
ATOM     12  O1  MFU d         -39.179  22.310  13.892  0.00  0.00    -0.363 OA
BRANCH  12  13
ATOM     13  CM  MFU d         -38.351  23.102  14.794  0.00  0.00     0.007 C 
ATOM     14  H12 MFU d         -38.910  23.308  15.719  0.00  0.00     0.066 H 
ATOM     15  H13 MFU d         -38.084  24.052  14.308  0.00  0.00     0.066 H 
ATOM     16  H14 MFU d         -37.434  22.543  15.035  0.00  0.00     0.066 H 
ENDBRANCH  12  13
ENDBRANCH   1  12
BRANCH   2  17
ATOM     17  O2  MFU d         -37.607  20.039  13.280  0.00  0.00    -0.388 OA
ATOM     18  H9  MFU d         -38.229  19.646  13.881  0.00  0.00     0.210 HD
ENDBRANCH   2  17
BRANCH   3  19
ATOM     19  O3  MFU d         -39.405  18.782  11.486  0.00  0.00    -0.390 OA
ATOM     20  H10 MFU d         -38.513  18.750  11.164  0.00  0.00     0.210 HD
ENDBRANCH   3  19
BRANCH   5  21
ATOM     21  C6  MFU d         -41.662  23.102  10.570  0.00  0.00    -0.050 C 
ATOM     22  H6  MFU d         -41.692  24.138  10.937  0.00  0.00     0.031 H 
ATOM     23  H7  MFU d         -42.672  22.668  10.614  0.00  0.00     0.031 H 
ATOM     24  H8  MFU d         -41.304  23.092   9.529  0.00  0.00     0.031 H 
ENDBRANCH   5  21
BRANCH   4  25
ATOM     25  O4  MFU d         -39.944  20.712   9.682  0.00  0.00    -0.390 OA
ATOM     26  H11 MFU d         -39.974  21.552   9.239  0.00  0.00     0.210 HD
ENDBRANCH   4  25
TORSDOF 6
ENDMDL
